@<TRIPOS>MOLECULE
tmp/3h0rN01.pdb
 97 91 0 0 0
SMALL
GASTEIGER

@<TRIPOS>ATOM
      1  N       -133.5970   94.8770  -20.2020 N.3    10  GLU10      -0.1245
      2  CA      -134.1180   94.1930  -21.3640 C.3    10  GLU10       0.1567
      3  C       -132.9850   93.2820  -21.7770 C.2    10  GLU10       0.2260
      4  O       -132.0290   93.7230  -22.3900 O.2    10  GLU10      -0.2867
      5  CB      -134.4820   95.1950  -22.4730 C.3    10  GLU10       0.0388
      6  CG      -135.8000   95.9620  -22.2130 C.3    10  GLU10       0.1160
      7  CD      -135.9700   97.2960  -23.0010 C.2    10  GLU10       0.3649
      8  OE1     -134.9960   98.0900  -23.1550 O.co2  10  GLU10      -0.2457
      9  OE2     -137.1160   97.5730  -23.4600 O.co2  10  GLU10      -0.2457
     10  N       -131.4870   89.9910  -23.8720 N.3    12  HIS12      -0.1241
     11  CA      -131.7070   89.0090  -24.9340 C.3    12  HIS12       0.1621
     12  C       -130.7420   87.8530  -24.6930 C.2    12  HIS12       0.2264
     13  O       -129.5570   88.0630  -24.5990 O.2    12  HIS12      -0.2867
     14  CB      -131.5030   89.6130  -26.3340 C.3    12  HIS12       0.0745
     15  CG      -132.5910   90.5540  -26.7770 C.ar   12  HIS12       0.0817
     16  ND1     -132.6280   91.8840  -26.4080 N.ar   12  HIS12      -0.2268
     17  CD2     -133.6610   90.3670  -27.5920 C.ar   12  HIS12       0.1154
     18  CE1     -133.6800   92.4710  -26.9610 C.ar   12  HIS12       0.1986
     19  NE2     -134.3260   91.5740  -27.6850 N.ar   12  HIS12      -0.2212
     20  N       -142.2850   92.0280  -36.1050 N.3    79  LYS79      -0.1245
     21  CA      -141.8210   93.3170  -35.6560 C.3    79  LYS79       0.1561
     22  C       -141.0280   93.9590  -36.7890 C.2    79  LYS79       0.2260
     23  O       -139.8680   93.5940  -37.0360 O.2    79  LYS79      -0.2867
     24  CB      -140.9330   93.1340  -34.4310 C.3    79  LYS79       0.0271
     25  CG      -140.5650   94.4210  -33.7210 C.3    79  LYS79       0.0035
     26  CD      -139.4730   94.2200  -32.6840 C.3    79  LYS79       0.0206
     27  CE      -139.2100   95.5210  -31.9410 C.3    79  LYS79       0.1093
     28  NZ      -137.9480   95.5020  -31.1460 N.3    79  LYS79      -0.1314
     29  N       -138.6190   91.3760  -37.8240 N.3    91  GLN91      -0.1245
     30  CA      -138.0850   90.3720  -36.9520 C.3    91  GLN91       0.1566
     31  C       -139.2740   89.6120  -36.4180 C.2    91  GLN91       0.2260
     32  O       -140.2770   90.1960  -36.0540 O.2    91  GLN91      -0.2867
     33  CB      -137.2960   91.0360  -35.8210 C.3    91  GLN91       0.0367
     34  CG      -137.3030   90.2610  -34.5240 C.3    91  GLN91       0.0905
     35  CD      -136.4890   90.9250  -33.4130 C.2    91  GLN91       0.2608
     36  OE1     -136.7690   92.0490  -32.9530 O.2    91  GLN91      -0.2717
     37  NE2     -135.4870   90.1980  -32.9460 N.am   91  GLN91      -0.0878
     38  N       -140.1880   85.9700  -23.9160 N.3   123  HIS123     -0.1241
     39  CA      -140.7160   85.5900  -25.2200 C.3   123  HIS123      0.1621
     40  C       -139.6320   85.1370  -26.1840 C.2   123  HIS123      0.2264
     41  O       -138.4590   85.4110  -25.9560 O.2   123  HIS123     -0.2867
     42  CB      -141.6550   86.6460  -25.8310 C.3   123  HIS123      0.0745
     43  CG      -140.9840   87.8880  -26.3030 C.ar  123  HIS123      0.0817
     44  ND1     -141.2850   89.1260  -25.7900 N.ar  123  HIS123     -0.2268
     45  CD2     -140.0780   88.0960  -27.2800 C.ar  123  HIS123      0.1154
     46  CE1     -140.5620   90.0430  -26.4020 C.ar  123  HIS123      0.1986
     47  NE2     -139.8250   89.4440  -27.3180 N.ar  123  HIS123     -0.2212
     48  N       -136.0250   86.9980  -25.2800 N.3   151  GLU151     -0.1245
     49  CA      -135.9720   88.3310  -24.7680 C.3   151  GLU151      0.1567
     50  C       -136.5980   88.2390  -23.4000 C.2   151  GLU151      0.2260
     51  O       -137.7180   87.7630  -23.2900 O.2   151  GLU151     -0.2867
     52  CB      -136.7540   89.2850  -25.6530 C.3   151  GLU151      0.0388
     53  CG      -136.5620   90.7300  -25.2580 C.3   151  GLU151      0.1160
     54  CD      -137.4320   91.6680  -26.0190 C.2   151  GLU151      0.3649
     55  OE1     -137.5620   91.5790  -27.2670 O.co2 151  GLU151     -0.2457
     56  OE2     -137.9700   92.5450  -25.3370 O.co2 151  GLU151     -0.2457
     57  N       -129.9720   95.8790  -22.4030 N.3   193  ASP193     -0.1239
     58  CA      -130.2220   97.3100  -22.4960 C.3   193  ASP193      0.1674
     59  C       -130.7620   97.7480  -21.1550 C.2   193  ASP193      0.2266
     60  O       -131.5810   97.0650  -20.5600 O.2   193  ASP193     -0.2867
     61  CB      -131.1900   97.6570  -23.6310 C.3   193  ASP193      0.1410
     62  CG      -130.6620   97.2370  -25.0240 C.2   193  ASP193      0.3668
     63  OD1     -129.4510   97.4610  -25.3270 O.co2 193  ASP193     -0.2456
     64  OD2     -131.4790   96.6940  -25.8220 O.co2 193  ASP193     -0.2456
     65  N       -132.4310  105.3000  -21.6030 N.3   211  GLU211     -0.1245
     66  CA      -132.0200  103.9550  -21.9870 C.3   211  GLU211      0.1567
     67  C       -130.5630  103.9370  -22.4370 C.2   211  GLU211      0.2260
     68  O       -130.1630  104.7250  -23.2850 O.2   211  GLU211     -0.2867
     69  CB      -132.9250  103.4630  -23.1110 C.3   211  GLU211      0.0388
     70  CG      -132.7700  102.0090  -23.4990 C.3   211  GLU211      0.1160
     71  CD      -133.7320  101.5920  -24.6140 C.2   211  GLU211      0.3649
     72  OE1     -134.7110  102.3230  -24.8610 O.co2 211  GLU211     -0.2457
     73  OE2     -133.5230  100.5330  -25.2490 O.co2 211  GLU211     -0.2457
     74  N       -143.8750   99.6310  -34.9970 N.3   268  TYR268     -0.1241
     75  CA      -143.4280   98.3170  -35.4040 C.3   268  TYR268      0.1605
     76  C       -144.4690   97.5240  -36.1950 C.2   268  TYR268      0.2264
     77  O       -144.2020   96.3980  -36.6050 O.2   268  TYR268     -0.2867
     78  CB      -142.9170   97.5130  -34.2090 C.3   268  TYR268      0.0534
     79  CG      -141.6140   98.0210  -33.6580 C.ar  268  TYR268     -0.0201
     80  CD1     -140.4500   97.9650  -34.4200 C.ar  268  TYR268     -0.0009
     81  CD2     -141.5370   98.5630  -32.3720 C.ar  268  TYR268     -0.0009
     82  CE1     -139.2340   98.4510  -33.9270 C.ar  268  TYR268      0.0417
     83  CE2     -140.3160   99.0600  -31.8590 C.ar  268  TYR268      0.0417
     84  CZ      -139.1710   99.0000  -32.6510 C.ar  268  TYR268      0.1957
     85  OH      -137.9550   99.4540  -32.1790 O.3   268  TYR268     -0.2866
     86  N       -146.8560   95.6510  -35.6100 N.3   270  TYR270     -0.1241
     87  CA      -147.0140   94.2650  -35.1510 C.3   270  TYR270      0.1605
     88  C       -148.2860   93.6040  -35.6350 C.2   270  TYR270      0.2264
     89  O       -149.3470   94.2030  -35.6130 O.2   270  TYR270     -0.2867
     90  CB      -147.1210   94.2480  -33.6420 C.3   270  TYR270      0.0534
     91  CG      -145.8720   94.5050  -32.8440 C.ar  270  TYR270     -0.0201
     92  CD1     -144.9490   93.4780  -32.6090 C.ar  270  TYR270     -0.0009
     93  CD2     -145.6470   95.7500  -32.2480 C.ar  270  TYR270     -0.0009
     94  CE1     -143.8140   93.6920  -31.8300 C.ar  270  TYR270      0.0417
     95  CE2     -144.5070   95.9790  -31.4680 C.ar  270  TYR270      0.0417
     96  CZ      -143.5970   94.9420  -31.2640 C.ar  270  TYR270      0.1957
     97  OH      -142.4660   95.1460  -30.5020 O.3   270  TYR270     -0.2866
@<TRIPOS>BOND
     1    29    30    1
     2    23    22    2
     3    30    31    1
     4    30    33    1
     5    22    21    1
     6    77    76    2
     7    31    32    2
     8    76    75    1
     9    20    21    1
    10    33    34    1
    11    21    24    1
    12    88    89    2
    13    88    87    1
    14    86    87    1
    15    75    74    1
    16    75    78    1
    17    87    90    1
    18    34    35    1
    19    24    25    1
    20    80    82   ar
    21    80    79   ar
    22    78    79    1
    23    82    84   ar
    24    25    26    1
    25    79    81   ar
    26    90    91    1
    27    35    36    2
    28    35    37   am
    29    91    92   ar
    30    91    93   ar
    31    26    27    1
    32    84    85    1
    33    84    83   ar
    34    92    94   ar
    35    81    83   ar
    36    93    95   ar
    37    27    28    1
    38    94    96   ar
    39    95    96   ar
    40    96    97    1
    41    19    17   ar
    42    19    18   ar
    43    17    15   ar
    44    47    45   ar
    45    47    46   ar
    46    45    43   ar
    47    55    54   ar
    48    18    16   ar
    49    15    16   ar
    50    15    14    1
    51    46    44   ar
    52    14    11    1
    53    43    42    1
    54    43    44   ar
    55    40    41    2
    56    40    39    1
    57    54    56   ar
    58    54    53    1
    59    42    39    1
    60    64    62   ar
    61    52    53    1
    62    52    49    1
    63    63    62   ar
    64    48    49    1
    65    73    71   ar
    66    39    38    1
    67    62    61    1
    68    11    12    1
    69    11    10    1
    70    72    71   ar
    71    49    50    1
    72    12    13    2
    73    71    70    1
    74    61    58    1
    75    70    69    1
    76     9     7   ar
    77    50    51    2
    78    68    67    2
    79     8     7   ar
    80    69    66    1
    81     7     6    1
    82    58    57    1
    83    58    59    1
    84     5     6    1
    85     5     2    1
    86    67    66    1
    87     4     3    2
    88    66    65    1
    89     3     2    1
    90     2     1    1
    91    59    60    2
