@<TRIPOS>MOLECULE
tmp/3h0rE00.pdb
 146 139 0 0 0
SMALL
GASTEIGER

@<TRIPOS>ATOM
      1  N        -65.4190   39.0790  -46.2950 N.3     6  VAL6       -0.1245
      2  CA       -66.3090   38.0090  -46.7690 C.3     6  VAL6        0.1561
      3  C        -65.7150   37.4480  -48.0420 C.2     6  VAL6        0.2260
      4  O        -65.5010   38.1620  -49.0180 O.2     6  VAL6       -0.2867
      5  CB       -67.7590   38.4870  -47.0770 C.3     6  VAL6        0.0252
      6  CG1      -68.7390   37.3050  -47.0060 C.3     6  VAL6        0.0019
      7  CG2      -68.2080   39.6240  -46.1310 C.3     6  VAL6        0.0019
      8  N        -65.7100   34.2790  -50.8380 N.3     8  GLY8       -0.1210
      9  CA       -66.2810   33.1150  -51.5110 C.3     8  GLY8        0.1956
     10  C        -65.3460   32.6830  -52.6240 C.2     8  GLY8        0.2612
     11  O        -64.6560   33.5320  -53.2260 O.2     8  GLY8       -0.2717
     12  N        -65.3110   31.3740  -52.8930 N.am    9  LEU9       -0.1965
     13  CA       -64.4120   30.8290  -53.9030 C.3     9  LEU9        0.1728
     14  C        -65.1020   29.9480  -54.9490 C.2     9  LEU9        0.2616
     15  O        -66.0150   29.2080  -54.6190 O.2     9  LEU9       -0.2715
     16  CB       -63.2970   30.0490  -53.2390 C.3     9  LEU9        0.0311
     17  CG       -62.4320   30.6700  -52.1510 C.3     9  LEU9        0.0022
     18  CD1      -61.2970   29.7100  -51.8290 C.3     9  LEU9        0.0001
     19  CD2      -61.8890   32.0270  -52.5620 C.3     9  LEU9        0.0001
     20  N        -64.6570   30.0500  -56.2090 N.am   10  GLU10      -0.1977
     21  CA       -65.0950   29.2130  -57.3380 C.3    10  GLU10       0.1602
     22  C        -63.8970   28.3690  -57.7780 C.2    10  GLU10       0.2287
     23  O        -62.9750   28.8470  -58.4340 O.2    10  GLU10      -0.2864
     24  CB       -65.5920   30.0800  -58.4990 C.3    10  GLU10       0.0415
     25  CG       -67.0330   30.5880  -58.3360 C.3    10  GLU10       0.1163
     26  CD       -67.3450   31.9560  -59.0460 C.2    10  GLU10       0.3649
     27  OE1      -66.3830   32.6930  -59.4070 O.co2  10  GLU10      -0.2457
     28  OE2      -68.5630   32.2940  -59.2270 O.co2  10  GLU10      -0.2457
     29  N        -71.9470   25.5460  -52.1500 N.3   120  ARG120     -0.1245
     30  CA       -73.2270   25.9650  -52.7480 C.3   120  ARG120      0.1563
     31  C        -73.6400   25.0280  -53.9000 C.2   120  ARG120      0.2260
     32  O        -74.8180   24.7370  -54.0640 O.2   120  ARG120     -0.2867
     33  CB       -73.1470   27.4320  -53.2040 C.3   120  ARG120      0.0307
     34  CG       -74.2930   27.9490  -54.0440 C.3   120  ARG120      0.0489
     35  CD       -74.1620   29.4570  -54.3190 C.3   120  ARG120      0.2205
     36  NE       -75.4270   29.9440  -54.8620 N.pl3 120  ARG120     -0.0865
     37  CZ       -76.3920   30.5480  -54.1510 C.cat 120  ARG120      0.5346
     38  NH1      -76.2260   30.8020  -52.8450 N.pl3 120  ARG120      0.1354
     39  NH2      -77.5310   30.9230  -54.7450 N.pl3 120  ARG120      0.1354
     40  N        -67.0950   21.9000  -61.2780 N.3   151  GLU151     -0.1245
     41  CA       -66.9970   23.2550  -60.8040 C.3   151  GLU151      0.1567
     42  C        -67.5470   23.2090  -59.4010 C.2   151  GLU151      0.2260
     43  O        -68.5790   22.5870  -59.1730 O.2   151  GLU151     -0.2867
     44  CB       -67.7520   24.2510  -61.6580 C.3   151  GLU151      0.0388
     45  CG       -67.7310   25.6510  -61.0480 C.3   151  GLU151      0.1160
     46  CD       -68.5530   26.6450  -61.8350 C.2   151  GLU151      0.3649
     47  OE1      -68.4180   26.6820  -63.0660 O.co2 151  GLU151     -0.2457
     48  OE2      -69.3410   27.4020  -61.2400 O.co2 151  GLU151     -0.2457
     49  N        -68.4270   25.6140  -56.0110 N.3   153  VAL153     -0.1231
     50  CA       -68.7360   26.9810  -55.6470 C.3   153  VAL153      0.1692
     51  C        -69.0330   27.0440  -54.1550 C.2   153  VAL153      0.2593
     52  O        -69.7000   26.1860  -53.6170 O.2   153  VAL153     -0.2718
     53  CB       -69.9460   27.4940  -56.4450 C.3   153  VAL153      0.0266
     54  CG1      -70.2890   28.9230  -56.0450 C.3   153  VAL153      0.0020
     55  CG2      -69.6660   27.4310  -57.9250 C.3   153  VAL153      0.0020
     56  N        -68.5430   28.0800  -53.4970 N.am  154  THR154     -0.1939
     57  CA       -68.5620   28.1890  -52.0530 C.3   154  THR154      0.2028
     58  C        -69.4960   29.3210  -51.6720 C.2   154  THR154      0.2642
     59  O        -69.5320   30.3480  -52.3710 O.2   154  THR154     -0.2714
     60  CB       -67.1430   28.5680  -51.6050 C.3   154  THR154      0.1808
     61  OG1      -66.3480   27.3920  -51.4040 O.3   154  THR154     -0.2208
     62  CG2      -67.1590   29.3640  -50.3710 C.3   154  THR154      0.0379
     63  N        -70.2350   29.1660  -50.5700 N.am  155  GLU155     -0.1963
     64  CA       -70.9710   30.3170  -50.0030 C.3   155  GLU155      0.1718
     65  C        -69.9760   31.3520  -49.4420 C.2   155  GLU155      0.2458
     66  O        -68.8330   31.0180  -49.1850 O.2   155  GLU155     -0.2730
     67  CB       -71.9540   29.8690  -48.9150 C.3   155  GLU155      0.0428
     68  CG       -73.1070   28.9950  -49.4060 C.3   155  GLU155      0.1163
     69  CD       -74.1510   29.7110  -50.2790 C.2   155  GLU155      0.3649
     70  OE1      -74.2030   30.9710  -50.3320 O.co2 155  GLU155     -0.2457
     71  OE2      -74.9480   28.9740  -50.9010 O.co2 155  GLU155     -0.2457
     72  N        -70.3900   32.6040  -49.2280 N.am  156  PRO156     -0.2727
     73  CA       -69.3610   33.5040  -48.7000 C.3   156  PRO156      0.1402
     74  C        -69.0990   33.3020  -47.1940 C.2   156  PRO156      0.2269
     75  O        -69.2430   34.2220  -46.3920 O.2   156  PRO156     -0.2865
     76  CB       -69.9240   34.9030  -48.9990 C.3   156  PRO156      0.0296
     77  CG       -71.2330   34.6750  -49.7000 C.3   156  PRO156      0.0237
     78  CD       -71.6730   33.2800  -49.4080 C.3   156  PRO156      0.0939
     79  N        -63.5270   35.7870  -54.8030 N.3   195  ASN195     -0.1225
     80  CA       -64.5390   36.8360  -54.6840 C.3   195  ASN195      0.1785
     81  C        -64.4820   37.3930  -53.2750 C.2   195  ASN195      0.2597
     82  O        -64.6500   36.6500  -52.3100 O.2   195  ASN195     -0.2718
     83  CB       -65.9450   36.2700  -54.9570 C.3   195  ASN195      0.1169
     84  CG       -66.0820   35.6380  -56.3450 C.2   195  ASN195      0.2627
     85  OD1      -66.6210   36.2650  -57.2600 O.2   195  ASN195     -0.2716
     86  ND2      -65.6230   34.3840  -56.4990 N.am  195  ASN195     -0.0877
     87  N        -64.2550   38.6920  -53.1380 N.am  196  VAL196     -0.1966
     88  CA       -64.1080   39.2550  -51.7980 C.3   196  VAL196      0.1727
     89  C        -64.7290   40.6310  -51.6140 C.2   196  VAL196      0.2616
     90  O        -64.5660   41.5150  -52.4450 O.2   196  VAL196     -0.2715
     91  CB       -62.6250   39.2050  -51.3180 C.3   196  VAL196      0.0290
     92  CG1      -61.6960   39.8560  -52.3250 C.3   196  VAL196      0.0023
     93  CG2      -62.4650   39.8200  -49.9450 C.3   196  VAL196      0.0023
     94  N        -65.4440   40.7760  -50.5010 N.am  197  SER197     -0.1950
     95  CA       -66.0760   42.0180  -50.0850 C.3   197  SER197      0.1924
     96  C        -65.7920   42.3000  -48.6060 C.2   197  SER197      0.2314
     97  O        -65.5230   41.3670  -47.8230 O.2   197  SER197     -0.2863
     98  CB       -67.5850   41.9260  -50.3000 C.3   197  SER197      0.2116
     99  OG       -68.1730   40.8970  -49.5090 O.3   197  SER197     -0.2180
    100  N        -74.1170   42.8530  -47.2320 N.3   206  PHE206     -0.1227
    101  CA       -72.9930   42.4020  -48.0430 C.3   206  PHE206      0.1736
    102  C        -72.3810   43.5570  -48.8290 C.2   206  PHE206      0.2596
    103  O        -73.0520   44.1910  -49.6430 O.2   206  PHE206     -0.2718
    104  CB       -73.4320   41.2910  -48.9980 C.3   206  PHE206      0.0547
    105  CG       -73.6060   39.9550  -48.3350 C.ar  206  PHE206     -0.0202
    106  CD1      -72.5230   39.1120  -48.1510 C.ar  206  PHE206     -0.0042
    107  CD2      -74.8520   39.5410  -47.8960 C.ar  206  PHE206     -0.0042
    108  CE1      -72.6790   37.8820  -47.5400 C.ar  206  PHE206     -0.0003
    109  CE2      -75.0150   38.3120  -47.2850 C.ar  206  PHE206     -0.0003
    110  CZ       -73.9270   37.4820  -47.1070 C.ar  206  PHE206     -0.0000
    111  N        -71.1040   43.8260  -48.5780 N.am  207  GLY207     -0.1957
    112  CA       -70.3730   44.8550  -49.3220 C.3   207  GLY207      0.1869
    113  C        -70.1340   44.4560  -50.7680 C.2   207  GLY207      0.2309
    114  O        -70.3010   43.2980  -51.1390 O.2   207  GLY207     -0.2863
    115  N        -68.6320   43.5010  -54.4450 N.3   209  ARG209     -0.1245
    116  CA       -67.8650   42.2710  -54.6980 C.3   209  ARG209      0.1563
    117  C        -66.8120   42.3320  -55.8160 C.2   209  ARG209      0.2260
    118  O        -67.1400   42.5400  -56.9810 O.2   209  ARG209     -0.2867
    119  CB       -68.8220   41.1020  -54.9630 C.3   209  ARG209      0.0307
    120  CG       -68.1300   39.7490  -54.9730 C.3   209  ARG209      0.0489
    121  CD       -68.8660   38.7300  -55.8160 C.3   209  ARG209      0.2205
    122  NE       -68.8830   39.1130  -57.2270 N.pl3 209  ARG209     -0.0865
    123  CZ       -69.0530   38.2640  -58.2390 C.cat 209  ARG209      0.5346
    124  NH1      -69.2140   36.9670  -58.0080 N.pl3 209  ARG209      0.1354
    125  NH2      -69.0560   38.7110  -59.4870 N.pl3 209  ARG209      0.1354
    126  N        -63.6850   40.3790  -57.9080 N.3   211  GLU211     -0.1245
    127  CA       -63.1290   39.0750  -58.2670 C.3   211  GLU211      0.1567
    128  C        -61.6540   39.1730  -58.6510 C.2   211  GLU211      0.2260
    129  O        -61.2830   39.9530  -59.5190 O.2   211  GLU211     -0.2867
    130  CB       -63.9250   38.4090  -59.3940 C.3   211  GLU211      0.0388
    131  CG       -63.6930   36.8950  -59.4810 C.3   211  GLU211      0.1160
    132  CD       -64.3710   36.2510  -60.6880 C.2   211  GLU211      0.3649
    133  OE1      -65.1200   36.9670  -61.4010 O.co2 211  GLU211     -0.2457
    134  OE2      -64.1530   35.0360  -60.9340 O.co2 211  GLU211     -0.2457
    135  N        -74.8490   34.4470  -71.1350 N.3   268  TYR268     -0.1241
    136  CA       -74.3840   33.1390  -71.5600 C.3   268  TYR268      0.1605
    137  C        -75.4150   32.3230  -72.3320 C.2   268  TYR268      0.2264
    138  O        -75.1020   31.2520  -72.8310 O.2   268  TYR268     -0.2867
    139  CB       -73.9120   32.3460  -70.3670 C.3   268  TYR268      0.0534
    140  CG       -72.6510   32.8560  -69.7420 C.ar  268  TYR268     -0.0201
    141  CD1      -71.4490   32.8000  -70.4260 C.ar  268  TYR268     -0.0009
    142  CD2      -72.6530   33.3770  -68.4400 C.ar  268  TYR268     -0.0009
    143  CE1      -70.2810   33.2470  -69.8440 C.ar  268  TYR268      0.0417
    144  CE2      -71.4840   33.8270  -67.8360 C.ar  268  TYR268      0.0417
    145  CZ       -70.3030   33.7550  -68.5490 C.ar  268  TYR268      0.1957
    146  OH       -69.1230   34.1790  -67.9840 O.3   268  TYR268     -0.2866
@<TRIPOS>BOND
     1   138   137    2
     2   137   136    1
     3   136   135    1
     4   136   139    1
     5   141   143   ar
     6   141   140   ar
     7   139   140    1
     8   143   145   ar
     9   140   142   ar
    10   145   146    1
    11   145   144   ar
    12   142   144   ar
    13    47    46   ar
    14    46    48   ar
    15    46    45    1
    16    44    45    1
    17    44    41    1
    18   133   132   ar
    19    40    41    1
    20   134   132   ar
    21    41    42    1
    22   132   131    1
    23   129   128    2
    24   125   123    1
    25   131   130    1
    26    27    26   ar
    27    42    43    2
    28   130   127    1
    29    28    26   ar
    30    26    25    1
    31   128   127    1
    32    24    25    1
    33    24    21    1
    34    23    22    2
    35   127   126    1
    36   123   124    1
    37   123   122    2
    38    55    53    1
    39    22    21    1
    40    21    20    1
    41    85    84    2
    42   122   121    1
    43   118   117    2
    44    86    84   am
    45    53    54    1
    46    53    50    1
    47    84    83    1
    48    20    14   am
    49    49    50    1
    50   117   116    1
    51   121   120    1
    52    50    51    1
    53   120   119    1
    54   119   116    1
    55    83    80    1
    56    14    15    2
    57    14    13    1
    58    36    35    1
    59    36    37    2
    60    79    80    1
    61    39    37    1
    62   116   115    1
    63    80    81    1
    64    35    34    1
    65    51    52    2
    66    51    56   am
    67    37    38    1
    68    32    31    2
    69    34    33    1
    70    13    16    1
    71    13    12    1
    72    31    30    1
    73    56    57    1
    74    81    87   am
    75    81    82    2
    76    16    17    1
    77    11    10    2
    78    33    30    1
    79    87    88    1
    80    12    10   am
    81    30    29    1
    82    10     9    1
    83    19    17    1
    84    90    89    2
    85    59    58    2
    86    92    91    1
    87    17    18    1
    88    57    58    1
    89    57    60    1
    90    88    89    1
    91    88    91    1
    92    58    63   am
    93    89    94   am
    94    60    61    1
    95    60    62    1
    96     9     8    1
    97    91    93    1
    98   114   113    2
    99    71    69   ar
   100   113   112    1
   101    63    64    1
   102    94    95    1
   103    70    69   ar
   104    98    95    1
   105    98    99    1
   106    69    68    1
   107    95    96    1
   108    64    65    1
   109    64    67    1
   110    77    78    1
   111    77    76    1
   112   103   102    2
   113    65    72   am
   114    65    66    2
   115    78    72    1
   116    68    67    1
   117   112   111    1
   118    72    73    1
   119     4     3    2
   120    76    73    1
   121   104   105    1
   122   104   101    1
   123   102   111   am
   124   102   101    1
   125    73    74    1
   126    96    97    2
   127   105   106   ar
   128   105   107   ar
   129   106   108   ar
   130   101   100    1
   131     3     2    1
   132   107   109   ar
   133   108   110   ar
   134   109   110   ar
   135    74    75    2
   136     5     6    1
   137     5     2    1
   138     5     7    1
   139     2     1    1
