@<TRIPOS>MOLECULE
tmp/3h0sA00.pdb
 124 119 0 0 0
SMALL
GASTEIGER

@<TRIPOS>ATOM
      1  N         11.3540   34.2820   11.4190 N.2   441  PRO441     -0.2584
      2  CA        12.1760   33.9420   12.5630 C.3   441  PRO441      0.1895
      3  C         12.6080   32.5160   12.5520 C.2   441  PRO441      0.2359
      4  O         11.8430   31.6530   12.1230 O.2   441  PRO441     -0.2858
      5  CB        11.2720   34.1880   13.7790 C.2   441  PRO441      0.0071
      6  CG        10.0780   34.7780   13.2970 C.2   441  PRO441      0.0180
      7  CD        10.0610   34.8680   11.8130 C.2   441  PRO441      0.0937
      8  N         11.2600   28.4320   13.9760 N.3   444  VAL444     -0.1245
      9  CA         9.8550   28.6220   13.8770 C.3   444  VAL444      0.1561
     10  C          9.4200   28.0840   12.5180 C.2   444  VAL444      0.2260
     11  O          9.8590   28.5970   11.4330 O.2   444  VAL444     -0.2867
     12  CB         9.4270   30.0530   14.0230 C.3   444  VAL444      0.0252
     13  CG1        7.8230   30.1080   13.8930 C.3   444  VAL444      0.0019
     14  CG2        9.8360   30.5910   15.4010 C.3   444  VAL444      0.0019
     15  N          7.0680   27.8490    9.6240 N.3   446  HIS446     -0.1241
     16  CA         6.0210   28.5420    8.8930 C.3   446  HIS446      0.1621
     17  C          5.3660   27.5720    7.9060 C.2   446  HIS446      0.2264
     18  O          5.7660   26.3930    7.8080 O.2   446  HIS446     -0.2867
     19  CB         6.5860   29.8000    8.2300 C.3   446  HIS446      0.0745
     20  CG         7.2450   30.7150    9.2130 C.ar  446  HIS446      0.0817
     21  ND1        8.4980   30.4680    9.7390 N.ar  446  HIS446     -0.2268
     22  CD2        6.7980   31.8330    9.8190 C.ar  446  HIS446      0.1154
     23  CE1        8.7950   31.4140   10.6110 C.ar  446  HIS446      0.1986
     24  NE2        7.7820   32.2500   10.6810 N.ar  446  HIS446     -0.2212
     25  N         11.0830   26.0520   18.0860 N.3   475  ARG475     -0.1231
     26  CA        10.2620   26.5730   19.1870 C.3   475  ARG475      0.1694
     27  C          8.8000   26.2520   18.9810 C.2   475  ARG475      0.2593
     28  O          8.0750   26.0080   19.9220 O.2   475  ARG475     -0.2718
     29  CB        10.4160   28.0480   19.3400 C.3   475  ARG475      0.0321
     30  CG        11.8600   28.4800   19.5150 C.3   475  ARG475      0.0489
     31  CD        11.9970   30.0040   19.3580 C.3   475  ARG475      0.2205
     32  NE        11.3120   30.6730   20.4800 N.pl3 475  ARG475     -0.0865
     33  CZ        11.0730   31.9770   20.5440 C.cat 475  ARG475      0.5346
     34  NH1       11.3890   32.7640   19.5100 N.pl3 475  ARG475      0.1354
     35  NH2       10.4700   32.4860   21.6250 N.pl3 475  ARG475      0.1354
     36  N          8.3610   26.1920   17.7450 N.am  476  GLY476     -0.1942
     37  CA         7.0330   25.6550   17.4670 C.3   476  GLY476      0.2014
     38  C          6.6570   26.0850   16.0860 C.2   476  GLY476      0.2639
     39  O          7.5200   26.4440   15.3070 O.2   476  GLY476     -0.2714
     40  N          5.3570   26.0780   15.8130 N.am  477  PHE477     -0.1959
     41  CA         4.8040   26.6570   14.5850 C.3   477  PHE477      0.1771
     42  C          4.3920   28.1060   14.8240 C.2   477  PHE477      0.2620
     43  O          3.9760   28.4140   15.8970 O.2   477  PHE477     -0.2715
     44  CB         3.5900   25.8120   14.1550 C.3   477  PHE477      0.0574
     45  CG         3.9230   24.3360   13.7840 C.ar  477  PHE477     -0.0200
     46  CD1        3.8740   23.3380   14.7140 C.ar  477  PHE477     -0.0042
     47  CD2        4.2010   23.9840   12.4730 C.ar  477  PHE477     -0.0042
     48  CE1        4.1540   21.9980   14.3310 C.ar  477  PHE477     -0.0003
     49  CE2        4.5080   22.7110   12.1200 C.ar  477  PHE477     -0.0003
     50  CZ         4.4690   21.7140   13.0220 C.ar  477  PHE477     -0.0000
     51  N          4.4830   28.9800   13.8190 N.am  478  SER478     -0.1936
     52  CA         3.8830   30.3100   13.8860 C.3   478  SER478      0.2055
     53  C          2.3680   30.1860   13.9930 C.2   478  SER478      0.2644
     54  O          1.7320   29.7450   13.0760 O.2   478  SER478     -0.2714
     55  CB         4.2350   31.1400   12.6500 C.3   478  SER478      0.2130
     56  OG         3.8490   32.4890   12.7950 O.3   478  SER478     -0.2179
     57  N          1.8310   30.4900   15.1740 N.am  479  GLY479     -0.1939
     58  CA         0.3750   30.4600   15.4530 C.3   479  GLY479      0.2014
     59  C         -0.3820   31.7890   15.3330 C.2   479  GLY479      0.2639
     60  O         -1.5440   31.9020   15.7530 O.2   479  GLY479     -0.2714
     61  N          0.2890   32.7840   14.7820 N.am  480  GLY480     -0.1954
     62  CA        -0.3180   34.0150   14.4780 C.3   480  GLY480      0.1869
     63  C         -1.2010   33.9940   13.2830 C.2   480  GLY480      0.2309
     64  O         -1.3240   32.9590   12.5760 O.2   480  GLY480     -0.2863
     65  N          9.7090   22.3300   21.4580 N.3   517  ARG517     -0.1245
     66  CA         8.6160   22.6840   22.3270 C.3   517  ARG517      0.1563
     67  C          7.3090   22.2350   21.7090 C.2   517  ARG517      0.2260
     68  O          7.2500   22.1230   20.4880 O.2   517  ARG517     -0.2867
     69  CB         8.5290   24.1960   22.4750 C.3   517  ARG517      0.0307
     70  CG         9.7890   24.8540   22.9010 C.3   517  ARG517      0.0489
     71  CD        10.0190   24.6490   24.3500 C.3   517  ARG517      0.2205
     72  NE        11.3040   25.2330   24.7380 N.pl3 517  ARG517     -0.0865
     73  CZ        11.8480   25.0980   25.9430 C.cat 517  ARG517      0.5346
     74  NH1       11.2110   24.4460   26.8940 N.pl3 517  ARG517      0.1354
     75  NH2       13.0330   25.6200   26.1870 N.pl3 517  ARG517      0.1354
     76  N          6.6400   21.5330   27.0940 N.3   545  VAL545     -0.1231
     77  CA         5.3910   22.0010   26.4240 C.3   545  VAL545      0.1692
     78  C          5.5350   23.4980   26.0470 C.2   545  VAL545      0.2592
     79  O          5.3950   23.9020   24.9000 O.2   545  VAL545     -0.2718
     80  CB         4.1390   21.7200   27.2860 C.3   545  VAL545      0.0266
     81  CG1        2.9370   22.3300   26.6520 C.3   545  VAL545      0.0020
     82  CG2        3.8930   20.1850   27.5690 C.3   545  VAL545      0.0020
     83  N          5.9400   24.2780   27.0390 N.am  546  LEU546     -0.1966
     84  CA         6.2060   25.7090   26.9070 C.3   546  LEU546      0.1728
     85  C          7.6690   26.0360   27.2400 C.2   546  LEU546      0.2616
     86  O          8.2750   25.3740   28.0810 O.2   546  LEU546     -0.2715
     87  CB         5.3320   26.4730   27.9180 C.3   546  LEU546      0.0311
     88  CG         3.8440   26.1950   27.9240 C.3   546  LEU546      0.0022
     89  CD1        3.1770   26.9310   29.0860 C.3   546  LEU546      0.0001
     90  CD2        3.3080   26.6350   26.5750 C.3   546  LEU546      0.0001
     91  N          8.1740   27.1040   26.6250 N.am  547  GLU547     -0.1977
     92  CA         9.3250   27.8770   27.1230 C.3   547  GLU547      0.1602
     93  C          9.0930   28.3280   28.6000 C.2   547  GLU547      0.2287
     94  O          7.9250   28.4620   29.0520 O.2   547  GLU547     -0.2864
     95  CB         9.5730   29.0740   26.1980 C.3   547  GLU547      0.0415
     96  CG         9.9990   28.6170   24.8430 C.3   547  GLU547      0.1163
     97  CD        10.1290   29.6600   23.7480 C.2   547  GLU547      0.3649
     98  OE1        9.5110   30.7460   23.7730 O.co2 547  GLU547     -0.2457
     99  OE2       10.9000   29.3940   22.8140 O.co2 547  GLU547     -0.2457
    100  N          9.4450   31.3800   30.1190 N.3   549  GLN549     -0.1231
    101  CA         8.5460   32.5220   30.2100 C.3   549  GLN549      0.1698
    102  C          7.0840   32.0680   30.2570 C.2   549  GLN549      0.2592
    103  O          6.2970   32.5920   31.0930 O.2   549  GLN549     -0.2718
    104  CB         8.7310   33.5290   29.0670 C.3   549  GLN549      0.0381
    105  CG         9.2570   34.9930   29.4450 C.3   549  GLN549      0.0905
    106  CD         8.7800   35.5540   30.8460 C.2   549  GLN549      0.2608
    107  OE1        9.5860   36.1540   31.5860 O.2   549  GLN549     -0.2717
    108  NE2        7.4910   35.3340   31.1990 N.am  549  GLN549     -0.0878
    109  N          6.7470   31.0740   29.3990 N.am  550  GLY550     -0.1957
    110  CA         5.3890   30.5490   29.2740 C.3   550  GLY550      0.1869
    111  C          4.9410   29.8190   30.5090 C.2   550  GLY550      0.2309
    112  O          3.8090   29.9850   30.9920 O.2   550  GLY550     -0.2863
    113  N          4.4850   32.2860   33.5970 N.3   553  GLY553     -0.1210
    114  CA         3.2200   32.9410   33.2710 C.3   553  GLY553      0.1956
    115  C          1.9750   32.1610   33.6660 C.2   553  GLY553      0.2611
    116  O          0.9170   32.7270   33.7450 O.2   553  GLY553     -0.2717
    117  N          2.0640   30.8660   33.8930 N.am  554  ILE554     -0.1979
    118  CA         0.8810   30.1080   34.2630 C.3   554  ILE554      0.1595
    119  C          1.0480   29.4490   35.6080 C.2   554  ILE554      0.2287
    120  O          0.0550   29.2100   36.3040 O.2   554  ILE554     -0.2864
    121  CB         0.5430   28.9890   33.2220 C.3   554  ILE554      0.0276
    122  CG1        0.3170   29.6000   31.8490 C.3   554  ILE554      0.0022
    123  CG2       -0.6770   28.1750   33.6550 C.3   554  ILE554      0.0022
    124  CD1        0.0270   28.5860   30.7430 C.3   554  ILE554      0.0001
@<TRIPOS>BOND
     1    18    17    2
     2    17    16    1
     3    19    16    1
     4    19    20    1
     5    16    15    1
     6    20    21   ar
     7    20    22   ar
     8    21    23   ar
     9    22    24   ar
    10    23    24   ar
    11     1     7    2
    12     1     2    1
    13    11    10    2
    14     7     6    1
    15    49    47   ar
    16    49    50   ar
    17     4     3    2
    18    47    45   ar
    19    10     9    1
    20     3     2    1
    21     2     5    1
    22    64    63    2
    23    55    56    1
    24    55    52    1
    25    50    48   ar
    26    54    53    2
    27    63    62    1
    28     6     5    2
    29    45    44    1
    30    45    46   ar
    31    51    52    1
    32    51    42   am
    33     9     8    1
    34     9    12    1
    35    52    53    1
    36    13    12    1
    37    53    57   am
    38    12    14    1
    39    44    41    1
    40    48    46   ar
    41    62    61    1
    42    41    42    1
    43    41    40    1
    44    61    59   am
    45    42    43    2
    46    57    58    1
    47    39    38    2
    48    59    58    1
    49    59    60    2
    50    40    38   am
    51    38    37    1
    52    37    36    1
    53    36    27   am
    54    25    26    1
    55    27    26    1
    56    27    28    2
    57    26    29    1
    58    29    30    1
    59    31    30    1
    60    31    32    1
    61    34    33    1
    62    32    33    2
    63    68    67    2
    64    33    35    1
    65    65    66    1
    66    67    66    1
    67    66    69    1
    68    69    70    1
    69    99    97   ar
    70    70    71    1
    71    97    98   ar
    72    97    96    1
    73    71    72    1
    74    72    73    2
    75    96    95    1
    76    79    78    2
    77    73    75    1
    78    73    74    1
    79    78    77    1
    80    78    83   am
    81    95    92    1
    82    77    76    1
    83    77    80    1
    84    90    88    1
    85    91    92    1
    86    91    85   am
    87    81    80    1
    88    84    83    1
    89    84    85    1
    90    84    87    1
    91    92    93    1
    92    85    86    2
    93    80    82    1
    94    87    88    1
    95    88    89    1
    96    93    94    2
    97   104   105    1
    98   104   101    1
    99   110   109    1
   100   110   111    1
   101   109   102   am
   102   105   106    1
   103   100   101    1
   104   101   102    1
   105   102   103    2
   106   111   112    2
   107   124   122    1
   108   106   108   am
   109   106   107    2
   110   122   121    1
   111   121   123    1
   112   121   118    1
   113   114   113    1
   114   114   115    1
   115   115   116    2
   116   115   117   am
   117   117   118    1
   118   118   119    1
   119   119   120    2
