@<TRIPOS>MOLECULE
tmp/3h0sB00.pdb
 99 96 0 0 0
SMALL
GASTEIGER

@<TRIPOS>ATOM
      1  N         31.2160  -34.5260   53.1520 N.3   441  PRO441     -0.2116
      2  CA        30.9460  -33.6900   54.3170 C.3   441  PRO441      0.1372
      3  C         31.7790  -32.4030   54.2870 C.2   441  PRO441      0.2244
      4  O         32.9590  -32.4600   53.9170 O.2   441  PRO441     -0.2868
      5  CB        31.4240  -34.5610   55.4720 C.3   441  PRO441      0.0268
      6  CG        31.3630  -35.9370   54.9960 C.3   441  PRO441      0.0207
      7  CD        31.6080  -35.8950   53.5360 C.3   441  PRO441      0.0892
      8  N         35.9300  -31.0770   55.7100 N.3   444  VAL444     -0.1245
      9  CA        36.7720  -32.2720   55.5710 C.3   444  VAL444      0.1561
     10  C         37.4190  -32.4110   54.1890 C.2   444  VAL444      0.2260
     11  O         36.7250  -32.5230   53.1860 O.2   444  VAL444     -0.2867
     12  CB        35.9780  -33.5440   55.7680 C.3   444  VAL444      0.0252
     13  CG1       36.8890  -34.7420   55.6700 C.3   444  VAL444      0.0019
     14  CG2       35.3900  -33.5330   57.1120 C.3   444  VAL444      0.0019
     15  N         38.9410  -34.3120   51.3190 N.3   446  HIS446     -0.1297
     16  CA        39.1090  -35.5630   50.5890 C.3   446  HIS446      0.1306
     17  C         40.2760  -35.3980   49.5670 C.3   446  HIS446      0.2013
     18  O         40.9090  -34.2820   49.4590 O.3   446  HIS446     -0.2188
     19  CB        37.7960  -35.8320   49.9050 C.3   446  HIS446      0.0691
     20  CG        36.6660  -35.8250   50.8720 C.ar  446  HIS446      0.0814
     21  ND1       36.1000  -34.6570   51.3410 N.ar  446  HIS446     -0.2268
     22  CD2       36.0970  -36.8350   51.5660 C.ar  446  HIS446      0.1154
     23  CE1       35.2180  -34.9520   52.2700 C.ar  446  HIS446      0.1986
     24  NE2       35.1820  -36.2670   52.4140 N.ar  446  HIS446     -0.2212
     25  N         38.2350  -29.7400   59.6940 N.3   475  ARG475     -0.1231
     26  CA        38.3530  -30.5940   60.8480 C.3   475  ARG475      0.1694
     27  C         39.5130  -31.5340   60.7130 C.2   475  ARG475      0.2593
     28  O         40.2080  -31.8240   61.6870 O.2   475  ARG475     -0.2718
     29  CB        37.0620  -31.3990   61.0080 C.3   475  ARG475      0.0321
     30  CG        35.9130  -30.4510   61.3740 C.3   475  ARG475      0.0489
     31  CD        34.5340  -31.0790   61.1430 C.3   475  ARG475      0.2205
     32  NE        34.1870  -31.9040   62.2900 N.pl3 475  ARG475     -0.0865
     33  CZ        33.6270  -33.1040   62.2190 C.cat 475  ARG475      0.5346
     34  NH1       33.3080  -33.6450   61.0310 N.pl3 475  ARG475      0.1354
     35  NH2       33.3820  -33.7620   63.3530 N.pl3 475  ARG475      0.1354
     36  N         39.6610  -32.0860   59.5120 N.am  476  GLY476     -0.1942
     37  CA        40.8190  -32.8650   59.1570 C.3   476  GLY476      0.2014
     38  C         40.6980  -33.3990   57.7590 C.2   476  GLY476      0.2639
     39  O         40.0200  -32.8020   56.9140 O.2   476  GLY476     -0.2714
     40  N         41.3880  -34.5130   57.5390 N.am  477  PHE477     -0.1959
     41  CA        41.4070  -35.1970   56.3020 C.3   477  PHE477      0.1771
     42  C         40.4920  -36.3590   56.5750 C.2   477  PHE477      0.2620
     43  O         40.4620  -36.8460   57.6570 O.2   477  PHE477     -0.2715
     44  CB        42.8640  -35.6800   55.9760 C.3   477  PHE477      0.0574
     45  CG        43.7790  -34.5670   55.4460 C.ar  477  PHE477     -0.0200
     46  CD1       43.7260  -34.1980   54.1320 C.ar  477  PHE477     -0.0042
     47  CD2       44.5970  -33.8400   56.3020 C.ar  477  PHE477     -0.0042
     48  CE1       44.4850  -33.1230   53.6560 C.ar  477  PHE477     -0.0003
     49  CE2       45.3930  -32.8060   55.8270 C.ar  477  PHE477     -0.0003
     50  CZ        45.3350  -32.4440   54.4880 C.ar  477  PHE477     -0.0000
     51  N         39.7650  -36.8210   55.5820 N.am  478  SER478     -0.1936
     52  CA        39.0390  -38.0170   55.7020 C.3   478  SER478      0.2055
     53  C         39.9890  -39.2030   55.7820 C.2   478  SER478      0.2644
     54  O         40.7560  -39.5140   54.8450 O.2   478  SER478     -0.2714
     55  CB        38.1440  -38.1540   54.5270 C.3   478  SER478      0.2130
     56  OG        37.5560  -39.4360   54.5500 O.3   478  SER478     -0.2179
     57  N         39.8930  -39.8970   56.9120 N.am  479  GLY479     -0.1939
     58  CA        40.8580  -40.9420   57.3250 C.3   479  GLY479      0.2014
     59  C         40.3370  -42.3460   57.1160 C.2   479  GLY479      0.2639
     60  O         40.9830  -43.3160   57.5440 O.2   479  GLY479     -0.2714
     61  N         39.1830  -42.4370   56.4550 N.am  480  GLY480     -0.1954
     62  CA        38.5300  -43.6870   56.2270 C.3   480  GLY480      0.1869
     63  C         39.1010  -44.4910   55.0880 C.2   480  GLY480      0.2309
     64  O         39.9780  -44.0460   54.3590 O.2   480  GLY480     -0.2863
     65  N         42.1830  -28.7790   63.2210 N.3   517  ARG517     -0.1245
     66  CA        42.4630  -29.9100   64.1690 C.3   517  ARG517      0.1563
     67  C         43.7750  -30.7080   64.0200 C.2   517  ARG517      0.2260
     68  O         44.0190  -31.8110   64.5740 O.2   517  ARG517     -0.2867
     69  CB        41.2740  -30.8870   64.1800 C.3   517  ARG517      0.0307
     70  CG        39.9170  -30.2490   64.5410 C.3   517  ARG517      0.0489
     71  CD        39.8600  -29.8180   66.0270 C.3   517  ARG517      0.2205
     72  NE        38.7620  -28.8810   66.3430 N.pl3 517  ARG517     -0.0865
     73  CZ        38.5200  -28.3660   67.5550 C.cat 517  ARG517      0.5346
     74  NH1       39.3070  -28.6610   68.5800 N.pl3 517  ARG517      0.1354
     75  NH2       37.4970  -27.5290   67.7200 N.pl3 517  ARG517      0.1354
     76  N         44.5490  -30.0980   68.8180 N.3   545  VAL545     -0.1231
     77  CA        44.7830  -31.3950   68.1480 C.3   545  VAL545      0.1692
     78  C         43.4920  -32.1280   67.9080 C.2   545  VAL545      0.2592
     79  O         43.2190  -32.6400   66.8270 O.2   545  VAL545     -0.2718
     80  CB        45.7150  -32.3470   68.9290 C.3   545  VAL545      0.0266
     81  CG1       46.0030  -33.6060   68.0930 C.3   545  VAL545      0.0020
     82  CG2       47.0010  -31.6190   69.3910 C.3   545  VAL545      0.0020
     83  N         42.7030  -32.1750   68.9820 N.am  546  LEU546     -0.1966
     84  CA        41.5190  -33.0130   69.0660 C.3   546  LEU546      0.1728
     85  C         40.3350  -32.0850   69.2750 C.2   546  LEU546      0.2616
     86  O         40.4970  -30.9650   69.7850 O.2   546  LEU546     -0.2715
     87  CB        41.7040  -34.0120   70.1990 C.3   546  LEU546      0.0311
     88  CG        41.8730  -35.4940   69.8480 C.3   546  LEU546      0.0022
     89  CD1       42.4970  -35.8040   68.5060 C.3   546  LEU546      0.0001
     90  CD2       42.6520  -36.1830   70.9160 C.3   546  LEU546      0.0001
     91  N         39.1850  -32.5420   68.7760 N.am  547  GLU547     -0.1977
     92  CA        37.8420  -32.0610   69.1610 C.3   547  GLU547      0.1602
     93  C         37.5530  -32.4670   70.6240 C.2   547  GLU547      0.2287
     94  O         37.9860  -33.5490   71.0650 O.2   547  GLU547     -0.2864
     95  CB        36.7480  -32.6290   68.2130 C.3   547  GLU547      0.0415
     96  CG        36.3630  -31.6460   67.0990 C.3   547  GLU547      0.1163
     97  CD        35.9700  -32.2780   65.7450 C.2   547  GLU547      0.3649
     98  OE1       35.6430  -33.4970   65.6840 O.co2 547  GLU547     -0.2457
     99  OE2       35.9780  -31.5230   64.7280 O.co2 547  GLU547     -0.2457
@<TRIPOS>BOND
     1    18    17    1
     2    17    16    1
     3    19    16    1
     4    19    20    1
     5    16    15    1
     6    20    21   ar
     7    20    22   ar
     8    21    23   ar
     9    22    24   ar
    10    23    24   ar
    11     1     7    1
    12     1     2    1
    13    11    10    2
    14     7     6    1
    15    48    46   ar
    16    48    50   ar
    17     4     3    2
    18    46    45   ar
    19    10     9    1
    20     3     2    1
    21     2     5    1
    22    64    63    2
    23    50    49   ar
    24    55    56    1
    25    55    52    1
    26    54    53    2
    27     6     5    1
    28    63    62    1
    29    45    44    1
    30    45    47   ar
    31     9     8    1
    32     9    12    1
    33    51    52    1
    34    51    42   am
    35    13    12    1
    36    52    53    1
    37    12    14    1
    38    53    57   am
    39    49    47   ar
    40    44    41    1
    41    62    61    1
    42    41    42    1
    43    41    40    1
    44    61    59   am
    45    42    43    2
    46    57    58    1
    47    39    38    2
    48    59    58    1
    49    59    60    2
    50    40    38   am
    51    38    37    1
    52    37    36    1
    53    36    27   am
    54    25    26    1
    55    27    26    1
    56    27    28    2
    57    26    29    1
    58    29    30    1
    59    34    33    1
    60    31    30    1
    61    31    32    1
    62    33    32    2
    63    33    35    1
    64    65    66    1
    65    67    66    1
    66    67    68    2
    67    66    69    1
    68    69    70    1
    69    70    71    1
    70    99    97   ar
    71    98    97   ar
    72    97    96    1
    73    71    72    1
    74    72    73    2
    75    79    78    2
    76    96    95    1
    77    73    75    1
    78    73    74    1
    79    78    77    1
    80    78    83   am
    81    81    80    1
    82    77    76    1
    83    77    80    1
    84    95    92    1
    85    89    88    1
    86    91    92    1
    87    91    85   am
    88    80    82    1
    89    83    84    1
    90    84    85    1
    91    84    87    1
    92    92    93    1
    93    85    86    2
    94    88    87    1
    95    88    90    1
    96    93    94    2
