@<TRIPOS>MOLECULE
tmp/3h0yA00.pdb
 165 157 0 0 0
SMALL
GASTEIGER

@<TRIPOS>ATOM
      1  N         60.8670   18.8490   24.0810 N.3    12  ARG12      -0.1245
      2  CA        60.6330   18.1940   25.3520 C.3    12  ARG12       0.1563
      3  C         60.1250   16.7690   25.1560 C.2    12  ARG12       0.2260
      4  O         59.5850   16.4510   24.1030 O.2    12  ARG12      -0.2867
      5  CB        59.6190   18.9930   26.1680 C.3    12  ARG12       0.0307
      6  CG        58.2630   19.2030   25.4840 C.3    12  ARG12       0.0489
      7  CD        57.1630   18.9070   26.4720 C.3    12  ARG12       0.2205
      8  NE        55.8270   19.0710   25.9310 N.pl3  12  ARG12      -0.0865
      9  CZ        54.7430   18.4370   26.3840 C.cat  12  ARG12       0.5346
     10  NH1       54.8160   17.5660   27.3880 N.pl3  12  ARG12       0.1354
     11  NH2       53.5690   18.6810   25.8210 N.pl3  12  ARG12       0.1354
     12  N         57.5790   13.8790   25.2720 N.3    14  LEU14      -0.1231
     13  CA        56.1360   13.7390   25.3130 C.3    14  LEU14       0.1693
     14  C         55.7540   12.5360   26.1620 C.2    14  LEU14       0.2592
     15  O         54.7610   12.5700   26.8830 O.2    14  LEU14      -0.2718
     16  CB        55.5860   13.5820   23.9060 C.3    14  LEU14       0.0284
     17  CG        55.7630   14.7900   22.9900 C.3    14  LEU14       0.0019
     18  CD1       55.4800   14.3810   21.5430 C.3    14  LEU14       0.0001
     19  CD2       54.8620   15.9440   23.4240 C.3    14  LEU14       0.0001
     20  N         56.5460   11.4700   26.0760 N.am   15  GLY15      -0.1957
     21  CA        56.3340   10.2900   26.9080 C.3    15  GLY15       0.1869
     22  C         57.5830    9.4480   27.0550 C.2    15  GLY15       0.2309
     23  O         58.3660    9.3250   26.1250 O.2    15  GLY15      -0.2863
     24  N         59.4170    9.2700   23.4620 N.3    22  VAL22      -0.1245
     25  CA        59.0140   10.0050   22.2730 C.3    22  VAL22       0.1561
     26  C         59.1140   11.4990   22.5710 C.2    22  VAL22       0.2260
     27  O         58.6740   11.9720   23.6130 O.2    22  VAL22      -0.2867
     28  CB        57.6100    9.5790   21.6950 C.3    22  VAL22       0.0252
     29  CG1       56.7240    8.9650   22.7240 C.3    22  VAL22       0.0019
     30  CG2       56.9190   10.7550   21.0260 C.3    22  VAL22       0.0019
     31  N         56.4860   14.1640   15.9620 N.3    35  ALA35      -0.1245
     32  CA        56.9530   13.4160   17.1220 C.3    35  ALA35       0.1562
     33  C         58.0050   12.4340   16.6720 C.2    35  ALA35       0.2260
     34  O         57.8880   11.8220   15.5990 O.2    35  ALA35      -0.2867
     35  CB        55.7930   12.6940   17.8010 C.3    35  ALA35       0.0290
     36  N         60.0250    9.1260   17.9570 N.3    37  LYS37      -0.1245
     37  CA        60.1180    8.0590   18.9380 C.3    37  LYS37       0.1561
     38  C         61.4960    7.4460   18.8170 C.2    37  LYS37       0.2260
     39  O         61.8980    7.0350   17.7250 O.2    37  LYS37      -0.2867
     40  CB        59.0390    6.9980   18.7160 C.3    37  LYS37       0.0271
     41  CG        59.0650    5.8650   19.7570 C.3    37  LYS37       0.0035
     42  CD        57.6860    5.2300   19.9370 C.3    37  LYS37       0.0206
     43  CE        57.6240    4.3790   21.2090 C.3    37  LYS37       0.1093
     44  NZ        56.2410    3.9090   21.4700 N.3    37  LYS37      -0.1314
     45  N         47.3700    7.5290   13.7400 N.3    69  LEU69      -0.1245
     46  CA        48.5660    8.3770   13.7930 C.3    69  LEU69       0.1561
     47  C         49.4690    8.0010   12.6260 C.2    69  LEU69       0.2260
     48  O         49.8050    6.8220   12.4500 O.2    69  LEU69      -0.2867
     49  CB        49.3330    8.1370   15.0890 C.3    69  LEU69       0.0270
     50  CG        49.9660    9.2070   15.9670 C.3    69  LEU69       0.0019
     51  CD1       51.3790    8.6970   16.3560 C.3    69  LEU69       0.0001
     52  CD2       49.9990   10.5630   15.3680 C.3    69  LEU69       0.0001
     53  N         56.8630   10.4230   13.5650 N.3    85  LEU85      -0.1231
     54  CA        55.4340   10.2930   13.7700 C.3    85  LEU85       0.1693
     55  C         54.7290   11.6300   13.6650 C.2    85  LEU85       0.2592
     56  O         55.3060   12.6730   13.9760 O.2    85  LEU85      -0.2718
     57  CB        55.1590    9.7500   15.1810 C.3    85  LEU85       0.0284
     58  CG        55.2510    8.2620   15.5860 C.3    85  LEU85       0.0019
     59  CD1       55.3150    7.3060   14.4120 C.3    85  LEU85       0.0001
     60  CD2       56.3930    8.0430   16.5170 C.3    85  LEU85       0.0001
     61  N         53.4590   11.5830   13.2740 N.am   86  GLU86      -0.1966
     62  CA        52.5710   12.7380   13.3800 C.3    86  GLU86       0.1733
     63  C         52.4660   13.1750   14.8400 C.2    86  GLU86       0.2616
     64  O         52.4480   12.3360   15.7500 O.2    86  GLU86      -0.2715
     65  CB        51.1820   12.4050   12.7900 C.3    86  GLU86       0.0429
     66  CG        49.9970   13.2520   13.3210 C.3    86  GLU86       0.1163
     67  CD        48.6390   12.7530   12.8510 C.2    86  GLU86       0.3649
     68  OE1       47.6470   13.5000   12.9920 O.co2  86  GLU86      -0.2457
     69  OE2       48.5410   11.6130   12.3590 O.co2  86  GLU86      -0.2457
     70  N         52.3770   14.4860   15.0560 N.am   87  TYR87      -0.1960
     71  CA        52.2720   15.0580   16.4090 C.3    87  TYR87       0.1771
     72  C         50.8040   15.2600   16.7410 C.2    87  TYR87       0.2619
     73  O         50.0750   15.9160   16.0050 O.2    87  TYR87      -0.2715
     74  CB        53.0820   16.3580   16.4850 C.3    87  TYR87       0.0574
     75  CG        52.8450   17.2490   17.6900 C.ar   87  TYR87      -0.0198
     76  CD1       52.8850   16.7500   18.9710 C.ar   87  TYR87      -0.0009
     77  CD2       52.6150   18.6190   17.5320 C.ar   87  TYR87      -0.0009
     78  CE1       52.6780   17.5730   20.0720 C.ar   87  TYR87       0.0417
     79  CE2       52.4040   19.4370   18.6140 C.ar   87  TYR87       0.0417
     80  CZ        52.4370   18.9090   19.8940 C.ar   87  TYR87       0.1957
     81  OH        52.2370   19.7400   20.9990 O.3    87  TYR87      -0.2866
     82  N         50.3690   14.6350   17.8310 N.am   88  ALA88      -0.1964
     83  CA        49.0240   14.7800   18.3720 C.3    88  ALA88       0.1713
     84  C         49.0950   15.7790   19.5230 C.2    88  ALA88       0.2458
     85  O         49.5430   15.4230   20.6100 O.2    88  ALA88      -0.2730
     86  CB        48.5260   13.4320   18.8740 C.3    88  ALA88       0.0333
     87  N         48.6530   17.0310   19.3000 N.am   89  PRO89      -0.2716
     88  CA        48.9120   18.1000   20.2710 C.3    89  PRO89       0.1536
     89  C         48.2370   17.9780   21.6260 C.2    89  PRO89       0.2598
     90  O         48.8260   18.4090   22.6230 O.2    89  PRO89      -0.2715
     91  CB        48.4090   19.3630   19.5610 C.3    89  PRO89       0.0310
     92  CG        48.3160   19.0090   18.1570 C.3    89  PRO89       0.0237
     93  CD        47.9440   17.5550   18.1320 C.3    89  PRO89       0.0939
     94  N         47.0410   17.3880   21.6660 N.am   90  LEU90      -0.1964
     95  CA        46.2200   17.3720   22.8850 C.3    90  LEU90       0.1728
     96  C         46.4520   16.1660   23.7960 C.2    90  LEU90       0.2617
     97  O         45.7090   15.9570   24.7330 O.2    90  LEU90      -0.2715
     98  CB        44.7400   17.5120   22.5380 C.3    90  LEU90       0.0311
     99  CG        44.1750   18.9360   22.5550 C.3    90  LEU90       0.0022
    100  CD1       45.0220   19.8680   21.6910 C.3    90  LEU90       0.0001
    101  CD2       42.6980   18.9500   22.1240 C.3    90  LEU90       0.0001
    102  N         47.4710   15.3650   23.5210 N.am   91  GLY91      -0.1940
    103  CA        47.8890   14.3240   24.4540 C.3    91  GLY91       0.2014
    104  C         47.0640   13.0590   24.4280 C.2    91  GLY91       0.2639
    105  O         46.3140   12.8160   23.4870 O.2    91  GLY91      -0.2714
    106  N         47.2150   12.2490   25.4770 N.am   92  THR92      -0.1950
    107  CA        46.5870   10.9390   25.5340 C.3    92  THR92       0.1897
    108  C         45.1470   11.0160   26.0430 C.2    92  THR92       0.2313
    109  O         44.8030   11.9050   26.8190 O.2    92  THR92      -0.2863
    110  CB        47.4020    9.9640   26.4440 C.3    92  THR92       0.1794
    111  OG1       47.4570   10.4780   27.7780 O.3    92  THR92      -0.2208
    112  CG2       48.8160    9.7930   25.9380 C.3    92  THR92       0.0378
    113  N         44.0220    8.6620   27.9490 N.3    94  TYR94      -0.1227
    114  CA        44.2700    8.2500   29.3200 C.3    94  TYR94       0.1736
    115  C         44.3120    9.4640   30.2510 C.2    94  TYR94       0.2595
    116  O         43.5970    9.5090   31.2310 O.2    94  TYR94      -0.2718
    117  CB        45.5890    7.4830   29.3720 C.3    94  TYR94       0.0548
    118  CG        46.0210    7.0570   30.7500 C.ar   94  TYR94      -0.0200
    119  CD1       45.5350    5.8840   31.3250 C.ar   94  TYR94      -0.0009
    120  CD2       46.9180    7.8220   31.4760 C.ar   94  TYR94      -0.0009
    121  CE1       45.9390    5.4880   32.5980 C.ar   94  TYR94       0.0417
    122  CE2       47.3170    7.4430   32.7450 C.ar   94  TYR94       0.0417
    123  CZ        46.8320    6.2750   33.2980 C.ar   94  TYR94       0.1957
    124  OH        47.2530    5.9130   34.5490 O.3    94  TYR94      -0.2866
    125  N         45.1400   10.4530   29.9270 N.am   95  ARG95      -0.1980
    126  CA        45.2110   11.6720   30.7300 C.3    95  ARG95       0.1597
    127  C         43.8590   12.3880   30.7500 C.2    95  ARG95       0.2287
    128  O         43.4190   12.8500   31.8070 O.2    95  ARG95      -0.2864
    129  CB        46.3160   12.6030   30.2140 C.3    95  ARG95       0.0334
    130  CG        46.3840   13.9820   30.8690 C.3    95  ARG95       0.0492
    131  CD        47.1310   14.0240   32.2190 C.3    95  ARG95       0.2205
    132  NE        46.2220   13.9190   33.3600 N.pl3  95  ARG95      -0.0865
    133  CZ        46.3760   14.5110   34.5480 C.cat  95  ARG95       0.5346
    134  NH1       47.4100   15.3030   34.8050 N.pl3  95  ARG95       0.1354
    135  NH2       45.4650   14.3180   35.4960 N.pl3  95  ARG95       0.1354
    136  N         46.2790    4.7060   26.8990 N.3   135  GLU135     -0.1231
    137  CA        47.6320    5.3030   26.9050 C.3   135  GLU135      0.1699
    138  C         48.1810    5.4800   25.4920 C.2   135  GLU135      0.2592
    139  O         49.0820    6.2870   25.2960 O.2   135  GLU135     -0.2718
    140  CB        48.6600    4.5300   27.7660 C.3   135  GLU135      0.0402
    141  CG        48.2880    3.1050   28.2040 C.3   135  GLU135      0.1161
    142  CD        47.2120    3.0990   29.2910 C.2   135  GLU135      0.3649
    143  OE1       46.1140    2.5520   29.0490 O.co2 135  GLU135     -0.2457
    144  OE2       47.4580    3.6760   30.3730 O.co2 135  GLU135     -0.2457
    145  N         47.6380    4.7440   24.5180 N.am  136  ASN136     -0.1974
    146  CA        48.0650    4.8600   23.1220 C.3   136  ASN136      0.1688
    147  C         46.9800    5.3780   22.2210 C.2   136  ASN136      0.2292
    148  O         47.0420    5.2020   21.0060 O.2   136  ASN136     -0.2864
    149  CB        48.5690    3.5080   22.6080 C.3   136  ASN136      0.1181
    150  CG        49.7790    3.0190   23.3880 C.2   136  ASN136      0.2629
    151  OD1       50.6240    3.8170   23.7940 O.2   136  ASN136     -0.2716
    152  ND2       49.8570    1.7210   23.6160 N.am  136  ASN136     -0.0877
    153  N         45.6810    8.8990   21.1560 N.3   138  LEU138     -0.1245
    154  CA        46.1220   10.2830   21.1910 C.3   138  LEU138      0.1561
    155  C         45.0380   11.2380   20.6510 C.2   138  LEU138      0.2260
    156  O         44.0770   10.8020   20.0240 O.2   138  LEU138     -0.2867
    157  CB        47.4140   10.4280   20.3750 C.3   138  LEU138      0.0270
    158  CG        48.6810    9.7550   20.9060 C.3   138  LEU138      0.0019
    159  CD1       49.8210    9.9350   19.9210 C.3   138  LEU138      0.0001
    160  CD2       49.0590   10.3220   22.2740 C.3   138  LEU138      0.0001
    161  N         47.4350    5.0980   18.1690 N.3   148  ALA148     -0.1245
    162  CA        48.8880    5.2320   18.2030 C.3   148  ALA148      0.1562
    163  C         49.6040    3.8960   18.3180 C.2   148  ALA148      0.2260
    164  O         50.7600    3.8020   17.9240 O.2   148  ALA148     -0.2867
    165  CB        49.3160    6.1420   19.3730 C.3   148  ALA148      0.0290
@<TRIPOS>BOND
     1    69    67   ar
     2    48    47    2
     3    47    46    1
     4    65    66    1
     5    65    62    1
     6    67    68   ar
     7    67    66    1
     8    61    62    1
     9    61    55   am
    10    62    63    1
    11    53    54    1
    12    55    54    1
    13    55    56    2
    14    45    46    1
    15    54    57    1
    16    46    49    1
    17    59    58    1
    18    63    70   am
    19    63    64    2
    20    70    71    1
    21    49    50    1
    22    57    58    1
    23    52    50    1
    24    58    60    1
    25    34    33    2
    26    31    32    1
    27    50    51    1
    28    73    72    2
    29    71    74    1
    30    71    72    1
    31    74    75    1
    32    33    32    1
    33    72    82   am
    34    32    35    1
    35    77    75   ar
    36    77    79   ar
    37    75    76   ar
    38    39    38    2
    39    82    83    1
    40   164   163    2
    41    36    37    1
    42    93    92    1
    43    93    87    1
    44    92    91    1
    45   161   162    1
    46   162   163    1
    47   162   165    1
    48    83    86    1
    49    83    84    1
    50    79    80   ar
    51    40    37    1
    52    40    41    1
    53    38    37    1
    54    76    78   ar
    55    87    84   am
    56    87    88    1
    57    84    85    2
    58    91    88    1
    59    41    42    1
    60    80    78   ar
    61    80    81    1
    62   159   158    1
    63    42    43    1
    64   156   155    2
    65    88    89    1
    66   157   158    1
    67   157   154    1
    68   155   154    1
    69   158   160    1
    70   148   147    2
    71    30    28    1
    72   153   154    1
    73    43    44    1
    74    18    17    1
    75    89    94   am
    76    89    90    2
    77    94    95    1
    78   100    99    1
    79    28    25    1
    80    28    29    1
    81   101    99    1
    82   147   146    1
    83    25    26    1
    84    25    24    1
    85    98    99    1
    86    98    95    1
    87    26    27    2
    88   149   146    1
    89   149   150    1
    90    95    96    1
    91    17    19    1
    92    17    16    1
    93   146   145    1
    94   150   152   am
    95   150   151    2
    96   105   104    2
    97   102    96   am
    98   102   103    1
    99    96    97    2
   100    16    13    1
   101     1     2    1
   102     4     3    2
   103   104   103    1
   104   104   106   am
   105   145   138   am
   106     3     2    1
   107    12    13    1
   108   139   138    2
   109    13    14    1
   110     2     5    1
   111   106   107    1
   112     6     5    1
   113     6     7    1
   114   138   137    1
   115   107   108    1
   116   107   110    1
   117    11     9    1
   118     8     9    2
   119     8     7    1
   120   112   110    1
   121   108   109    2
   122    20    14   am
   123    20    21    1
   124    23    22    2
   125    14    15    2
   126     9    10    1
   127   110   111    1
   128   136   137    1
   129   137   140    1
   130    21    22    1
   131   140   141    1
   132   113   114    1
   133   141   142    1
   134   143   142   ar
   135   142   144   ar
   136   114   117    1
   137   114   115    1
   138   117   118    1
   139   125   115   am
   140   125   126    1
   141   129   126    1
   142   129   130    1
   143   115   116    2
   144   126   127    1
   145   118   119   ar
   146   118   120   ar
   147   127   128    2
   148   130   131    1
   149   119   121   ar
   150   120   122   ar
   151   131   132    1
   152   121   123   ar
   153   122   123   ar
   154   123   124    1
   155   132   133    2
   156   133   134    1
   157   133   135    1
