@<TRIPOS>MOLECULE
tmp/3h0zB00.pdb
 183 174 0 0 0
SMALL
GASTEIGER

@<TRIPOS>ATOM
      1  N          3.5690   65.2200   37.7870 N.3    12  ARG12      -0.1245
      2  CA         2.2890   64.5360   37.9640 C.3    12  ARG12       0.1563
      3  C          2.4380   63.0400   38.2370 C.2    12  ARG12       0.2260
      4  O          3.4530   62.4420   37.8740 O.2    12  ARG12      -0.2867
      5  CB         1.3860   64.7560   36.7500 C.3    12  ARG12       0.0307
      6  CG         1.9400   64.2660   35.4260 C.3    12  ARG12       0.0489
      7  CD         0.8940   64.4160   34.3360 C.3    12  ARG12       0.2205
      8  NE         1.2490   63.6920   33.1190 N.pl3  12  ARG12      -0.0865
      9  CZ         1.1790   62.3700   32.9770 C.cat  12  ARG12       0.5346
     10  NH1        0.7650   61.5930   33.9760 N.pl3  12  ARG12       0.1354
     11  NH2        1.5270   61.8180   31.8210 N.pl3  12  ARG12       0.1354
     12  N          2.2130   59.4180   37.3910 N.3    14  LEU14      -0.1231
     13  CA         2.0820   58.5590   36.2150 C.3    14  LEU14       0.1693
     14  C          1.1220   57.3920   36.4780 C.2    14  LEU14       0.2592
     15  O          0.4080   56.9490   35.5720 O.2    14  LEU14      -0.2718
     16  CB         3.4520   58.0300   35.7770 C.3    14  LEU14       0.0284
     17  CG         4.4100   59.0640   35.1830 C.3    14  LEU14       0.0019
     18  CD1        5.7820   58.4460   34.9400 C.3    14  LEU14       0.0001
     19  CD2        3.8380   59.6520   33.8950 C.3    14  LEU14       0.0001
     20  N          1.1080   56.9000   37.7150 N.am   15  GLY15      -0.1957
     21  CA         0.1900   55.8320   38.1140 C.3    15  GLY15       0.1869
     22  C          0.3850   55.3960   39.5560 C.2    15  GLY15       0.2309
     23  O          1.2360   54.5540   39.8540 O.2    15  GLY15      -0.2863
     24  N          4.4610   56.1450   41.5870 N.3    16  VAL16      -0.1245
     25  CA         5.4910   56.5780   40.6380 C.3    16  VAL16       0.1561
     26  C          5.1250   57.9010   39.9450 C.2    16  VAL16       0.2260
     27  O          3.9930   58.0820   39.4940 O.2    16  VAL16      -0.2867
     28  CB         5.7780   55.4890   39.5760 C.3    16  VAL16       0.0252
     29  CG1        4.4900   54.9640   38.9890 C.3    16  VAL16       0.0019
     30  CG2        6.6870   56.0280   38.4840 C.3    16  VAL16       0.0019
     31  N         11.6950   59.0380   35.6660 N.3    29  ALA29      -0.1245
     32  CA        10.6030   58.5790   36.5140 C.3    29  ALA29       0.1562
     33  C         11.1310   58.2940   37.9090 C.2    29  ALA29       0.2260
     34  O         12.2580   57.8220   38.0720 O.2    29  ALA29      -0.2867
     35  CB         9.9650   57.3390   35.9310 C.3    29  ALA29       0.0290
     36  N         10.0660   56.3840   41.3840 N.3    31  LYS31      -0.1245
     37  CA         9.1480   55.4430   42.0570 C.3    31  LYS31       0.1561
     38  C          9.2520   55.5740   43.5800 C.2    31  LYS31       0.2260
     39  O         10.3090   55.3360   44.1580 O.2    31  LYS31      -0.2867
     40  CB         9.4230   53.9940   41.6200 C.3    31  LYS31       0.0271
     41  CG         8.2490   53.0370   41.8530 C.3    31  LYS31       0.0035
     42  CD         8.5780   51.5890   41.4730 C.3    31  LYS31       0.0206
     43  CE         7.3920   50.6630   41.7510 C.3    31  LYS31       0.1093
     44  NZ         7.7410   49.2080   41.7140 N.3    31  LYS31      -0.1314
     45  N         14.0360   48.7100   31.6380 N.3    63  LEU63      -0.1245
     46  CA        14.0730   50.0360   32.2460 C.3    63  LEU63       0.1561
     47  C         15.3700   50.2260   33.0160 C.2    63  LEU63       0.2260
     48  O         15.7170   49.4050   33.8680 O.2    63  LEU63      -0.2867
     49  CB        12.8910   50.2700   33.2010 C.3    63  LEU63       0.0270
     50  CG        11.7640   51.2310   32.7840 C.3    63  LEU63       0.0019
     51  CD1       11.2010   51.9200   34.0150 C.3    63  LEU63       0.0001
     52  CD2       12.2330   52.2790   31.7970 C.3    63  LEU63       0.0001
     53  N         14.3770   56.1950   37.8550 N.3    79  LEU79      -0.1231
     54  CA        14.0950   55.2810   36.7450 C.3    79  LEU79       0.1693
     55  C         14.0350   55.9790   35.3770 C.2    79  LEU79       0.2592
     56  O         13.6620   57.1490   35.2760 O.2    79  LEU79      -0.2718
     57  CB        12.7500   54.5770   37.0060 C.3    79  LEU79       0.0284
     58  CG        12.7050   53.1510   37.5870 C.3    79  LEU79       0.0019
     59  CD1       13.9260   52.7890   38.4440 C.3    79  LEU79       0.0001
     60  CD2       11.4050   52.9510   38.3730 C.3    79  LEU79       0.0001
     61  N         14.3890   55.2380   34.3280 N.am   80  GLU80      -0.1966
     62  CA        14.1670   55.6790   32.9490 C.3    80  GLU80       0.1733
     63  C         12.6810   55.9020   32.6970 C.2    80  GLU80       0.2616
     64  O         11.8480   55.0920   33.0840 O.2    80  GLU80      -0.2715
     65  CB        14.7040   54.6390   31.9540 C.3    80  GLU80       0.0429
     66  CG        14.1540   54.7810   30.5280 C.3    80  GLU80       0.1163
     67  CD        14.7160   53.7610   29.5430 C.2    80  GLU80       0.3649
     68  OE1       14.5000   53.9480   28.3290 O.co2  80  GLU80      -0.2457
     69  OE2       15.3610   52.7750   29.9670 O.co2  80  GLU80      -0.2457
     70  N         12.3540   56.9970   32.0300 N.am   81  TYR81      -0.1960
     71  CA        10.9720   57.3000   31.6880 C.3    81  TYR81       0.1771
     72  C         10.6140   56.6450   30.3420 C.2    81  TYR81       0.2619
     73  O         11.3050   56.8480   29.3430 O.2    81  TYR81      -0.2715
     74  CB        10.7770   58.8180   31.6740 C.3    81  TYR81       0.0574
     75  CG         9.4780   59.3010   31.0860 C.ar   81  TYR81      -0.0198
     76  CD1        8.2570   59.0140   31.6960 C.ar   81  TYR81      -0.0009
     77  CD2        9.4680   60.0770   29.9300 C.ar   81  TYR81      -0.0009
     78  CE1        7.0550   59.4790   31.1540 C.ar   81  TYR81       0.0417
     79  CE2        8.2830   60.5420   29.3860 C.ar   81  TYR81       0.0417
     80  CZ         7.0810   60.2430   29.9990 C.ar   81  TYR81       0.1957
     81  OH         5.9130   60.7090   29.4390 O.3    81  TYR81      -0.2866
     82  N          9.5650   55.8160   30.3510 N.am   82  ALA82      -0.1964
     83  CA         8.9780   55.2390   29.1460 C.3    82  ALA82       0.1713
     84  C          7.7220   56.0320   28.7580 C.2    82  ALA82       0.2458
     85  O          6.6610   55.8330   29.3470 O.2    82  ALA82      -0.2730
     86  CB         8.6310   53.7980   29.3890 C.3    82  ALA82       0.0333
     87  N          7.8370   56.9440   27.7710 N.am   83  PRO83      -0.2716
     88  CA         6.7530   57.8720   27.3990 C.3    83  PRO83       0.1536
     89  C          5.4070   57.2790   26.9510 C.2    83  PRO83       0.2598
     90  O          4.3740   57.9090   27.1710 O.2    83  PRO83      -0.2715
     91  CB         7.3620   58.6710   26.2400 C.3    83  PRO83       0.0310
     92  CG         8.8200   58.5380   26.4000 C.3    83  PRO83       0.0237
     93  CD         9.0390   57.1780   26.9510 C.3    83  PRO83       0.0939
     94  N          5.4090   56.1070   26.3200 N.am   84  LEU84      -0.1964
     95  CA         4.1760   55.5630   25.7320 C.3    84  LEU84       0.1728
     96  C          3.3930   54.6090   26.6540 C.2    84  LEU84       0.2617
     97  O          2.5480   53.8430   26.1840 O.2    84  LEU84      -0.2715
     98  CB         4.4620   54.9090   24.3680 C.3    84  LEU84       0.0311
     99  CG         4.3940   55.8550   23.1570 C.3    84  LEU84       0.0022
    100  CD1        5.5770   56.7950   23.1370 C.3    84  LEU84       0.0001
    101  CD2        4.3230   55.0820   21.8510 C.3    84  LEU84       0.0001
    102  N          3.6620   54.6670   27.9580 N.am   85  GLY85      -0.1940
    103  CA         2.8130   54.0220   28.9600 C.3    85  GLY85       0.2014
    104  C          3.0030   52.5290   29.1210 C.2    85  GLY85       0.2639
    105  O          3.9260   51.9350   28.5510 O.2    85  GLY85      -0.2714
    106  N          2.1180   51.9240   29.9070 N.am   86  THR86      -0.1950
    107  CA         2.1380   50.4780   30.1370 C.3    86  THR86       0.1897
    108  C          1.5180   49.6920   28.9830 C.2    86  THR86       0.2313
    109  O          0.5730   50.1490   28.3410 O.2    86  THR86      -0.2863
    110  CB         1.3840   50.1000   31.4270 C.3    86  THR86       0.1794
    111  OG1        0.1050   50.7410   31.4440 O.3    86  THR86      -0.2208
    112  CG2        2.1690   50.5330   32.6450 C.3    86  THR86       0.0378
    113  N         -0.0810   46.9190   29.4540 N.3    88  TYR88      -0.1227
    114  CA        -1.4020   46.6910   30.0550 C.3    88  TYR88       0.1736
    115  C         -2.4750   47.6390   29.5090 C.2    88  TYR88       0.2595
    116  O         -3.6020   47.2150   29.2290 O.2    88  TYR88      -0.2718
    117  CB        -1.3060   46.8630   31.5800 C.3    88  TYR88       0.0548
    118  CG        -2.5880   46.6100   32.3520 C.ar   88  TYR88      -0.0200
    119  CD1       -2.8410   45.3660   32.9230 C.ar   88  TYR88      -0.0009
    120  CD2       -3.5320   47.6160   32.5330 C.ar   88  TYR88      -0.0009
    121  CE1       -4.0050   45.1210   33.6390 C.ar   88  TYR88       0.0417
    122  CE2       -4.7020   47.3810   33.2490 C.ar   88  TYR88       0.0417
    123  CZ        -4.9290   46.1300   33.8010 C.ar   88  TYR88       0.1957
    124  OH        -6.0800   45.8800   34.5110 O.3    88  TYR88      -0.2866
    125  N         -2.1270   48.9190   29.3750 N.am   89  ARG89      -0.1966
    126  CA        -3.0750   49.9180   28.8840 C.3    89  ARG89       0.1729
    127  C         -3.3890   49.6910   27.4120 C.2    89  ARG89       0.2616
    128  O         -4.5550   49.6950   27.0170 O.2    89  ARG89      -0.2715
    129  CB        -2.5370   51.3330   29.0830 C.3    89  ARG89       0.0348
    130  CG        -3.4650   52.4350   28.5780 C.3    89  ARG89       0.0492
    131  CD        -4.2910   53.0970   29.6790 C.3    89  ARG89       0.2205
    132  NE        -5.6620   52.5800   29.7250 N.pl3  89  ARG89      -0.0865
    133  CZ        -6.7190   53.2400   30.2090 C.cat  89  ARG89       0.5346
    134  NH1       -6.6020   54.4730   30.7090 N.pl3  89  ARG89       0.1354
    135  NH2       -7.9160   52.6580   30.1910 N.pl3  89  ARG89       0.1354
    136  N         -2.3550   49.4970   26.5990 N.am   90  GLU90      -0.1977
    137  CA        -2.5630   49.2580   25.1730 C.3    90  GLU90       0.1602
    138  C         -3.4550   48.0330   24.9520 C.2    90  GLU90       0.2287
    139  O         -4.3210   48.0310   24.0720 O.2    90  GLU90      -0.2864
    140  CB        -1.2270   49.0980   24.4460 C.3    90  GLU90       0.0415
    141  CG        -0.4220   50.3850   24.3410 C.3    90  GLU90       0.1163
    142  CD        -1.1120   51.4450   23.4930 C.2    90  GLU90       0.3649
    143  OE1       -1.4450   52.5310   24.0260 O.co2  90  GLU90      -0.2457
    144  OE2       -1.3300   51.1840   22.2940 O.co2  90  GLU90      -0.2457
    145  N         -7.0890   48.8890   25.5650 N.3    93  LYS93      -0.1245
    146  CA        -7.6750   49.6400   24.4500 C.3    93  LYS93       0.1561
    147  C         -7.9860   48.7580   23.2490 C.2    93  LYS93       0.2260
    148  O         -9.0060   48.9390   22.5950 O.2    93  LYS93      -0.2867
    149  CB        -6.7360   50.7590   23.9970 C.3    93  LYS93       0.0271
    150  CG        -6.6500   51.9340   24.9400 C.3    93  LYS93       0.0035
    151  CD        -5.7970   53.0290   24.3250 C.3    93  LYS93       0.0206
    152  CE        -5.5570   54.1790   25.2900 C.3    93  LYS93       0.1093
    153  NZ        -4.4740   55.0740   24.8000 N.3    93  LYS93      -0.1314
    154  N          1.2440   44.7600   33.1740 N.3   129  GLU129     -0.1231
    155  CA         1.3570   45.8740   34.1250 C.3   129  GLU129      0.1699
    156  C          2.8010   46.2510   34.4820 C.2   129  GLU129      0.2592
    157  O          3.0670   47.4080   34.7900 O.2   129  GLU129     -0.2718
    158  CB         0.5350   45.6270   35.4110 C.3   129  GLU129      0.0402
    159  CG         0.4890   44.1820   35.9400 C.3   129  GLU129      0.1161
    160  CD        -0.8270   43.4680   35.6110 C.2   129  GLU129      0.3649
    161  OE1       -0.9020   42.7760   34.5710 O.co2 129  GLU129     -0.2457
    162  OE2       -1.7920   43.6140   36.3950 O.co2 129  GLU129     -0.2457
    163  N          3.7220   45.2920   34.4390 N.am  130  ASN130     -0.1974
    164  CA         5.1420   45.5670   34.7010 C.3   130  ASN130      0.1688
    165  C          5.9640   45.7340   33.4290 C.2   130  ASN130      0.2292
    166  O          7.1910   45.6370   33.4600 O.2   130  ASN130     -0.2864
    167  CB         5.7520   44.4550   35.5550 C.3   130  ASN130      0.1181
    168  CG         5.1380   44.3760   36.9340 C.2   130  ASN130      0.2629
    169  OD1        4.0050   44.8080   37.1520 O.2   130  ASN130     -0.2716
    170  ND2        5.8850   43.8170   37.8770 N.am  130  ASN130     -0.0877
    171  N          6.5440   48.3690   30.0780 N.3   132  LEU132     -0.1245
    172  CA         6.3220   49.7330   29.6130 C.3   132  LEU132      0.1561
    173  C          6.7240   49.8390   28.1590 C.2   132  LEU132      0.2260
    174  O          7.3250   48.9230   27.6020 O.2   132  LEU132     -0.2867
    175  CB         7.1290   50.7210   30.4540 C.3   132  LEU132      0.0270
    176  CG         6.8750   50.6190   31.9630 C.3   132  LEU132      0.0019
    177  CD1        7.9510   51.3410   32.7450 C.3   132  LEU132      0.0001
    178  CD2        5.5000   51.1530   32.3070 C.3   132  LEU132      0.0001
    179  N          9.9980   46.7480   33.4500 N.3   142  ALA142     -0.1245
    180  CA        10.2000   47.3830   34.7500 C.3   142  ALA142      0.1562
    181  C         10.6930   46.2890   35.7070 C.2   142  ALA142      0.2260
    182  O         11.4380   45.4020   35.2880 O.2   142  ALA142     -0.2867
    183  CB         8.9120   48.0260   35.2450 C.3   142  ALA142      0.0290
@<TRIPOS>BOND
     1   101    99    1
     2   144   142   ar
     3   148   147    2
     4   100    99    1
     5    99    98    1
     6   147   146    1
     7   142   143   ar
     8   142   141    1
     9   149   146    1
    10   149   150    1
    11   139   138    2
    12   151   150    1
    13   151   152    1
    14   141   140    1
    15    98    95    1
    16   140   137    1
    17   146   145    1
    18   153   152    1
    19   138   137    1
    20   137   136    1
    21    95    94    1
    22    95    96    1
    23    97    96    2
    24    91    92    1
    25    91    88    1
    26    94    89   am
    27    92    93    1
    28   136   127   am
    29    96   102   am
    30    93    87    1
    31    89    90    2
    32    89    88    1
    33   128   127    2
    34    88    87    1
    35   127   126    1
    36   174   173    2
    37    87    84   am
    38   102   103    1
    39   173   172    1
    40    68    67   ar
    41   109   108    2
    42   105   104    2
    43   130   129    1
    44   130   131    1
    45    84    83    1
    46    84    85    2
    47   126   129    1
    48   126   125    1
    49   103   104    1
    50   108   107    1
    51   104   106   am
    52    83    86    1
    53    83    82    1
    54   116   115    2
    55    73    72    2
    56   125   115   am
    57    79    77   ar
    58    79    80   ar
    59    81    80    1
    60   113   114    1
    61   115   114    1
    62    67    69   ar
    63    67    66    1
    64   172   171    1
    65   172   175    1
    66   131   132    1
    67   132   133    2
    68   106   107    1
    69    77    75   ar
    70    80    78   ar
    71   114   117    1
    72   107   110    1
    73   135   133    1
    74   133   134    1
    75    72    82   am
    76    72    71    1
    77   175   176    1
    78    66    65    1
    79    75    74    1
    80    75    76   ar
    81    78    76   ar
    82   110   111    1
    83   110   112    1
    84   117   118    1
    85    45    46    1
    86    74    71    1
    87    71    70    1
    88    52    50    1
    89    11     9    1
    90    65    62    1
    91   176   178    1
    92   176   177    1
    93    70    63   am
    94    46    47    1
    95    46    49    1
    96   118   120   ar
    97   118   119   ar
    98   120   122   ar
    99    63    62    1
   100    63    64    2
   101    50    49    1
   102    50    51    1
   103   119   121   ar
   104    62    61    1
   105     9     8    2
   106     9    10    1
   107    47    48    2
   108     8     7    1
   109   154   155    1
   110   122   123   ar
   111   165   166    2
   112   165   164    1
   113   179   180    1
   114   121   123   ar
   115   123   124    1
   116    19    17    1
   117   155   156    1
   118   155   158    1
   119    61    55   am
   120     7     6    1
   121   163   156   am
   122   163   164    1
   123   156   157    2
   124   161   160   ar
   125   164   167    1
   126   180   183    1
   127   180   181    1
   128    18    17    1
   129    17    16    1
   130    56    55    2
   131   182   181    2
   132    55    54    1
   133   158   159    1
   134     6     5    1
   135   167   168    1
   136    15    14    2
   137   160   159    1
   138   160   162   ar
   139    31    32    1
   140    16    13    1
   141    35    32    1
   142    13    14    1
   143    13    12    1
   144    14    20   am
   145    32    33    1
   146    54    57    1
   147    54    53    1
   148     5     2    1
   149   168   169    2
   150   168   170   am
   151    57    58    1
   152    58    60    1
   153    58    59    1
   154    20    21    1
   155     1     2    1
   156     4     3    2
   157    33    34    2
   158     2     3    1
   159    21    22    1
   160    30    28    1
   161    29    28    1
   162    27    26    2
   163    22    23    2
   164    28    25    1
   165    26    25    1
   166    25    24    1
   167    36    37    1
   168    42    43    1
   169    42    41    1
   170    40    41    1
   171    40    37    1
   172    44    43    1
   173    37    38    1
   174    38    39    2
