@<TRIPOS>MOLECULE
tmp/3h10B00.pdb
 196 187 0 0 0
SMALL
GASTEIGER

@<TRIPOS>ATOM
      1  N         45.9950   15.2480  -58.2490 N.3    13  ARG13      -0.1245
      2  CA        45.4420   16.2260  -57.3180 C.3    13  ARG13       0.1563
      3  C         44.0160   15.8450  -56.9350 C.2    13  ARG13       0.2260
      4  O         43.2980   15.2470  -57.7500 O.2    13  ARG13      -0.2867
      5  CB        45.4360   17.6280  -57.9330 C.3    13  ARG13       0.0307
      6  CG        44.3920   17.7880  -59.0310 C.3    13  ARG13       0.0489
      7  CD        44.6690   18.9140  -59.9650 C.3    13  ARG13       0.2205
      8  NE        43.6950   18.8750  -61.0500 N.pl3  13  ARG13      -0.0865
      9  CZ        42.4640   19.3800  -60.9770 C.cat  13  ARG13       0.5346
     10  NH1       42.0330   19.9700  -59.8540 N.pl3  13  ARG13       0.1354
     11  NH2       41.6550   19.2800  -62.0380 N.pl3  13  ARG13       0.1354
     12  N         40.0980   16.2020  -56.5030 N.3    15  LEU15      -0.1231
     13  CA        39.0810   16.9270  -57.2500 C.3    15  LEU15       0.1693
     14  C         38.0000   17.3530  -56.2950 C.2    15  LEU15       0.2593
     15  O         37.1800   18.1840  -56.6330 O.2    15  LEU15      -0.2718
     16  CB        38.4650   16.0750  -58.3790 C.3    15  LEU15       0.0284
     17  CG        39.3870   15.6940  -59.5590 C.3    15  LEU15       0.0019
     18  CD1       38.7000   14.6280  -60.4300 C.3    15  LEU15       0.0001
     19  CD2       39.7760   16.9210  -60.3340 C.3    15  LEU15       0.0001
     20  N         37.9680   16.7410  -55.1220 N.am   16  GLY16      -0.1942
     21  CA        36.9640   17.0820  -54.1370 C.3    16  GLY16       0.2014
     22  C         36.9040   16.0850  -52.9970 C.2    16  GLY16       0.2639
     23  O         37.3340   14.9280  -53.1190 O.2    16  GLY16      -0.2714
     24  N         36.3710   16.5690  -51.8850 N.am   17  LYS17      -0.1963
     25  CA        36.0950   15.7710  -50.7180 C.3    17  LYS17       0.1728
     26  C         34.6480   15.3190  -50.8290 C.2    17  LYS17       0.2616
     27  O         33.7560   16.1350  -51.1310 O.2    17  LYS17      -0.2715
     28  CB        36.3110   16.6020  -49.4470 C.3    17  LYS17       0.0311
     29  CG        37.7440   16.5670  -48.9160 C.3    17  LYS17       0.0038
     30  CD        38.1360   17.8570  -48.1640 C.3    17  LYS17       0.0206
     31  CE        38.6700   18.9220  -49.1360 C.3    17  LYS17       0.1093
     32  NZ        39.3290   20.0680  -48.4460 N.3    17  LYS17      -0.1314
     33  N         34.4240   14.0200  -50.6230 N.am   18  GLY18      -0.1955
     34  CA        33.0770   13.4740  -50.4880 C.3    18  GLY18       0.1869
     35  C         32.7070   13.3050  -49.0280 C.2    18  GLY18       0.2309
     36  O         33.4990   13.6090  -48.1360 O.2    18  GLY18      -0.2863
     37  N         37.7940   12.2320  -54.0500 N.3    23  VAL23      -0.1245
     38  CA        37.8910   11.9550  -55.4590 C.3    23  VAL23       0.1561
     39  C         39.1890   12.5780  -55.9650 C.2    23  VAL23       0.2260
     40  O         39.4910   13.7320  -55.6460 O.2    23  VAL23      -0.2867
     41  CB        36.6560   12.4650  -56.1960 C.3    23  VAL23       0.0252
     42  CG1       36.6910   11.9850  -57.6770 C.3    23  VAL23       0.0019
     43  CG2       35.3750   11.9260  -55.4850 C.3    23  VAL23       0.0019
     44  N         38.6450    9.7980  -63.1210 N.3    36  ALA36      -0.1245
     45  CA        38.3950   10.2220  -61.7550 C.3    36  ALA36       0.1562
     46  C         38.3250    8.9950  -60.8580 C.2    36  ALA36       0.2260
     47  O         37.4730    8.1290  -61.0740 O.2    36  ALA36      -0.2867
     48  CB        37.0590   10.9920  -61.6930 C.3    36  ALA36       0.0290
     49  N         37.2690    7.7570  -57.3480 N.3    38  LYS38      -0.1245
     50  CA        36.5730    7.9810  -56.1130 C.3    38  LYS38       0.1561
     51  C         37.0300    6.9490  -55.0630 C.2    38  LYS38       0.2260
     52  O         36.8910    5.7260  -55.2600 O.2    38  LYS38      -0.2867
     53  CB        35.0870    7.8510  -56.3850 C.3    38  LYS38       0.0271
     54  CG        34.1920    8.3260  -55.2710 C.3    38  LYS38       0.0035
     55  CD        32.7570    8.3570  -55.7780 C.3    38  LYS38       0.0206
     56  CE        31.8970    9.4070  -55.1580 C.3    38  LYS38       0.1093
     57  NZ        32.5410   10.7070  -54.8380 N.3    38  LYS38      -0.1314
     58  N         27.6290    9.6550  -66.9420 N.3    70  LEU70      -0.1245
     59  CA        29.0220    9.5570  -66.5270 C.3    70  LEU70       0.1561
     60  C         29.3670    8.0990  -66.3830 C.2    70  LEU70       0.2260
     61  O         28.7150    7.3460  -65.6560 O.2    70  LEU70      -0.2867
     62  CB        29.2800   10.2560  -65.2000 C.3    70  LEU70       0.0270
     63  CG        30.7610   10.5010  -64.9160 C.3    70  LEU70       0.0019
     64  CD1       31.3140   11.6320  -65.8240 C.3    70  LEU70       0.0001
     65  CD2       30.9280   10.8470  -63.4570 C.3    70  LEU70       0.0001
     66  N         35.8520    6.2080  -62.3530 N.3    86  LEU86      -0.1231
     67  CA        34.8880    7.0550  -63.0480 C.3    86  LEU86       0.1693
     68  C         35.4740    7.8750  -64.1970 C.2    86  LEU86       0.2592
     69  O         36.6550    8.2640  -64.1820 O.2    86  LEU86      -0.2718
     70  CB        34.2430    8.0310  -62.0560 C.3    86  LEU86       0.0284
     71  CG        33.3520    7.3450  -61.0160 C.3    86  LEU86       0.0019
     72  CD1       33.2360    8.2210  -59.7730 C.3    86  LEU86       0.0001
     73  CD2       31.9380    6.9190  -61.5920 C.3    86  LEU86       0.0001
     74  N         34.6300    8.1350  -65.1930 N.am   87  GLU87      -0.1966
     75  CA        34.9650    9.0850  -66.2470 C.3    87  GLU87       0.1733
     76  C         35.2610   10.4450  -65.6500 C.2    87  GLU87       0.2616
     77  O         34.5370   10.9290  -64.7790 O.2    87  GLU87      -0.2715
     78  CB        33.7930    9.2140  -67.2140 C.3    87  GLU87       0.0429
     79  CG        33.9570   10.2230  -68.3270 C.3    87  GLU87       0.1163
     80  CD        32.7220   10.3310  -69.1840 C.2    87  GLU87       0.3649
     81  OE1       32.7540   11.1370  -70.1210 O.co2  87  GLU87      -0.2457
     82  OE2       31.7300    9.5890  -68.9580 O.co2  87  GLU87      -0.2457
     83  N         36.3220   11.0730  -66.1360 N.am   88  TYR88      -0.1960
     84  CA        36.6500   12.4300  -65.7090 C.3    88  TYR88       0.1771
     85  C         35.8830   13.4740  -66.5620 C.2    88  TYR88       0.2619
     86  O         35.9350   13.4350  -67.7660 O.2    88  TYR88      -0.2715
     87  CB        38.1750   12.6220  -65.7750 C.3    88  TYR88       0.0574
     88  CG        38.6560   14.0130  -65.5030 C.ar   88  TYR88      -0.0198
     89  CD1       38.3780   14.6440  -64.3030 C.ar   88  TYR88      -0.0009
     90  CD2       39.3870   14.6980  -66.4640 C.ar   88  TYR88      -0.0009
     91  CE1       38.8180   15.9240  -64.0590 C.ar   88  TYR88       0.0417
     92  CE2       39.8360   15.9930  -66.2310 C.ar   88  TYR88       0.0417
     93  CZ        39.5440   16.5970  -65.0350 C.ar   88  TYR88       0.1957
     94  OH        39.9980   17.8690  -64.8360 O.3    88  TYR88      -0.2866
     95  N         35.1470   14.3750  -65.9150 N.am   89  ALA89      -0.1964
     96  CA        34.3900   15.4150  -66.6120 C.3    89  ALA89       0.1713
     97  C         35.1690   16.7220  -66.4220 C.2    89  ALA89       0.2458
     98  O         35.0760   17.3260  -65.3660 O.2    89  ALA89      -0.2730
     99  CB        32.9460   15.5060  -66.0280 C.3    89  ALA89       0.0333
    100  N         36.0220   17.1170  -67.4060 N.am   90  PRO90      -0.2716
    101  CA        36.9860   18.1820  -67.0600 C.3    90  PRO90       0.1536
    102  C         36.4060   19.5620  -66.7110 C.2    90  PRO90       0.2598
    103  O         37.0760   20.3270  -66.0390 O.2    90  PRO90      -0.2715
    104  CB        37.9230   18.2530  -68.2770 C.3    90  PRO90       0.0310
    105  CG        37.2220   17.5500  -69.3790 C.3    90  PRO90       0.0237
    106  CD        36.2120   16.6070  -68.7680 C.3    90  PRO90       0.0939
    107  N         35.1670   19.8600  -67.1070 N.am   91  LEU91      -0.1964
    108  CA        34.5890   21.1960  -66.8600 C.3    91  LEU91       0.1728
    109  C         33.8110   21.3400  -65.5460 C.2    91  LEU91       0.2617
    110  O         33.3070   22.4210  -65.2580 O.2    91  LEU91      -0.2715
    111  CB        33.7670   21.6670  -68.0780 C.3    91  LEU91       0.0311
    112  CG        34.6040   22.3960  -69.1400 C.3    91  LEU91       0.0022
    113  CD1       35.7650   21.5670  -69.5560 C.3    91  LEU91       0.0001
    114  CD2       33.7930   22.8420  -70.3640 C.3    91  LEU91       0.0001
    115  N         33.7360   20.2690  -64.7450 N.am   92  GLY92      -0.1940
    116  CA        33.1400   20.3330  -63.4170 C.3    92  GLY92       0.2014
    117  C         31.6350   20.1710  -63.3740 C.2    92  GLY92       0.2639
    118  O         31.0220   19.6800  -64.3200 O.2    92  GLY92      -0.2714
    119  N         31.0290   20.5800  -62.2640 N.am   93  THR93      -0.1950
    120  CA        29.6090   20.3960  -62.0950 C.3    93  THR93       0.1897
    121  C         28.8620   21.5320  -62.7650 C.2    93  THR93       0.2313
    122  O         29.3810   22.6310  -62.9080 O.2    93  THR93      -0.2863
    123  CB        29.1720   20.2920  -60.6310 C.3    93  THR93       0.1794
    124  OG1       29.4910   21.5080  -59.9540 O.3    93  THR93      -0.2208
    125  CG2       29.8240   19.0820  -59.9190 C.3    93  THR93       0.0378
    126  N         28.3870   24.3610  -59.9390 N.3    96  ARG96      -0.1245
    127  CA        29.4290   25.3930  -59.8700 C.3    96  ARG96       0.1563
    128  C         29.2550   26.4750  -60.9410 C.2    96  ARG96       0.2260
    129  O         29.5150   27.6510  -60.6960 O.2    96  ARG96      -0.2867
    130  CB        30.8360   24.8090  -60.0660 C.3    96  ARG96       0.0307
    131  CG        31.3110   23.7330  -59.0770 C.3    96  ARG96       0.0489
    132  CD        31.1200   24.0940  -57.6170 C.3    96  ARG96       0.2205
    133  NE        31.7750   25.3550  -57.2900 N.pl3  96  ARG96      -0.0865
    134  CZ        31.5910   26.0320  -56.1580 C.cat  96  ARG96       0.5346
    135  NH1       30.7650   25.5700  -55.2170 N.pl3  96  ARG96       0.1354
    136  NH2       32.2340   27.1830  -55.9660 N.pl3  96  ARG96       0.1354
    137  N         23.8520   19.7460  -59.0370 N.3   136  GLU136     -0.1231
    138  CA        25.0070   19.2480  -58.2750 C.3   136  GLU136      0.1699
    139  C         25.3930   17.8300  -58.6480 C.2   136  GLU136      0.2592
    140  O         26.5090   17.4280  -58.3800 O.2   136  GLU136     -0.2718
    141  CB        24.7740   19.3170  -56.7500 C.3   136  GLU136      0.0402
    142  CG        23.4960   18.6420  -56.2510 C.3   136  GLU136      0.1161
    143  CD        22.3870   19.6740  -55.9730 C.2   136  GLU136      0.3649
    144  OE1       22.0400   20.4540  -56.8880 O.co2 136  GLU136     -0.2457
    145  OE2       21.8900   19.7080  -54.8360 O.co2 136  GLU136     -0.2457
    146  N         24.4620   17.0750  -59.2380 N.am  137  ASN137     -0.1974
    147  CA        24.7110   15.7390  -59.7590 C.3   137  ASN137      0.1688
    148  C         24.8900   15.6980  -61.2930 C.2   137  ASN137      0.2292
    149  O         24.7570   14.6360  -61.9240 O.2   137  ASN137     -0.2864
    150  CB        23.5620   14.7860  -59.3620 C.3   137  ASN137      0.1181
    151  CG        23.4170   14.6040  -57.8390 C.2   137  ASN137      0.2629
    152  OD1       24.2680   14.9990  -57.0540 O.2   137  ASN137     -0.2716
    153  ND2       22.3330   13.9850  -57.4420 N.am  137  ASN137     -0.0877
    154  N         27.5860   16.8400  -64.4100 N.3   139  LEU139     -0.1245
    155  CA        28.9640   17.2370  -64.7340 C.3   139  LEU139      0.1561
    156  C         29.0570   17.5800  -66.2100 C.2   139  LEU139      0.2260
    157  O         28.0930   17.4010  -66.9700 O.2   139  LEU139     -0.2867
    158  CB        29.9960   16.1420  -64.3900 C.3   139  LEU139      0.0270
    159  CG        30.2630   15.8500  -62.9070 C.3   139  LEU139      0.0019
    160  CD1       30.6690   14.4150  -62.6930 C.3   139  LEU139      0.0001
    161  CD2       31.3510   16.7590  -62.3330 C.3   139  LEU139      0.0001
    162  N         25.7670   12.4000  -63.2710 N.3   149  ALA149     -0.1231
    163  CA        26.8250   11.8610  -62.4390 C.3   149  ALA149      0.1694
    164  C         26.3050   10.6840  -61.6290 C.2   149  ALA149      0.2592
    165  O         25.1130   10.5380  -61.3620 O.2   149  ALA149     -0.2718
    166  CB        27.4190   12.9520  -61.5340 C.3   149  ALA149      0.0304
    167  N         27.2290    9.8250  -61.2440 N.am  150  ASP150     -0.1960
    168  CA        26.8940    8.6410  -60.4940 C.3   150  ASP150      0.1840
    169  C         27.1070    8.9460  -59.0130 C.2   150  ASP150      0.2622
    170  O         27.9740    9.7480  -58.6810 O.2   150  ASP150     -0.2715
    171  CB        27.7960    7.4920  -60.9660 C.3   150  ASP150      0.1450
    172  CG        27.8230    7.3390  -62.4920 C.2   150  ASP150      0.3671
    173  OD1       26.7810    7.5400  -63.1500 O.co2 150  ASP150     -0.2456
    174  OD2       28.8990    7.0050  -63.0270 O.co2 150  ASP150     -0.2456
    175  N         26.3060    8.3360  -58.1340 N.am  151  PHE151     -0.1960
    176  CA        26.5950    8.2940  -56.6870 C.3   151  PHE151      0.1771
    177  C         26.5200    9.6280  -55.9300 C.2   151  PHE151      0.2620
    178  O         27.4260    9.9520  -55.1460 O.2   151  PHE151     -0.2715
    179  CB        27.9890    7.6870  -56.4430 C.3   151  PHE151      0.0574
    180  CG        28.2530    6.4230  -57.2160 C.ar  151  PHE151     -0.0200
    181  CD1       29.0180    6.4460  -58.3670 C.ar  151  PHE151     -0.0042
    182  CD2       27.7570    5.2040  -56.7770 C.ar  151  PHE151     -0.0042
    183  CE1       29.2690    5.2820  -59.0880 C.ar  151  PHE151     -0.0003
    184  CE2       28.0040    4.0290  -57.4880 C.ar  151  PHE151     -0.0003
    185  CZ        28.7560    4.0710  -58.6450 C.ar  151  PHE151     -0.0000
    186  N         25.4630   10.4050  -56.1410 N.am  152  GLY152     -0.1954
    187  CA        25.3340   11.7170  -55.4850 C.3   152  GLY152      0.1869
    188  C         25.2020   11.6700  -53.9700 C.2   152  GLY152      0.2309
    189  O         25.6060   12.6060  -53.2710 O.2   152  GLY152     -0.2863
    190  N         28.3590   12.5050  -51.7900 N.3   155  VAL155     -0.1245
    191  CA        28.8970   13.8470  -51.9570 C.3   155  VAL155      0.1561
    192  C         28.0470   14.8250  -51.1100 C.2   155  VAL155      0.2260
    193  O         26.8130   14.7490  -51.1160 O.2   155  VAL155     -0.2867
    194  CB        28.8480   14.2160  -53.4880 C.3   155  VAL155      0.0252
    195  CG1       29.1230   15.6890  -53.7400 C.3   155  VAL155      0.0019
    196  CG2       29.8370   13.3280  -54.3010 C.3   155  VAL155      0.0019
@<TRIPOS>BOND
     1   114   112    1
     2    81    80   ar
     3   113   112    1
     4   105   106    1
     5   105   104    1
     6    80    82   ar
     7    80    79    1
     8   112   111    1
     9   106   100    1
    10    79    78    1
    11   104   101    1
    12   111   108    1
    13    86    85    2
    14   100   101    1
    15   100    97   am
    16    78    75    1
    17   107   108    1
    18   107   102   am
    19   101   102    1
    20   157   156    2
    21    58    59    1
    22   108   109    1
    23   102   103    2
    24    96    97    1
    25    96    99    1
    26    96    95    1
    27    85    95   am
    28    85    84    1
    29    59    60    1
    30    59    62    1
    31    90    92   ar
    32    90    88   ar
    33    97    98    2
    34    60    61    2
    35    75    76    1
    36    75    74    1
    37    92    93   ar
    38   156   155    1
    39    83    84    1
    40    83    76   am
    41    64    63    1
    42    87    84    1
    43    87    88    1
    44    76    77    2
    45   109   110    2
    46   109   115   am
    47    88    89   ar
    48    62    63    1
    49    74    68   am
    50    93    94    1
    51    93    91   ar
    52    63    65    1
    53   115   116    1
    54   155   154    1
    55   155   158    1
    56   158   159    1
    57   118   117    2
    58    89    91   ar
    59    68    69    2
    60    68    67    1
    61   116   117    1
    62   117   119   am
    63   162   163    1
    64   173   172   ar
    65    44    45    1
    66    67    66    1
    67    67    70    1
    68   174   172   ar
    69   122   121    2
    70   159   160    1
    71   159   161    1
    72   121   120    1
    73   172   171    1
    74   163   164    1
    75   163   166    1
    76   119   120    1
    77   120   123    1
    78    70    71    1
    79    11     9    1
    80   149   148    2
    81    45    48    1
    82    45    46    1
    83   164   165    2
    84   164   167   am
    85    73    71    1
    86   148   147    1
    87   167   168    1
    88    47    46    2
    89     8     9    2
    90     8     7    1
    91    71    72    1
    92     9    10    1
    93   171   168    1
    94   128   129    2
    95   128   127    1
    96   123   124    1
    97   123   125    1
    98   168   169    1
    99    18    17    1
   100    19    17    1
   101   130   127    1
   102   130   131    1
   103     7     6    1
   104   126   127    1
   105   147   150    1
   106   147   146    1
   107    17    16    1
   108   150   151    1
   109   146   139   am
   110   183   185   ar
   111   183   181   ar
   112   131   132    1
   113   137   138    1
   114     6     5    1
   115   169   170    2
   116   169   175   am
   117   139   140    2
   118   139   138    1
   119   185   184   ar
   120    16    13    1
   121   181   180   ar
   122   138   141    1
   123     1     2    1
   124   175   176    1
   125     5     2    1
   126   151   153   am
   127   151   152    2
   128     4     3    2
   129    42    41    1
   130   132   133    1
   131   184   182   ar
   132    49    50    1
   133     2     3    1
   134   133   134    2
   135    13    12    1
   136    13    14    1
   137   180   182   ar
   138   180   179    1
   139   144   143   ar
   140   141   142    1
   141   176   179    1
   142   176   177    1
   143    15    14    2
   144    53    50    1
   145    53    54    1
   146    14    20   am
   147   142   143    1
   148    41    43    1
   149    41    38    1
   150   134   136    1
   151   134   135    1
   152   186   177   am
   153   186   187    1
   154    50    51    1
   155   143   145   ar
   156    39    40    2
   157    39    38    1
   158   177   178    2
   159    55    54    1
   160    55    56    1
   161   187   188    1
   162    38    37    1
   163    52    51    2
   164    56    57    1
   165    20    21    1
   166   196   194    1
   167    21    22    1
   168   188   189    2
   169   195   194    1
   170   194   191    1
   171    23    22    2
   172    22    24   am
   173   191   190    1
   174   191   192    1
   175    24    25    1
   176    27    26    2
   177   193   192    2
   178    26    25    1
   179    26    33   am
   180    25    28    1
   181    33    34    1
   182    34    35    1
   183    28    29    1
   184    31    32    1
   185    31    30    1
   186    35    36    2
   187    29    30    1
