@<TRIPOS>MOLECULE
tmp/3h18A00.pdb
 87 81 0 0 0
SMALL
GASTEIGER

@<TRIPOS>ATOM
      1  N        -19.2170   27.0010  -10.0540 N.3    32  MET32      -0.1245
      2  CA       -19.2930   25.7150   -9.4120 C.3    32  MET32       0.1570
      3  C        -20.6860   25.4270   -8.9920 C.2    32  MET32       0.2261
      4  O        -21.0550   24.2720   -9.0360 O.2    32  MET32      -0.2867
      5  CB       -18.3790   25.6490   -8.2070 C.3    32  MET32       0.0387
      6  CG       -17.2290   24.7330   -8.3510 C.3    32  MET32       0.0595
      7  SD       -16.6580   24.4200   -6.6840 S.3    32  MET32      -0.1393
      8  CE       -16.9460   22.6860   -6.4430 C.3    32  MET32       0.0692
      9  N        -14.4350   19.5240   -1.4940 N.3    74  GLY74      -0.1210
     10  CA       -13.2870   20.2550   -2.0710 C.3    74  GLY74       0.1956
     11  C        -13.7190   21.6570   -2.4870 C.2    74  GLY74       0.2612
     12  O        -14.8540   22.0400   -2.2870 O.2    74  GLY74      -0.2717
     13  N        -12.7710   22.4440   -3.0020 N.am   75  GLY75      -0.1942
     14  CA       -13.0470   23.7730   -3.3870 C.3    75  GLY75       0.2014
     15  C        -11.9540   24.6700   -2.9280 C.2    75  GLY75       0.2639
     16  O        -12.1710   25.8920   -2.8250 O.2    75  GLY75      -0.2714
     17  N        -10.8110   24.0960   -2.6130 N.am   76  GLY76      -0.1954
     18  CA        -9.5650   24.9290   -2.5060 C.3    76  GLY76       0.1869
     19  C         -9.6350   25.6880   -1.1750 C.2    76  GLY76       0.2309
     20  O         -8.8160   26.6240   -0.9170 O.2    76  GLY76      -0.2863
     21  N        -14.2300   27.7780   -1.9270 N.3    79  MET79      -0.1245
     22  CA       -15.5180   27.5230   -2.5620 C.3    79  MET79       0.1570
     23  C        -16.0450   26.0810   -2.3950 C.2    79  MET79       0.2261
     24  O        -15.4930   25.2970   -1.5910 O.2    79  MET79      -0.2867
     25  CB       -15.3710   27.8070   -4.0340 C.3    79  MET79       0.0387
     26  CG       -14.3370   27.0110   -4.7020 C.3    79  MET79       0.0595
     27  SD       -14.3180   27.6970   -6.3500 S.3    79  MET79      -0.1393
     28  CE       -12.8990   26.8390   -6.9480 C.3    79  MET79       0.0692
     29  N         -9.9670   16.5980   -2.1440 N.3   143  SER143     -0.1202
     30  CA        -9.1680   17.6970   -2.5190 C.3   143  SER143      0.2020
     31  C         -8.7790   18.5030   -1.2440 C.2   143  SER143      0.2618
     32  O         -8.1130   17.9100   -0.3560 O.2   143  SER143     -0.2717
     33  CB        -9.9390   18.4700   -3.5410 C.3   143  SER143      0.2103
     34  OG        -9.0830   19.3780   -4.1880 O.3   143  SER143     -0.2182
     35  N         -9.1280   19.8110   -1.1510 N.am  144  ALA144     -0.1979
     36  CA        -8.9230   20.5940    0.0630 C.3   144  ALA144      0.1597
     37  C         -9.5720   19.8090    1.2080 C.2   144  ALA144      0.2287
     38  O         -9.0920   19.7930    2.3260 O.2   144  ALA144     -0.2864
     39  CB        -9.6490   22.0020   -0.0830 C.3   144  ALA144      0.0319
     40  N         -5.5050   17.5590   -0.9890 N.3   173  TRP173     -0.1241
     41  CA        -4.5420   18.6390   -1.0650 C.3   173  TRP173      0.1605
     42  C         -3.9780   18.8230    0.3360 C.2   173  TRP173      0.2264
     43  O         -4.6340   19.3920    1.2330 O.2   173  TRP173     -0.2867
     44  CB        -5.1150   19.8970   -1.7390 C.3   173  TRP173      0.0550
     45  CG        -4.2100   21.0700   -1.7530 C.ar  173  TRP173      0.0003
     46  CD1       -2.8140   21.0870   -1.8980 C.ar  173  TRP173      0.0946
     47  CD2       -4.6130   22.4560   -1.6830 C.ar  173  TRP173      0.0152
     48  NE1       -2.3350   22.3980   -1.8730 N.ar  173  TRP173     -0.2442
     49  CE2       -3.4100   23.2600   -1.7440 C.ar  173  TRP173      0.0810
     50  CE3       -5.8700   23.1070   -1.6230 C.ar  173  TRP173      0.0012
     51  CZ2       -3.4460   24.6990   -1.7370 C.ar  173  TRP173      0.0191
     52  CZ3       -5.8780   24.5460   -1.5860 C.ar  173  TRP173      0.0001
     53  CH2       -4.6560   25.3010   -1.6040 C.ar  173  TRP173      0.0015
     54  N         -4.2730   27.5160   -7.9800 N.3   195  ILE195     -0.1245
     55  CA        -4.2660   26.8270   -6.6630 C.3   195  ILE195      0.1561
     56  C         -3.3360   27.5220   -5.6490 C.2   195  ILE195      0.2260
     57  O         -3.4680   27.3160   -4.4660 O.2   195  ILE195     -0.2867
     58  CB        -3.7510   25.3870   -6.8020 C.3   195  ILE195      0.0252
     59  CG1       -3.8780   24.6100   -5.4880 C.3   195  ILE195      0.0019
     60  CG2       -2.2990   25.4500   -7.4990 C.3   195  ILE195      0.0019
     61  CD1       -4.4060   23.1320   -5.6300 C.3   195  ILE195      0.0001
     62  N         -5.3140   30.1770   -3.8610 N.3   198  MET198     -0.1245
     63  CA        -6.1020   29.6200   -2.8190 C.3   198  MET198      0.1570
     64  C         -5.3110   29.2630   -1.5890 C.2   198  MET198      0.2261
     65  O         -5.8360   29.3230   -0.4920 O.2   198  MET198     -0.2867
     66  CB        -6.9140   28.4430   -3.3180 C.3   198  MET198      0.0387
     67  CG        -8.1710   28.9350   -3.9880 C.3   198  MET198      0.0595
     68  SD        -8.4010   27.6560   -5.1360 S.3   198  MET198     -0.1393
     69  CE        -8.6390   28.6980   -6.6330 C.3   198  MET198      0.0692
     70  N         -1.9900   17.0360   -8.4590 N.3   236  LEU236     -0.1245
     71  CA        -1.8330   16.8310   -7.0800 C.3   236  LEU236      0.1561
     72  C         -1.4100   15.4010   -6.7830 C.2   236  LEU236      0.2260
     73  O         -1.5990   14.9800   -5.6120 O.2   236  LEU236     -0.2867
     74  CB        -3.2180   16.9850   -6.3890 C.3   236  LEU236      0.0270
     75  CG        -3.7640   18.3740   -6.0580 C.3   236  LEU236      0.0019
     76  CD1       -5.1820   18.1990   -5.5180 C.3   236  LEU236      0.0001
     77  CD2       -2.8040   19.0410   -5.0980 C.3   236  LEU236      0.0001
     78  N         -8.6780   14.5210  -11.3840 N.3   264  HIS264     -0.1241
     79  CA        -9.0230   15.0080  -10.1110 C.3   264  HIS264      0.1621
     80  C        -10.4010   14.6370   -9.7600 C.2   264  HIS264      0.2264
     81  O        -11.3380   15.0040  -10.4620 O.2   264  HIS264     -0.2867
     82  CB        -8.8780   16.5230  -10.1220 C.3   264  HIS264      0.0745
     83  CG        -9.0310   17.1330   -8.7680 C.ar  264  HIS264      0.0817
     84  ND1       -8.1730   16.8430   -7.7270 N.ar  264  HIS264     -0.2268
     85  CD2       -9.9450   17.9960   -8.2820 C.ar  264  HIS264      0.1154
     86  CE1       -8.5720   17.4700   -6.6420 C.ar  264  HIS264      0.1986
     87  NE2       -9.6680   18.1410   -6.9420 N.ar  264  HIS264     -0.2212
@<TRIPOS>BOND
     1    78    79    1
     2    81    80    2
     3    82    79    1
     4    82    83    1
     5    79    80    1
     6     1     2    1
     7     2     3    1
     8     2     5    1
     9     4     3    2
    10    83    85   ar
    11    83    84   ar
    12    70    71    1
    13     6     5    1
    14     6     7    1
    15    85    87   ar
    16    54    55    1
    17    84    86   ar
    18    60    58    1
    19    71    72    1
    20    71    74    1
    21    28    27    1
    22    87    86   ar
    23    58    55    1
    24    58    59    1
    25    72    73    2
    26     7     8    1
    27    55    56    1
    28    69    68    1
    29    74    75    1
    30    27    26    1
    31    75    76    1
    32    75    77    1
    33    56    57    2
    34    61    59    1
    35    68    67    1
    36    26    25    1
    37    34    33    1
    38    25    22    1
    39    67    66    1
    40    62    63    1
    41    33    30    1
    42    14    13    1
    43    14    15    1
    44    66    63    1
    45    13    11   am
    46    15    16    2
    47    15    17   am
    48    63    64    1
    49    17    18    1
    50    22    23    1
    51    22    21    1
    52    30    29    1
    53    30    31    1
    54    18    19    1
    55    11    12    2
    56    11    10    1
    57    23    24    2
    58    10     9    1
    59    46    48   ar
    60    46    45   ar
    61    48    49   ar
    62    45    44    1
    63    45    47   ar
    64    49    51   ar
    65    49    47   ar
    66    44    41    1
    67    51    53   ar
    68    47    50   ar
    69    50    52   ar
    70    53    52   ar
    71    64    65    2
    72    31    35   am
    73    31    32    2
    74    19    20    2
    75    35    36    1
    76    41    40    1
    77    41    42    1
    78    39    36    1
    79    36    37    1
    80    42    43    2
    81    37    38    2
