@<TRIPOS>MOLECULE
tmp/3h18A01.pdb
 101 95 0 0 0
SMALL
GASTEIGER

@<TRIPOS>ATOM
      1  N        -19.2170   27.0010  -10.0540 N.3    32  MET32      -0.1245
      2  CA       -19.2930   25.7150   -9.4120 C.3    32  MET32       0.1570
      3  C        -20.6860   25.4270   -8.9920 C.2    32  MET32       0.2261
      4  O        -21.0550   24.2720   -9.0360 O.2    32  MET32      -0.2867
      5  CB       -18.3790   25.6490   -8.2070 C.3    32  MET32       0.0387
      6  CG       -17.2290   24.7330   -8.3510 C.3    32  MET32       0.0595
      7  SD       -16.6580   24.4200   -6.6840 S.3    32  MET32      -0.1393
      8  CE       -16.9460   22.6860   -6.4430 C.3    32  MET32       0.0692
      9  N        -23.3710   22.1140  -10.9570 N.3    36  ALA36      -0.1231
     10  CA       -23.2240   21.0270   -9.9880 C.3    36  ALA36       0.1694
     11  C        -24.1670   19.8810  -10.3470 C.2    36  ALA36       0.2592
     12  O        -25.3420   20.1140  -10.6670 O.2    36  ALA36      -0.2718
     13  CB       -23.4790   21.5400   -8.5480 C.3    36  ALA36       0.0304
     14  N        -23.7040   18.6470  -10.2590 N.am   37  PHE37      -0.1976
     15  CA       -24.6370   17.5560  -10.4640 C.3    37  PHE37       0.1639
     16  C        -25.7830   17.5090   -9.4540 C.2    37  PHE37       0.2290
     17  O        -25.6140   17.7690   -8.2610 O.2    37  PHE37      -0.2864
     18  CB       -23.9060   16.2340  -10.4980 C.3    37  PHE37       0.0560
     19  CG       -23.0430   16.0980  -11.6780 C.ar   37  PHE37      -0.0200
     20  CD1      -23.4570   16.6040  -12.9180 C.ar   37  PHE37      -0.0042
     21  CD2      -21.7780   15.5270  -11.5790 C.ar   37  PHE37      -0.0042
     22  CE1      -22.6180   16.5120  -14.0570 C.ar   37  PHE37      -0.0003
     23  CE2      -20.9420   15.3920  -12.7260 C.ar   37  PHE37      -0.0003
     24  CZ       -21.3600   15.8740  -13.9590 C.ar   37  PHE37      -0.0000
     25  N        -14.4350   19.5240   -1.4940 N.3    74  GLY74      -0.1210
     26  CA       -13.2870   20.2550   -2.0710 C.3    74  GLY74       0.1956
     27  C        -13.7190   21.6570   -2.4870 C.2    74  GLY74       0.2612
     28  O        -14.8540   22.0400   -2.2870 O.2    74  GLY74      -0.2717
     29  N        -12.7710   22.4440   -3.0020 N.am   75  GLY75      -0.1956
     30  CA       -13.0470   23.7730   -3.3870 C.3    75  GLY75       0.1869
     31  C        -11.9540   24.6700   -2.9280 C.2    75  GLY75       0.2309
     32  O        -12.1710   25.8920   -2.8250 O.2    75  GLY75      -0.2863
     33  N        -14.2300   27.7780   -1.9270 N.3    79  MET79      -0.1245
     34  CA       -15.5180   27.5230   -2.5620 C.3    79  MET79       0.1570
     35  C        -16.0450   26.0810   -2.3950 C.2    79  MET79       0.2261
     36  O        -15.4930   25.2970   -1.5910 O.2    79  MET79      -0.2867
     37  CB       -15.3710   27.8070   -4.0340 C.3    79  MET79       0.0387
     38  CG       -14.3370   27.0110   -4.7020 C.3    79  MET79       0.0595
     39  SD       -14.3180   27.6970   -6.3500 S.3    79  MET79      -0.1393
     40  CE       -12.8990   26.8390   -6.9480 C.3    79  MET79       0.0692
     41  N        -22.7990   21.4860   -4.2050 N.3    84  THR84      -0.1203
     42  CA       -21.8510   21.0440   -5.2520 C.3    84  THR84       0.1994
     43  C        -21.4340   19.6260   -4.9300 C.2    84  THR84       0.2617
     44  O        -20.9740   18.9210   -5.7940 O.2    84  THR84      -0.2717
     45  CB       -20.5750   21.9120   -5.3120 C.3    84  THR84       0.1784
     46  OG1      -19.7710   21.7950   -4.0890 O.3    84  THR84      -0.2211
     47  CG2      -20.8910   23.4350   -5.6250 C.3    84  THR84       0.0376
     48  N        -21.5710   19.1490   -3.7120 N.am   85  HIS85      -0.1975
     49  CA       -21.0170   17.8280   -3.5250 C.3    85  HIS85       0.1656
     50  C        -22.0380   16.7080   -3.1640 C.2    85  HIS85       0.2291
     51  O        -21.6560   15.5090   -3.0080 O.2    85  HIS85      -0.2864
     52  CB       -19.9250   17.9190   -2.4890 C.3    85  HIS85       0.0771
     53  CG       -18.5860   18.3630   -3.0110 C.ar   85  HIS85       0.0820
     54  ND1      -18.3520   19.6350   -3.5410 N.ar   85  HIS85      -0.2267
     55  CD2      -17.3940   17.7220   -2.9950 C.ar   85  HIS85       0.1154
     56  CE1      -17.0800   19.7290   -3.8530 C.ar   85  HIS85       0.1986
     57  NE2      -16.4770   18.5860   -3.5270 N.ar   85  HIS85      -0.2212
     58  N        -22.1520   13.3330   -5.4000 N.3    88  MET88      -0.1196
     59  CA       -21.1190   12.3250   -5.1970 C.3    88  MET88       0.1786
     60  C        -21.3220   11.7640   -3.8000 C.2    88  MET88       0.2306
     61  O        -21.0560   10.5860   -3.5240 O.2    88  MET88      -0.2863
     62  CB       -19.7530   13.0050   -5.3100 C.2    88  MET88       0.0070
     63  CG       -18.6100   12.1430   -5.2370 C.2    88  MET88       0.0282
     64  SD       -16.9530   12.9110   -5.2810 S.3    88  MET88      -0.1125
     65  CE       -17.2530   14.1900   -4.1050 C.3    88  MET88       0.0742
     66  N        -12.7320   15.3730   -0.3720 N.3   142  ASP142     -0.1225
     67  CA       -12.0310   15.5260   -1.6360 C.3   142  ASP142      0.1805
     68  C        -11.2090   16.7850   -1.6870 C.2   142  ASP142      0.2598
     69  O        -11.6600   17.8770   -1.3330 O.2   142  ASP142     -0.2718
     70  CB       -12.9180   15.4490   -2.8730 C.3   142  ASP142      0.1424
     71  CG       -14.1170   16.4030   -2.8070 C.2   142  ASP142      0.3668
     72  OD1      -14.1360   17.3380   -3.6130 O.co2 142  ASP142     -0.2456
     73  OD2      -15.0520   16.2130   -1.9560 O.co2 142  ASP142     -0.2456
     74  N         -9.9670   16.5980   -2.1440 N.am  143  SER143     -0.1952
     75  CA        -9.1680   17.6970   -2.5190 C.3   143  SER143      0.1924
     76  C         -8.7790   18.5030   -1.2440 C.2   143  SER143      0.2314
     77  O         -8.1130   17.9100   -0.3560 O.2   143  SER143     -0.2863
     78  CB        -9.9390   18.4700   -3.5410 C.3   143  SER143      0.2116
     79  OG        -9.0830   19.3780   -4.1880 O.3   143  SER143     -0.2180
     80  N         -8.6780   14.5210  -11.3840 N.3   264  HIS264     -0.1226
     81  CA        -9.0230   15.0080  -10.1110 C.3   264  HIS264      0.1752
     82  C        -10.4010   14.6370   -9.7600 C.2   264  HIS264      0.2595
     83  O        -11.3380   15.0040  -10.4620 O.2   264  HIS264     -0.2718
     84  CB        -8.8780   16.5230  -10.1220 C.3   264  HIS264      0.0759
     85  CG        -9.0310   17.1330   -8.7680 C.ar  264  HIS264      0.0818
     86  ND1       -8.1730   16.8430   -7.7270 N.ar  264  HIS264     -0.2268
     87  CD2       -9.9450   17.9960   -8.2820 C.ar  264  HIS264      0.1154
     88  CE1       -8.5720   17.4700   -6.6420 C.ar  264  HIS264      0.1986
     89  NE2       -9.6680   18.1410   -6.9420 N.ar  264  HIS264     -0.2212
     90  N        -10.5400   13.9290   -8.6420 N.am  265  VAL265     -0.1980
     91  CA       -11.8330   13.5760   -8.1350 C.3   265  VAL265      0.1595
     92  C        -12.7470   13.0730   -9.2590 C.2   265  VAL265      0.2287
     93  O        -13.9050   13.4870   -9.4190 O.2   265  VAL265     -0.2864
     94  CB       -12.4410   14.7440   -7.3530 C.3   265  VAL265      0.0276
     95  CG1      -13.6870   14.3050   -6.6460 C.3   265  VAL265      0.0022
     96  CG2      -11.4260   15.2620   -6.3270 C.3   265  VAL265      0.0022
     97  N        -16.4740   12.2990   -9.1880 N.3   268  ALA268     -0.1245
     98  CA       -17.6440   13.1990   -9.2860 C.3   268  ALA268      0.1562
     99  C        -18.2730   13.0300  -10.5840 C.2   268  ALA268      0.2260
    100  O        -19.2940   13.6160  -10.8210 O.2   268  ALA268     -0.2867
    101  CB       -17.2570   14.6510   -9.1740 C.3   268  ALA268      0.0290
@<TRIPOS>BOND
     1    22    24   ar
     2    22    20   ar
     3    24    23   ar
     4    20    19   ar
     5    23    21   ar
     6    19    21   ar
     7    19    18    1
     8    80    81    1
     9     9    10    1
    10   100    99    2
    11    12    11    2
    12    99    98    1
    13    18    15    1
    14    15    14    1
    15    15    16    1
    16    83    82    2
    17    11    14   am
    18    11    10    1
    19    84    81    1
    20    84    85    1
    21    81    82    1
    22     1     2    1
    23    10    13    1
    24    82    90   am
    25    16    17    2
    26    93    92    2
    27     2     3    1
    28     2     5    1
    29    98    97    1
    30    98   101    1
    31    92    91    1
    32     4     3    2
    33    85    87   ar
    34    85    86   ar
    35    90    91    1
    36     6     5    1
    37     6     7    1
    38    87    89   ar
    39    91    94    1
    40    86    88   ar
    41    94    95    1
    42    94    96    1
    43    40    39    1
    44    89    88   ar
    45     7     8    1
    46    39    38    1
    47    44    43    2
    48    47    45    1
    49    58    59    1
    50    45    42    1
    51    45    46    1
    52    62    63    2
    53    62    59    1
    54    64    63    1
    55    64    65    1
    56    42    43    1
    57    42    41    1
    58    59    60    1
    59    43    48   am
    60    38    37    1
    61    79    78    1
    62    37    34    1
    63    56    54   ar
    64    56    57   ar
    65    60    61    2
    66    48    49    1
    67    72    71   ar
    68    54    53   ar
    69    78    75    1
    70    57    55   ar
    71    49    50    1
    72    49    52    1
    73    30    29    1
    74    30    31    1
    75    50    51    2
    76    53    55   ar
    77    53    52    1
    78    29    27   am
    79    31    32    2
    80    70    71    1
    81    70    67    1
    82    71    73   ar
    83    34    35    1
    84    34    33    1
    85    75    74    1
    86    75    76    1
    87    27    28    2
    88    27    26    1
    89    35    36    2
    90    74    68   am
    91    26    25    1
    92    68    67    1
    93    68    69    2
    94    67    66    1
    95    76    77    2
