@<TRIPOS>MOLECULE
tmp/3h1iM03.pdb
 194 182 0 0 0
SMALL
GASTEIGER

@<TRIPOS>ATOM
      1  N         34.4310  109.8060   95.0140 N.3    14  ILE14      -0.1245
      2  CA        34.5140  110.3430   96.3650 C.3    14  ILE14       0.1561
      3  C         35.4350  109.4210   97.1560 C.2    14  ILE14       0.2260
      4  O         36.2960  109.8640   97.9090 O.2    14  ILE14      -0.2867
      5  CB        33.1230  110.3690   97.0370 C.3    14  ILE14       0.0252
      6  CG1       32.3340  111.6000   96.5910 C.3    14  ILE14       0.0019
      7  CG2       33.2720  110.4200   98.5290 C.3    14  ILE14       0.0019
      8  CD1       32.2030  111.7570   95.0940 C.3    14  ILE14       0.0001
      9  N         39.4260  109.2250   96.4830 N.3    17  SER17      -0.1202
     10  CA        40.1280  110.4850   96.6670 C.3    17  SER17       0.2020
     11  C         39.8970  111.1520   98.0110 C.2    17  SER17       0.2618
     12  O         40.5000  112.1870   98.2800 O.2    17  SER17      -0.2717
     13  CB        39.7510  111.4440   95.5520 C.3    17  SER17       0.2103
     14  OG        38.3500  111.6340   95.5310 O.3    17  SER17      -0.2182
     15  N         39.0290  110.5670   98.8420 N.am   18  LEU18      -0.1979
     16  CA        38.7110  111.1040  100.1790 C.3    18  LEU18       0.1596
     17  C         38.6040  110.0460  101.2610 C.2    18  LEU18       0.2287
     18  O         38.6010  110.3700  102.4440 O.2    18  LEU18      -0.2864
     19  CB        37.3940  111.8890  100.1710 C.3    18  LEU18       0.0297
     20  CG        37.4190  113.2680   99.5080 C.3    18  LEU18       0.0022
     21  CD1       36.0730  113.9480   99.6400 C.3    18  LEU18       0.0001
     22  CD2       38.4920  114.1060  100.1640 C.3    18  LEU18       0.0001
     23  N         41.9620  106.5650   99.8370 N.3    21  LEU21      -0.1245
     24  CA        43.1560  107.1040   99.2390 C.3    21  LEU21       0.1561
     25  C         44.3860  106.8880  100.0960 C.2    21  LEU21       0.2260
     26  O         44.4110  107.2380  101.2690 O.2    21  LEU21      -0.2867
     27  CB        43.0000  108.5970   98.9870 C.3    21  LEU21       0.0270
     28  CG        44.3200  109.2910   98.6420 C.3    21  LEU21       0.0019
     29  CD1       44.9150  108.6010   97.4440 C.3    21  LEU21       0.0001
     30  CD2       44.1120  110.7770   98.3570 C.3    21  LEU21       0.0001
     31  N         47.7160  107.4420  101.7440 N.3    23  ALA23      -0.1245
     32  CA        48.4670  108.5750  102.2190 C.3    23  ALA23       0.1562
     33  C         49.7060  108.1670  103.0110 C.2    23  ALA23       0.2260
     34  O         49.6720  107.1970  103.7790 O.2    23  ALA23      -0.2867
     35  CB        47.5660  109.4270  103.0890 C.3    23  ALA23       0.0290
     36  N         53.2730  112.5740  106.4760 N.3    27  ILE27      -0.1231
     37  CA        53.1910  113.9390  105.9610 C.3    27  ILE27       0.1692
     38  C         52.7960  114.9260  107.0720 C.2    27  ILE27       0.2592
     39  O         51.8420  114.7090  107.8380 O.2    27  ILE27      -0.2718
     40  CB        52.2310  114.0400  104.7710 C.3    27  ILE27       0.0266
     41  CG1       51.0070  113.1640  105.0280 C.3    27  ILE27       0.0019
     42  CG2       52.9670  113.6590  103.4940 C.3    27  ILE27       0.0020
     43  CD1       49.9730  113.1970  103.9450 C.3    27  ILE27       0.0001
     44  N         53.5730  116.0090  107.1400 N.am   28  SER28      -0.1952
     45  CA        53.4350  117.0740  108.1320 C.3    28  SER28       0.1924
     46  C         52.4440  118.1870  107.7960 C.2    28  SER28       0.2314
     47  O         51.8290  118.2130  106.7300 O.2    28  SER28      -0.2863
     48  CB        54.8220  117.6990  108.3930 C.3    28  SER28       0.2116
     49  OG        55.4030  118.2640  107.2160 O.3    28  SER28      -0.2180
     50  N         51.4030  119.8800  104.6440 N.3    31  TRP31      -0.1227
     51  CA        50.7130  119.0910  103.6390 C.3    31  TRP31       0.1737
     52  C         49.2290  119.4140  103.5810 C.2    31  TRP31       0.2595
     53  O         48.4950  118.9130  102.7240 O.2    31  TRP31      -0.2718
     54  CB        50.9460  117.6030  103.8900 C.3    31  TRP31       0.0564
     55  CG        51.8340  117.0120  102.8420 C.ar   31  TRP31       0.0003
     56  CD1       51.4460  116.4800  101.6490 C.ar   31  TRP31       0.0946
     57  CD2       53.2610  116.9890  102.8430 C.ar   31  TRP31       0.0152
     58  NE1       52.5390  116.1320  100.9030 N.ar   31  TRP31      -0.2442
     59  CE2       53.6700  116.4330  101.6100 C.ar   31  TRP31       0.0810
     60  CE3       54.2370  117.3890  103.7640 C.ar   31  TRP31       0.0012
     61  CZ2       55.0130  116.2660  101.2700 C.ar   31  TRP31       0.0191
     62  CZ3       55.5700  117.2260  103.4290 C.ar   31  TRP31       0.0001
     63  CH2       55.9470  116.6680  102.1880 C.ar   31  TRP31       0.0015
     64  N         48.7860  120.2700  104.4910 N.am   32  ASN32      -0.1974
     65  CA        47.3880  120.6590  104.5000 C.3    32  ASN32       0.1688
     66  C         47.1830  121.8180  103.5250 C.2    32  ASN32       0.2292
     67  O         46.0980  121.9930  102.9790 O.2    32  ASN32      -0.2864
     68  CB        46.9420  121.0940  105.9060 C.3    32  ASN32       0.1181
     69  CG        47.2780  120.0710  106.9730 C.2    32  ASN32       0.2629
     70  OD1       48.4490  119.8680  107.3120 O.2    32  ASN32      -0.2716
     71  ND2       46.2510  119.4200  107.5070 N.am   32  ASN32      -0.0877
     72  N         47.4550  122.2550  100.6010 N.3    34  GLY34      -0.1210
     73  CA        46.7520  121.9750   99.3630 C.3    34  GLY34       0.1956
     74  C         45.2550  122.1060   99.6170 C.2    34  GLY34       0.2612
     75  O         44.5450  122.8710   98.9630 O.2    34  GLY34      -0.2717
     76  N         44.7880  121.3560  100.6050 N.am   35  SER35      -0.1952
     77  CA        43.3910  121.3660  100.9580 C.3    35  SER35       0.1924
     78  C         42.9260  122.7300  101.4280 C.2    35  SER35       0.2314
     79  O         41.8380  123.1560  101.0720 O.2    35  SER35      -0.2863
     80  CB        43.1010  120.3100  102.0270 C.3    35  SER35       0.2116
     81  OG        43.6650  120.6500  103.2740 O.3    35  SER35      -0.2180
     82  N         42.2270  124.8040   98.7140 N.3    38  ALA38      -0.1245
     83  CA        40.9000  124.4600   98.2170 C.3    38  ALA38       0.1562
     84  C         39.8920  125.3310   98.9070 C.2    38  ALA38       0.2260
     85  O         39.2010  126.1220   98.2730 O.2    38  ALA38      -0.2867
     86  CB        40.5820  123.0300   98.5250 C.3    38  ALA38       0.0290
     87  N         39.5930  128.6370   97.7300 N.3    41  LEU41      -0.1231
     88  CA        38.8590  128.6470   96.4790 C.3    41  LEU41       0.1693
     89  C         37.3690  128.5650   96.7510 C.2    41  LEU41       0.2591
     90  O         36.5890  129.3500   96.2250 O.2    41  LEU41      -0.2718
     91  CB        39.2570  127.4800   95.5990 C.3    41  LEU41       0.0284
     92  CG        38.5260  127.6220   94.2750 C.3    41  LEU41       0.0019
     93  CD1       38.9890  128.8970   93.5910 C.3    41  LEU41       0.0001
     94  CD2       38.7890  126.4310   93.3910 C.3    41  LEU41       0.0001
     95  N         36.9640  127.6260   97.5870 N.am   42  MET42      -0.1979
     96  CA        35.5450  127.4980   97.8740 C.3    42  MET42       0.1605
     97  C         34.9910  128.7310   98.5280 C.2    42  MET42       0.2287
     98  O         33.8650  129.1560   98.2570 O.2    42  MET42      -0.2864
     99  CB        35.2710  126.2910   98.7680 C.3    42  MET42       0.0413
    100  CG        35.4670  124.9740   98.0370 C.3    42  MET42       0.0598
    101  SD        35.0040  125.1670   96.2670 S.3    42  MET42      -0.1393
    102  CE        33.1360  125.4360   96.4000 C.3    42  MET42       0.0692
    103  N         39.2600  126.2660   89.6070 N.3   190  ALA190     -0.1245
    104  CA        38.5340  125.1040   90.1060 C.3   190  ALA190      0.1562
    105  C         38.7230  123.9060   89.1820 C.2   190  ALA190      0.2260
    106  O         38.9390  122.7690   89.6290 O.2   190  ALA190     -0.2867
    107  CB        37.0840  125.4360   90.2120 C.3   190  ALA190      0.0290
    108  N         42.5270  122.8410   89.1220 N.3   193  THR193     -0.1203
    109  CA        42.7590  122.1810   90.3730 C.3   193  THR193      0.1994
    110  C         42.3850  120.7220   90.2140 C.2   193  THR193      0.2617
    111  O         43.1610  119.8470   90.5630 O.2   193  THR193     -0.2717
    112  CB        41.8840  122.7660   91.3930 C.3   193  THR193      0.1784
    113  OG1       42.1440  124.1690   91.4200 O.3   193  THR193     -0.2211
    114  CG2       42.1320  122.1360   92.7510 C.3   193  THR193      0.0376
    115  N         41.1920  120.4550   89.6910 N.am  194  ILE194     -0.1979
    116  CA        40.7410  119.0740   89.4670 C.3   194  ILE194      0.1595
    117  C         41.8210  118.2320   88.7660 C.2   194  ILE194      0.2287
    118  O         41.9930  117.0350   89.0500 O.2   194  ILE194     -0.2864
    119  CB        39.5030  119.0210   88.5690 C.3   194  ILE194      0.0276
    120  CG1       38.3460  119.7970   89.1900 C.3   194  ILE194      0.0022
    121  CG2       39.1250  117.5790   88.3450 C.3   194  ILE194      0.0022
    122  CD1       37.7000  119.0840   90.3430 C.3   194  ILE194      0.0001
    123  N         45.1070  117.7810   91.0100 N.3   197  LEU197     -0.1245
    124  CA        44.8650  116.6200   91.8510 C.3   197  LEU197      0.1561
    125  C         44.8870  115.2920   91.1370 C.2   197  LEU197      0.2260
    126  O         45.1900  114.2750   91.7500 O.2   197  LEU197     -0.2867
    127  CB        43.5400  116.7420   92.5620 C.3   197  LEU197      0.0270
    128  CG        43.6650  117.2800   93.9710 C.3   197  LEU197      0.0019
    129  CD1       42.4480  116.8540   94.7780 C.3   197  LEU197      0.0001
    130  CD2       44.8990  116.7080   94.5990 C.3   197  LEU197      0.0001
    131  N         48.4930  114.3280   90.4240 N.3   200  LEU200     -0.1231
    132  CA        49.0300  113.9340   91.7050 C.3   200  LEU200      0.1693
    133  C         48.6950  112.4620   91.9160 C.2   200  LEU200      0.2592
    134  O         49.5880  111.6280   91.9260 O.2   200  LEU200     -0.2718
    135  CB        48.4030  114.7630   92.8120 C.3   200  LEU200      0.0284
    136  CG        49.1300  114.6040   94.1290 C.3   200  LEU200      0.0019
    137  CD1       50.4460  115.3160   93.9650 C.3   200  LEU200      0.0001
    138  CD2       48.3310  115.1640   95.3110 C.3   200  LEU200      0.0001
    139  N         47.4020  112.1570   92.0590 N.am  201  HIS201     -0.1976
    140  CA        46.9010  110.7990   92.2810 C.3   201  HIS201      0.1656
    141  C         47.5530  109.7190   91.4430 C.2   201  HIS201      0.2291
    142  O         47.3000  108.5350   91.6490 O.2   201  HIS201     -0.2864
    143  CB        45.4010  110.7420   92.0360 C.3   201  HIS201      0.0771
    144  CG        44.5880  111.4530   93.0690 C.ar  201  HIS201      0.0820
    145  ND1       43.2120  111.5140   93.0130 N.ar  201  HIS201     -0.2267
    146  CD2       44.9480  112.1230   94.1880 C.ar  201  HIS201      0.1154
    147  CE1       42.7580  112.1910   94.0540 C.ar  201  HIS201      0.1986
    148  NE2       43.7910  112.5720   94.7830 N.ar  201  HIS201     -0.2212
    149  N         51.0080  110.9080   97.1910 N.3   205  SER205     -0.1217
    150  CA        51.6780  112.0960   97.6930 C.3   205  SER205      0.1889
    151  C         53.1570  111.8570   98.0760 C.2   205  SER205      0.2288
    152  O         53.5840  110.7230   98.3210 O.2   205  SER205     -0.2866
    153  CB        50.8750  112.6210   98.8740 C.3   205  SER205      0.2089
    154  OG        49.4970  112.4640   98.5880 O.3   205  SER205     -0.2183
    155  N         43.3530  107.6420  103.6390 N.3   220  PHE220     -0.1241
    156  CA        43.1350  109.0610  103.7880 C.3   220  PHE220      0.1605
    157  C         42.1850  109.3170  104.9430 C.2   220  PHE220      0.2264
    158  O         42.3620  110.2610  105.7030 O.2   220  PHE220     -0.2867
    159  CB        42.5490  109.6590  102.5330 C.3   220  PHE220      0.0534
    160  CG        42.5860  111.1280  102.5490 C.ar  220  PHE220     -0.0203
    161  CD1       43.6910  111.8100  102.0520 C.ar  220  PHE220     -0.0042
    162  CD2       41.5890  111.8400  103.2010 C.ar  220  PHE220     -0.0042
    163  CE1       43.8160  113.1920  102.2110 C.ar  220  PHE220     -0.0003
    164  CE2       41.6930  113.2240  103.3740 C.ar  220  PHE220     -0.0003
    165  CZ        42.8160  113.9060  102.8770 C.ar  220  PHE220     -0.0000
    166  N         44.0630  111.6080  107.5840 N.3   224  TYR224     -0.1241
    167  CA        44.1040  112.9320  106.9910 C.3   224  TYR224      0.1605
    168  C         42.8060  113.6990  106.8260 C.2   224  TYR224      0.2264
    169  O         42.8180  114.9010  106.5740 O.2   224  TYR224     -0.2867
    170  CB        44.8370  112.8480  105.6820 C.3   224  TYR224      0.0534
    171  CG        46.1890  112.3120  105.9510 C.ar  224  TYR224     -0.0201
    172  CD1       46.4080  110.9520  105.9740 C.ar  224  TYR224     -0.0009
    173  CD2       47.2250  113.1590  106.3120 C.ar  224  TYR224     -0.0009
    174  CE1       47.6170  110.4420  106.3560 C.ar  224  TYR224      0.0417
    175  CE2       48.4380  112.6620  106.6990 C.ar  224  TYR224      0.0417
    176  CZ        48.6310  111.2930  106.7220 C.ar  224  TYR224      0.1957
    177  OH        49.8280  110.7560  107.1330 O.3   224  TYR224     -0.2866
    178  N         42.5940  115.3080  110.1850 N.3   227  LYS227     -0.1231
    179  CA        43.7180  116.2230  110.1590 C.3   227  LYS227      0.1693
    180  C         43.4170  117.4500  109.3000 C.2   227  LYS227      0.2592
    181  O         43.9520  118.5220  109.5480 O.2   227  LYS227     -0.2718
    182  CB        44.9800  115.5100  109.6440 C.3   227  LYS227      0.0285
    183  CG        46.2610  116.3660  109.6800 C.3   227  LYS227      0.0035
    184  CD        47.5330  115.5090  109.7390 C.3   227  LYS227      0.0206
    185  CE        48.7890  116.3780  109.7690 C.3   227  LYS227      0.1093
    186  NZ        50.0660  115.5980  109.8350 N.3   227  LYS227     -0.1314
    187  N         42.5590  117.3120  108.2940 N.am  228  ASP228     -0.1974
    188  CA        42.2450  118.4580  107.4470 C.3   228  ASP228      0.1709
    189  C         41.2970  119.4010  108.1600 C.2   228  ASP228      0.2293
    190  O         41.4640  120.6160  108.1020 O.2   228  ASP228     -0.2864
    191  CB        41.6500  117.9960  106.1110 C.3   228  ASP228      0.1436
    192  CG        42.7230  117.6170  105.0940 C.2   228  ASP228      0.3671
    193  OD1       42.3990  116.9560  104.0880 O.co2 228  ASP228     -0.2456
    194  OD2       43.8950  117.9930  105.2980 O.co2 228  ASP228     -0.2456
@<TRIPOS>BOND
     1   121   119    1
     2   119   120    1
     3   119   116    1
     4   117   118    2
     5   117   116    1
     6   108   109    1
     7   105   106    2
     8   105   104    1
     9   120   122    1
    10   116   115    1
    11   103   104    1
    12   115   110   am
    13   104   107    1
    14   110   109    1
    15   110   111    2
    16   109   112    1
    17   131   132    1
    18   123   124    1
    19   125   126    2
    20   125   124    1
    21   112   113    1
    22   112   114    1
    23   141   142    2
    24   141   140    1
    25   132   133    1
    26   132   135    1
    27   124   127    1
    28   133   134    2
    29   133   139   am
    30   143   140    1
    31   143   144    1
    32   139   140    1
    33   127   128    1
    34   135   136    1
    35   145   144   ar
    36   145   147   ar
    37   144   146   ar
    38    94    92    1
    39    93    92    1
    40   137   136    1
    41   128   130    1
    42   128   129    1
    43   147   148   ar
    44   136   138    1
    45   146   148   ar
    46    92    91    1
    47     1     2    1
    48     8     6    1
    49    14    13    1
    50    13    10    1
    51    91    88    1
    52    90    89    2
    53   101   102    1
    54   101   100    1
    55     2     5    1
    56     2     3    1
    57    88    89    1
    58    88    87    1
    59     9    10    1
    60     6     5    1
    61    10    11    1
    62    89    95   am
    63     5     7    1
    64     3     4    2
    65   149   150    1
    66    29    28    1
    67    95    96    1
    68   150   151    1
    69   150   153    1
    70    96    97    1
    71    96    99    1
    72    11    12    2
    73    11    15   am
    74   100    99    1
    75   151   152    2
    76    83    86    1
    77    83    82    1
    78    83    84    1
    79    98    97    2
    80    85    84    2
    81    30    28    1
    82   154   153    1
    83    28    27    1
    84    15    16    1
    85    75    74    2
    86    27    24    1
    87    24    23    1
    88    24    25    1
    89    73    74    1
    90    73    72    1
    91    20    21    1
    92    20    22    1
    93    20    19    1
    94    74    76   am
    95    25    26    2
    96    19    16    1
    97    16    17    1
    98    76    77    1
    99    58    59   ar
   100    58    56   ar
   101    77    78    1
   102    77    80    1
   103    79    78    2
   104    17    18    2
   105    61    59   ar
   106    61    63   ar
   107    59    57   ar
   108    56    55   ar
   109    31    32    1
   110    80    81    1
   111   161   163   ar
   112   161   160   ar
   113    63    62   ar
   114   163   165   ar
   115    32    33    1
   116    32    35    1
   117   159   160    1
   118   159   156    1
   119   160   162   ar
   120    53    52    2
   121    55    57   ar
   122    55    54    1
   123    57    60   ar
   124   165   164   ar
   125    67    66    2
   126    33    34    2
   127   162   164   ar
   128    62    60   ar
   129    42    40    1
   130    66    65    1
   131    52    51    1
   132    52    64   am
   133    51    54    1
   134    51    50    1
   135   155   156    1
   136   156   157    1
   137    43    41    1
   138   193   192   ar
   139    64    65    1
   140    65    68    1
   141    40    41    1
   142    40    37    1
   143   157   158    2
   144   192   194   ar
   145   192   191    1
   146   170   171    1
   147   170   167    1
   148    68    69    1
   149   171   172   ar
   150   171   173   ar
   151    37    36    1
   152    37    38    1
   153   172   174   ar
   154   191   188    1
   155   173   175   ar
   156   174   176   ar
   157   169   168    2
   158   175   176   ar
   159   176   177    1
   160    47    46    2
   161   168   167    1
   162    69    70    2
   163    69    71   am
   164   167   166    1
   165    38    44   am
   166    38    39    2
   167    44    45    1
   168    49    48    1
   169   188   189    1
   170   188   187    1
   171    46    45    1
   172   190   189    2
   173    45    48    1
   174   187   180   am
   175   180   181    2
   176   180   179    1
   177   182   183    1
   178   182   179    1
   179   183   184    1
   180   184   185    1
   181   185   186    1
   182   179   178    1
