@<TRIPOS>MOLECULE
tmp/3h1iM04.pdb
 109 102 0 0 0
SMALL
GASTEIGER

@<TRIPOS>ATOM
      1  N         52.3030  119.1150  108.7320 N.3    29  ALA29      -0.1245
      2  CA        51.4110  120.2500  108.5690 C.3    29  ALA29       0.1562
      3  C         51.5380  120.8280  107.1900 C.2    29  ALA29       0.2260
      4  O         50.5360  121.1300  106.5680 O.2    29  ALA29      -0.2867
      5  CB        51.7330  121.3210  109.5870 C.3    29  ALA29       0.0290
      6  N         48.7860  120.2700  104.4910 N.3    32  ASN32      -0.1225
      7  CA        47.3880  120.6590  104.5000 C.3    32  ASN32       0.1785
      8  C         47.1830  121.8180  103.5250 C.2    32  ASN32       0.2597
      9  O         46.0980  121.9930  102.9790 O.2    32  ASN32      -0.2718
     10  CB        46.9420  121.0940  105.9060 C.3    32  ASN32       0.1169
     11  CG        47.2780  120.0710  106.9730 C.2    32  ASN32       0.2627
     12  OD1       48.4490  119.8680  107.3120 O.2    32  ASN32      -0.2716
     13  ND2       46.2510  119.4200  107.5070 N.am   32  ASN32      -0.0877
     14  N         48.2290  122.5930  103.2780 N.am   33  PHE33      -0.1976
     15  CA        48.0730  123.7400  102.4110 C.3    33  PHE33       0.1639
     16  C         47.3890  123.4860  101.0840 C.2    33  PHE33       0.2290
     17  O         46.7610  124.3910  100.5120 O.2    33  PHE33      -0.2864
     18  CB        49.4090  124.4670  102.2790 C.3    33  PHE33       0.0560
     19  CG        49.8040  125.1470  103.5600 C.ar   33  PHE33      -0.0200
     20  CD1       48.9150  125.9960  104.2010 C.ar   33  PHE33      -0.0042
     21  CD2       50.9770  124.8320  104.2110 C.ar   33  PHE33      -0.0042
     22  CE1       49.1900  126.5010  105.4700 C.ar   33  PHE33      -0.0003
     23  CE2       51.2520  125.3410  105.4860 C.ar   33  PHE33      -0.0003
     24  CZ        50.3570  126.1680  106.1070 C.ar   33  PHE33      -0.0000
     25  N         43.7270  123.4240  102.2270 N.3    36  LEU36      -0.1245
     26  CA        43.3160  124.7470  102.7010 C.3    36  LEU36       0.1561
     27  C         43.1710  125.6440  101.4900 C.2    36  LEU36       0.2260
     28  O         42.2350  126.4500  101.4080 O.2    36  LEU36      -0.2867
     29  CB        44.3420  125.3470  103.6690 C.3    36  LEU36       0.0270
     30  CG        44.5920  124.6500  105.0100 C.3    36  LEU36       0.0019
     31  CD1       45.7430  125.3500  105.6460 C.3    36  LEU36       0.0001
     32  CD2       43.3760  124.6840  105.9320 C.3    36  LEU36       0.0001
     33  N         44.4950  135.5170  102.4940 N.3    89  PHE89      -0.1241
     34  CA        44.6980  134.1920  103.0380 C.3    89  PHE89       0.1605
     35  C         44.8880  133.1640  101.9370 C.2    89  PHE89       0.2264
     36  O         45.5680  132.1490  102.1160 O.2    89  PHE89      -0.2867
     37  CB        43.5470  133.8110  103.9550 C.3    89  PHE89       0.0534
     38  CG        43.8290  134.1150  105.3900 C.ar   89  PHE89      -0.0203
     39  CD1       43.6870  135.3980  105.8810 C.ar   89  PHE89      -0.0042
     40  CD2       44.3300  133.1350  106.2380 C.ar   89  PHE89      -0.0042
     41  CE1       44.0480  135.6990  107.2050 C.ar   89  PHE89      -0.0003
     42  CE2       44.6910  133.4270  107.5520 C.ar   89  PHE89      -0.0003
     43  CZ        44.5520  134.7060  108.0350 C.ar   89  PHE89      -0.0000
     44  N         48.4190  133.5160  100.9540 N.3    92  ILE92      -0.1231
     45  CA        49.2470  132.9950  102.0350 C.3    92  ILE92       0.1692
     46  C         49.3500  131.5000  101.7960 C.2    92  ILE92       0.2592
     47  O         50.4050  130.9700  101.4380 O.2    92  ILE92      -0.2718
     48  CB        48.6020  133.2040  103.4130 C.3    92  ILE92       0.0266
     49  CG1       48.5270  134.6960  103.7500 C.3    92  ILE92       0.0019
     50  CG2       49.4000  132.4470  104.4600 C.3    92  ILE92       0.0020
     51  CD1       47.8070  134.9860  105.0580 C.3    92  ILE92       0.0001
     52  N         48.2270  130.8260  101.9830 N.am   93  CYS93      -0.1970
     53  CA        48.1950  129.4070  101.7770 C.3    93  CYS93       0.1712
     54  C         49.0040  128.9960  100.5640 C.2    93  CYS93       0.2296
     55  O         49.8180  128.0860  100.6450 O.2    93  CYS93      -0.2864
     56  CB        46.7660  128.9440  101.5930 C.3    93  CYS93       0.0983
     57  SG        45.8540  128.8950  103.0950 S.3    93  CYS93      -0.0798
     58  N         52.8870  129.2190  101.0160 N.3    96  LEU96      -0.1245
     59  CA        53.4420  128.1660  101.8290 C.3    96  LEU96       0.1561
     60  C         53.3560  126.8610  101.0130 C.2    96  LEU96       0.2260
     61  O         54.3440  126.1350  100.8890 O.2    96  LEU96      -0.2867
     62  CB        52.6620  128.0560  103.1380 C.3    96  LEU96       0.0270
     63  CG        52.4170  129.3970  103.8430 C.3    96  LEU96       0.0019
     64  CD1       51.7560  129.1360  105.1860 C.3    96  LEU96       0.0001
     65  CD2       53.7200  130.1520  104.0270 C.3    96  LEU96       0.0001
     66  N         42.5940  115.3080  110.1850 N.3   227  LYS227     -0.1245
     67  CA        43.7180  116.2230  110.1590 C.3   227  LYS227      0.1561
     68  C         43.4170  117.4500  109.3000 C.2   227  LYS227      0.2260
     69  O         43.9520  118.5220  109.5480 O.2   227  LYS227     -0.2867
     70  CB        44.9800  115.5100  109.6440 C.3   227  LYS227      0.0271
     71  CG        46.2610  116.3660  109.6800 C.3   227  LYS227      0.0035
     72  CD        47.5330  115.5090  109.7390 C.3   227  LYS227      0.0206
     73  CE        48.7890  116.3780  109.7690 C.3   227  LYS227      0.1093
     74  NZ        50.0660  115.5980  109.8350 N.3   227  LYS227     -0.1314
     75  N         41.0330  119.9270  111.3130 N.3   230  LEU230     -0.1231
     76  CA        41.7940  120.6700  112.3050 C.3   230  LEU230      0.1693
     77  C         42.4620  121.8250  111.5720 C.2   230  LEU230      0.2592
     78  O         42.2700  122.9840  111.9220 O.2   230  LEU230     -0.2718
     79  CB        42.8540  119.7720  112.9230 C.3   230  LEU230      0.0284
     80  CG        43.6140  120.3200  114.1250 C.3   230  LEU230      0.0019
     81  CD1       43.0610  119.6360  115.3820 C.3   230  LEU230      0.0001
     82  CD2       45.1300  120.0650  113.9620 C.3   230  LEU230      0.0001
     83  N         43.2300  121.4890  110.5360 N.am  231  GLY231     -0.1957
     84  CA        43.9210  122.4890  109.7340 C.3   231  GLY231      0.1869
     85  C         42.9570  123.5070  109.1670 C.2   231  GLY231      0.2309
     86  O         43.3290  124.6170  108.7850 O.2   231  GLY231     -0.2863
     87  N         42.0150  125.8870  112.3010 N.3   234  LEU234     -0.1231
     88  CA        43.2620  126.5780  112.6170 C.3   234  LEU234      0.1693
     89  C         43.5070  127.7730  111.7200 C.2   234  LEU234      0.2591
     90  O         43.7450  128.8710  112.2120 O.2   234  LEU234     -0.2718
     91  CB        44.4360  125.6100  112.5260 C.3   234  LEU234      0.0284
     92  CG        44.3720  124.5800  113.6550 C.3   234  LEU234      0.0019
     93  CD1       45.3560  123.4410  113.4130 C.3   234  LEU234      0.0001
     94  CD2       44.6550  125.2910  114.9640 C.3   234  LEU234      0.0001
     95  N         43.4610  127.5680  110.4090 N.am  235  MET235     -0.1979
     96  CA        43.6530  128.6760  109.4910 C.3   235  MET235      0.1605
     97  C         42.4250  129.5810  109.6060 C.2   235  MET235      0.2287
     98  O         42.5300  130.8000  109.7310 O.2   235  MET235     -0.2864
     99  CB        43.7890  128.1540  108.0650 C.3   235  MET235      0.0413
    100  CG        43.8290  129.2450  107.0220 C.3   235  MET235      0.0598
    101  SD        42.6260  128.9310  105.7200 S.3   235  MET235     -0.1393
    102  CE        42.2390  130.6030  105.1320 C.3   235  MET235      0.0692
    103  N         42.7210  132.9740  112.3000 N.3   238  PRO238     -0.2116
    104  CA        43.2950  134.2780  111.9760 C.3   238  PRO238      0.1372
    105  C         42.5170  134.9630  110.8730 C.2   238  PRO238      0.2244
    106  O         42.2710  136.1750  110.9220 O.2   238  PRO238     -0.2868
    107  CB        44.7100  133.9320  111.5500 C.3   238  PRO238      0.0268
    108  CG        44.5650  132.5890  111.0040 C.3   238  PRO238      0.0207
    109  CD        43.6890  131.9130  112.0120 C.3   238  PRO238      0.0892
@<TRIPOS>BOND
     1    17    16    2
     2    54    55    2
     3    54    53    1
     4    61    60    2
     5    44    45    1
     6    60    59    1
     7    58    59    1
     8    16    15    1
     9    28    27    2
    10    47    46    2
    11    27    26    1
    12    56    53    1
    13    56    57    1
    14    53    52    1
    15    46    52   am
    16    46    45    1
    17    59    62    1
    18    35    36    2
    19    35    34    1
    20    45    48    1
    21    25    26    1
    22    18    15    1
    23    18    19    1
    24    15    14    1
    25    33    34    1
    26    26    29    1
    27     9     8    2
    28    34    37    1
    29    62    63    1
    30    14     8   am
    31    48    49    1
    32    48    50    1
    33     8     7    1
    34    19    20   ar
    35    19    21   ar
    36    29    30    1
    37    49    51    1
    38    63    65    1
    39    63    64    1
    40    37    38    1
    41    20    22   ar
    42    21    23   ar
    43     6     7    1
    44     7    10    1
    45    30    31    1
    46    30    32    1
    47   102   101    1
    48    38    39   ar
    49    38    40   ar
    50    22    24   ar
    51    23    24   ar
    52   101   100    1
    53    39    41   ar
    54    10    11    1
    55    40    42   ar
    56     4     3    2
    57    11    12    2
    58    11    13   am
    59   100    99    1
    60     3     2    1
    61    41    43   ar
    62    42    43   ar
    63    99    96    1
    64     2     1    1
    65     2     5    1
    66    86    85    2
    67    85    84    1
    68    68    69    2
    69    68    67    1
    70    96    97    1
    71    96    95    1
    72    97    98    2
    73    70    71    1
    74    70    67    1
    75    71    72    1
    76    84    83    1
    77    72    73    1
    78    73    74    1
    79    67    66    1
    80    95    89   am
    81    83    77   am
    82   105   106    2
    83   105   104    1
    84   108   107    1
    85   108   109    1
    86    75    76    1
    87   107   104    1
    88    77    78    2
    89    77    76    1
    90    89    90    2
    91    89    88    1
    92   104   103    1
    93   109   103    1
    94    87    88    1
    95    76    79    1
    96    91    88    1
    97    91    92    1
    98    79    80    1
    99    93    92    1
   100    92    94    1
   101    82    80    1
   102    80    81    1
