@<TRIPOS>MOLECULE
tmp/3h1iM02.pdb
 236 226 0 0 0
SMALL
GASTEIGER

@<TRIPOS>ATOM
      1  N         49.7330  131.2710   88.6750 N.3   121  LEU121     -0.1245
      2  CA        49.6160  132.3470   87.7060 C.3   121  LEU121      0.1561
      3  C         48.1720  132.8720   87.6590 C.2   121  LEU121      0.2260
      4  O         47.9180  134.0590   87.9190 O.2   121  LEU121     -0.2867
      5  CB        50.0090  131.8410   86.3310 C.3   121  LEU121      0.0270
      6  CG        51.4990  131.8310   86.1160 C.3   121  LEU121      0.0019
      7  CD1       51.8080  131.2560   84.7660 C.3   121  LEU121      0.0001
      8  CD2       51.9870  133.2420   86.2210 C.3   121  LEU121      0.0001
      9  N         46.8210  134.8130   90.4740 N.3   124  MET124     -0.1230
     10  CA        47.3540  136.1670   90.3770 C.3   124  MET124      0.1702
     11  C         46.5280  137.0170   89.4310 C.2   124  MET124      0.2592
     12  O         46.0960  138.1210   89.7700 O.2   124  MET124     -0.2718
     13  CB        48.8030  136.1360   89.8960 C.3   124  MET124      0.0401
     14  CG        49.8050  135.7430   90.9660 C.3   124  MET124      0.0596
     15  SD        51.4550  136.1010   90.3870 S.3   124  MET124     -0.1393
     16  CE        52.1930  134.5230   90.6080 C.3   124  MET124      0.0692
     17  N         46.3250  136.4960   88.2330 N.am  125  ALA125     -0.1980
     18  CA        45.5310  137.2080   87.2600 C.3   125  ALA125      0.1597
     19  C         44.1830  137.4710   87.9010 C.2   125  ALA125      0.2287
     20  O         43.7830  138.6230   88.0550 O.2   125  ALA125     -0.2864
     21  CB        45.3600  136.3790   86.0200 C.3   125  ALA125      0.0319
     22  N         43.8990  139.9690   90.3350 N.3   128  PHE128     -0.1227
     23  CA        44.1590  141.2530   89.7190 C.3   128  PHE128      0.1736
     24  C         42.8470  141.9310   89.3930 C.2   128  PHE128      0.2595
     25  O         42.4950  142.9470   89.9960 O.2   128  PHE128     -0.2718
     26  CB        44.9790  141.0920   88.4390 C.3   128  PHE128      0.0547
     27  CG        44.9960  142.3170   87.5810 C.ar  128  PHE128     -0.0202
     28  CD1       44.8620  143.5860   88.1430 C.ar  128  PHE128     -0.0042
     29  CD2       45.1710  142.2100   86.2140 C.ar  128  PHE128     -0.0042
     30  CE1       44.9030  144.7190   87.3470 C.ar  128  PHE128     -0.0003
     31  CE2       45.2160  143.3410   85.4070 C.ar  128  PHE128     -0.0003
     32  CZ        45.0830  144.5930   85.9680 C.ar  128  PHE128     -0.0000
     33  N         42.1310  141.3690   88.4280 N.am  129  VAL129     -0.1980
     34  CA        40.8500  141.9270   88.0130 C.3   129  VAL129      0.1595
     35  C         39.9360  142.1810   89.2040 C.2   129  VAL129      0.2287
     36  O         39.3680  143.2710   89.3570 O.2   129  VAL129     -0.2864
     37  CB        40.1320  140.9890   87.0390 C.3   129  VAL129      0.0276
     38  CG1       40.9030  140.9200   85.7230 C.3   129  VAL129      0.0022
     39  CG2       39.9960  139.6100   87.6620 C.3   129  VAL129      0.0022
     40  N         40.3870  143.0800   92.0460 N.3   131  TYR131     -0.1241
     41  CA        40.7170  144.3600   92.6650 C.3   131  TYR131      0.1605
     42  C         40.2590  145.5490   91.8320 C.2   131  TYR131      0.2264
     43  O         39.7910  146.5620   92.3520 O.2   131  TYR131     -0.2867
     44  CB        42.2330  144.4450   92.8770 C.3   131  TYR131      0.0534
     45  CG        42.7180  145.4720   93.8940 C.ar  131  TYR131     -0.0201
     46  CD1       42.1930  145.5150   95.2020 C.ar  131  TYR131     -0.0009
     47  CD2       43.7650  146.3420   93.5780 C.ar  131  TYR131     -0.0009
     48  CE1       42.7110  146.3970   96.1750 C.ar  131  TYR131      0.0417
     49  CE2       44.2920  147.2260   94.5350 C.ar  131  TYR131      0.0417
     50  CZ        43.7650  147.2460   95.8320 C.ar  131  TYR131      0.1957
     51  OH        44.3240  148.0850   96.7800 O.3   131  TYR131     -0.2866
     52  N         43.4110  152.8440   93.6500 N.3   138  MET138     -0.1245
     53  CA        44.3060  151.7540   93.3290 C.3   138  MET138      0.1570
     54  C         43.7010  151.0080   92.1740 C.2   138  MET138      0.2261
     55  O         44.3020  150.9440   91.0940 O.2   138  MET138     -0.2867
     56  CB        44.5000  150.8220   94.5280 C.3   138  MET138      0.0387
     57  CG        45.1700  151.5050   95.7130 C.3   138  MET138      0.0595
     58  SD        46.6100  152.5330   95.2520 S.3   138  MET138     -0.1393
     59  CE        47.8620  151.8120   96.2980 C.3   138  MET138      0.0692
     60  N         46.2200  150.5780   89.1660 N.3   142  GLY142     -0.1225
     61  CA        46.7760  149.2450   89.0520 C.3   142  GLY142      0.1811
     62  C         46.3510  148.7270   87.6720 C.2   142  GLY142      0.2280
     63  O         47.1680  148.2430   86.8670 O.2   142  GLY142     -0.2866
     64  N         48.5210  150.0110   84.9870 N.3   145  VAL145     -0.1231
     65  CA        49.8900  149.5270   84.9380 C.3   145  VAL145      0.1692
     66  C         49.9550  148.0850   84.4580 C.2   145  VAL145      0.2592
     67  O         50.4220  147.7920   83.3540 O.2   145  VAL145     -0.2718
     68  CB        50.5320  149.6080   86.3370 C.3   145  VAL145      0.0266
     69  CG1       51.9350  149.0510   86.3040 C.3   145  VAL145      0.0020
     70  CG2       50.5370  151.0300   86.8150 C.3   145  VAL145      0.0020
     71  N         49.4740  147.1940   85.3130 N.am  146  ILE146     -0.1966
     72  CA        49.4810  145.7800   85.0430 C.3   146  ILE146      0.1727
     73  C         49.2150  145.5450   83.5910 C.2   146  ILE146      0.2616
     74  O         50.0200  144.9240   82.9120 O.2   146  ILE146     -0.2715
     75  CB        48.4390  145.0610   85.8940 C.3   146  ILE146      0.0290
     76  CG1       48.7570  145.3080   87.3650 C.3   146  ILE146      0.0022
     77  CG2       48.4720  143.5870   85.6140 C.3   146  ILE146      0.0023
     78  CD1       47.8740  144.5950   88.3420 C.3   146  ILE146      0.0001
     79  N         48.0990  146.0640   83.1000 N.am  147  THR147     -0.1951
     80  CA        47.7750  145.8680   81.7000 C.3   147  THR147      0.1897
     81  C         48.8630  146.4230   80.8380 C.2   147  THR147      0.2313
     82  O         49.3550  145.7410   79.9530 O.2   147  THR147     -0.2863
     83  CB        46.4710  146.5530   81.2930 C.3   147  THR147      0.1794
     84  OG1       46.4060  147.8550   81.8820 O.3   147  THR147     -0.2208
     85  CG2       45.2880  145.7220   81.7220 C.3   147  THR147      0.0378
     86  N         51.7700  146.5600   81.1320 N.3   149  LEU149     -0.1231
     87  CA        52.9130  145.6580   81.0650 C.3   149  LEU149      0.1693
     88  C         53.0950  145.0660   79.6840 C.2   149  LEU149      0.2592
     89  O         54.1960  144.9970   79.1610 O.2   149  LEU149     -0.2718
     90  CB        52.7320  144.5130   82.0400 C.3   149  LEU149      0.0284
     91  CG        52.9070  145.0220   83.4510 C.3   149  LEU149      0.0019
     92  CD1       52.4240  143.9990   84.4380 C.3   149  LEU149      0.0001
     93  CD2       54.3750  145.3400   83.6530 C.3   149  LEU149      0.0001
     94  N         52.0020  144.6320   79.0910 N.am  150  PHE150     -0.1976
     95  CA        52.0680  144.0160   77.7850 C.3   150  PHE150      0.1639
     96  C         52.4840  144.9530   76.6850 C.2   150  PHE150      0.2290
     97  O         52.8430  144.5110   75.6010 O.2   150  PHE150     -0.2864
     98  CB        50.7250  143.3780   77.4750 C.3   150  PHE150      0.0560
     99  CG        50.3180  142.3830   78.5020 C.ar  150  PHE150     -0.0200
    100  CD1       49.9240  142.8010   79.7690 C.ar  150  PHE150     -0.0042
    101  CD2       50.4410  141.0250   78.2520 C.ar  150  PHE150     -0.0042
    102  CE1       49.6680  141.8800   80.7710 C.ar  150  PHE150     -0.0003
    103  CE2       50.1860  140.0940   79.2490 C.ar  150  PHE150     -0.0003
    104  CZ        49.8010  140.5210   80.5110 C.ar  150  PHE150     -0.0000
    105  N         42.5480  144.2870   76.1060 N.3   164  ALA164     -0.1245
    106  CA        42.4230  144.3870   77.5500 C.3   164  ALA164      0.1562
    107  C         41.4810  145.5100   77.9910 C.2   164  ALA164      0.2260
    108  O         40.5030  145.2580   78.6900 O.2   164  ALA164     -0.2867
    109  CB        43.7950  144.5840   78.1760 C.3   164  ALA164      0.0290
    110  N         36.4020  143.2220   82.6460 N.3   178  PHE178     -0.1241
    111  CA        37.2120  142.7690   83.7540 C.3   178  PHE178      0.1605
    112  C         36.3300  142.0150   84.7200 C.2   178  PHE178      0.2264
    113  O         36.7040  140.9450   85.1870 O.2   178  PHE178     -0.2867
    114  CB        37.8600  143.9360   84.4480 C.3   178  PHE178      0.0534
    115  CG        39.2440  144.2090   83.9690 C.ar  178  PHE178     -0.0203
    116  CD1       39.5270  144.1840   82.6130 C.ar  178  PHE178     -0.0042
    117  CD2       40.2630  144.5170   84.8680 C.ar  178  PHE178     -0.0042
    118  CE1       40.7970  144.4650   82.1510 C.ar  178  PHE178     -0.0003
    119  CE2       41.5380  144.8010   84.4180 C.ar  178  PHE178     -0.0003
    120  CZ        41.8050  144.7760   83.0540 C.ar  178  PHE178     -0.0000
    121  N         35.4390  138.7520   83.4900 N.3   181  LEU181     -0.1245
    122  CA        36.6190  137.9160   83.5890 C.3   181  LEU181      0.1561
    123  C         36.8120  137.4070   85.0010 C.2   181  LEU181      0.2260
    124  O         37.0310  136.2200   85.2340 O.2   181  LEU181     -0.2867
    125  CB        37.8390  138.7180   83.1630 C.3   181  LEU181      0.0270
    126  CG        39.1050  137.9170   82.9120 C.3   181  LEU181      0.0019
    127  CD1       38.7350  136.5750   82.2940 C.3   181  LEU181      0.0001
    128  CD2       40.0100  138.7110   81.9850 C.3   181  LEU181      0.0001
    129  N         37.0620  133.3690   85.6350 N.3   185  LEU185     -0.1245
    130  CA        38.3190  132.7910   86.0760 C.3   185  LEU185      0.1561
    131  C         38.3170  131.8510   87.2510 C.2   185  LEU185      0.2260
    132  O         38.7530  130.7220   87.1480 O.2   185  LEU185     -0.2867
    133  CB        39.3320  133.8990   86.3280 C.3   185  LEU185      0.0270
    134  CG        39.8820  134.4100   85.0010 C.3   185  LEU185      0.0019
    135  CD1       41.0490  135.3560   85.2270 C.3   185  LEU185      0.0001
    136  CD2       40.3270  133.2210   84.1840 C.3   185  LEU185      0.0001
    137  N         51.6950  155.1600   95.7920 N.3   268  ILE268     -0.1231
    138  CA        51.0460  154.0020   95.1840 C.3   268  ILE268      0.1692
    139  C         51.8490  152.7150   95.3780 C.2   268  ILE268      0.2592
    140  O         52.9160  152.5380   94.7840 O.2   268  ILE268     -0.2718
    141  CB        50.8230  154.2570   93.6740 C.3   268  ILE268      0.0266
    142  CG1       50.0760  153.0930   93.0400 C.3   268  ILE268      0.0019
    143  CG2       52.1600  154.4610   92.9730 C.3   268  ILE268      0.0020
    144  CD1       49.8930  153.2580   91.5450 C.3   268  ILE268      0.0001
    145  N         51.3150  151.8180   96.2060 N.am  269  LYS269     -0.1966
    146  CA        51.9670  150.5460   96.5140 C.3   269  LYS269      0.1713
    147  C         51.0540  149.3230   96.2800 C.2   269  LYS269      0.2458
    148  O         49.9820  149.2040   96.8870 O.2   269  LYS269     -0.2730
    149  CB        52.4620  150.5740   97.9690 C.3   269  LYS269      0.0311
    150  CG        53.4920  151.6900   98.2830 C.3   269  LYS269      0.0038
    151  CD        54.8470  151.4940   97.5470 C.3   269  LYS269      0.0206
    152  CE        55.9420  152.5270   97.9450 C.3   269  LYS269      0.1093
    153  NZ        55.7700  153.9300   97.4260 N.3   269  LYS269     -0.1314
    154  N         51.4850  148.3900   95.4060 N.am  270  PRO270     -0.2716
    155  CA        50.7490  147.1700   95.0570 C.3   270  PRO270      0.1536
    156  C         50.1770  146.4280   96.2450 C.2   270  PRO270      0.2598
    157  O         50.5980  146.6400   97.3770 O.2   270  PRO270     -0.2715
    158  CB        51.7930  146.3330   94.3310 C.3   270  PRO270      0.0310
    159  CG        52.6360  147.3530   93.6870 C.3   270  PRO270      0.0237
    160  CD        52.8190  148.3690   94.7830 C.3   270  PRO270      0.0939
    161  N         49.1980  145.5650   95.9800 N.am  271  GLU271     -0.1978
    162  CA        48.6050  144.7410   97.0330 C.3   271  GLU271      0.1602
    163  C         49.8400  144.0290   97.6210 C.2   271  GLU271      0.2287
    164  O         50.8090  143.7820   96.8950 O.2   271  GLU271     -0.2864
    165  CB        47.6350  143.6860   96.4440 C.3   271  GLU271      0.0415
    166  CG        46.4290  144.1870   95.6140 C.3   271  GLU271      0.1163
    167  CD        46.7600  144.4940   94.1470 C.2   271  GLU271      0.3649
    168  OE1       47.4890  145.4740   93.9010 O.co2 271  GLU271     -0.2457
    169  OE2       46.2870  143.7640   93.2410 O.co2 271  GLU271     -0.2457
    170  N         51.8660  141.0040   95.9310 N.3   274  PHE274     -0.1241
    171  CA        52.5400  141.1960   94.6500 C.3   274  PHE274      0.1605
    172  C         53.8540  141.9170   94.8450 C.2   274  PHE274      0.2264
    173  O         54.7210  141.8930   93.9720 O.2   274  PHE274     -0.2867
    174  CB        51.7180  142.0420   93.6830 C.3   274  PHE274      0.0534
    175  CG        50.5520  141.3410   93.0940 C.ar  274  PHE274     -0.0203
    176  CD1       50.5500  139.9660   92.9490 C.ar  274  PHE274     -0.0042
    177  CD2       49.4620  142.0710   92.6470 C.ar  274  PHE274     -0.0042
    178  CE1       49.4790  139.3250   92.3680 C.ar  274  PHE274     -0.0003
    179  CE2       48.3860  141.4510   92.0650 C.ar  274  PHE274     -0.0003
    180  CZ        48.3900  140.0710   91.9230 C.ar  274  PHE274     -0.0000
    181  N         56.7950  141.5390   96.1540 N.3   276  PHE276     -0.1227
    182  CA        58.0610  140.9710   95.7320 C.3   276  PHE276      0.1736
    183  C         58.3420  141.1690   94.2470 C.2   276  PHE276      0.2595
    184  O         59.3970  141.6720   93.8630 O.2   276  PHE276     -0.2718
    185  CB        58.1560  139.4890   96.1400 C.3   276  PHE276      0.0547
    186  CG        57.4870  138.5380   95.2080 C.ar  276  PHE276     -0.0202
    187  CD1       57.9640  138.3380   93.9170 C.ar  276  PHE276     -0.0042
    188  CD2       56.3980  137.8080   95.6350 C.ar  276  PHE276     -0.0042
    189  CE1       57.3600  137.4270   93.0650 C.ar  276  PHE276     -0.0003
    190  CE2       55.7860  136.8870   94.7910 C.ar  276  PHE276     -0.0003
    191  CZ        56.2690  136.6980   93.5020 C.ar  276  PHE276     -0.0000
    192  N         57.3950  140.8030   93.4050 N.am  277  ALA277     -0.1966
    193  CA        57.5990  140.9540   91.9760 C.3   277  ALA277      0.1728
    194  C         57.7270  142.4420   91.6530 C.2   277  ALA277      0.2616
    195  O         58.5610  142.8580   90.8370 O.2   277  ALA277     -0.2715
    196  CB        56.4270  140.3340   91.2210 C.3   277  ALA277      0.0334
    197  N         56.8900  143.2340   92.3140 N.am  278  TYR278     -0.1974
    198  CA        56.8870  144.6680   92.1180 C.3   278  TYR278      0.1639
    199  C         58.3180  145.1180   92.1950 C.2   278  TYR278      0.2290
    200  O         58.8260  145.7820   91.2890 O.2   278  TYR278     -0.2864
    201  CB        56.0730  145.3460   93.2200 C.3   278  TYR278      0.0560
    202  CG        56.0930  146.8560   93.1650 C.ar  278  TYR278     -0.0198
    203  CD1       55.9730  147.5240   91.9500 C.ar  278  TYR278     -0.0009
    204  CD2       56.1750  147.6150   94.3320 C.ar  278  TYR278     -0.0009
    205  CE1       55.9290  148.9100   91.8860 C.ar  278  TYR278      0.0417
    206  CE2       56.1330  149.0070   94.2860 C.ar  278  TYR278      0.0417
    207  CZ        56.0090  149.6510   93.0510 C.ar  278  TYR278      0.1957
    208  OH        55.9680  151.0320   92.9620 O.3   278  TYR278     -0.2866
    209  N         60.7710  144.2220   89.3060 N.3   281  LEU281     -0.1245
    210  CA        60.5810  145.0710   88.1290 C.3   281  LEU281      0.1561
    211  C         61.0640  146.5020   88.3180 C.2   281  LEU281      0.2260
    212  O         61.5560  147.1230   87.3710 O.2   281  LEU281     -0.2867
    213  CB        59.1150  145.0970   87.6900 C.3   281  LEU281      0.0270
    214  CG        58.8620  145.9370   86.4240 C.3   281  LEU281      0.0019
    215  CD1       57.5890  145.4690   85.7340 C.3   281  LEU281      0.0001
    216  CD2       58.7750  147.4180   86.7770 C.3   281  LEU281      0.0001
    217  N         60.3850  140.5310   85.8570 N.3   294  LEU294     -0.1231
    218  CA        59.1340  140.1240   86.4630 C.3   294  LEU294      0.1693
    219  C         58.7180  138.7780   85.8950 C.2   294  LEU294      0.2591
    220  O         58.5540  137.8100   86.6320 O.2   294  LEU294     -0.2718
    221  CB        58.0600  141.1750   86.1700 C.3   294  LEU294      0.0284
    222  CG        56.6470  140.8880   86.6720 C.3   294  LEU294      0.0019
    223  CD1       56.6410  140.7260   88.1800 C.3   294  LEU294      0.0001
    224  CD2       55.7500  142.0270   86.2600 C.3   294  LEU294      0.0001
    225  N         58.5590  138.7180   84.5790 N.am  295  ALA295     -0.1980
    226  CA        58.1550  137.4800   83.9330 C.3   295  ALA295      0.1597
    227  C         58.8480  136.3060   84.6050 C.2   295  ALA295      0.2287
    228  O         58.2170  135.5260   85.3320 O.2   295  ALA295     -0.2864
    229  CB        58.5060  137.5170   82.4620 C.3   295  ALA295      0.0319
    230  N         58.4970  134.8340   88.2020 N.3   298  VAL298     -0.1245
    231  CA        57.5550  133.7960   88.5840 C.3   298  VAL298      0.1561
    232  C         57.7010  132.5830   87.6770 C.2   298  VAL298      0.2260
    233  O         57.7340  131.4320   88.1350 O.2   298  VAL298     -0.2867
    234  CB        56.1300  134.3280   88.5160 C.3   298  VAL298      0.0252
    235  CG1       55.1790  133.2020   88.2540 C.3   298  VAL298      0.0019
    236  CG2       55.7790  135.0000   89.8250 C.3   298  VAL298      0.0019
@<TRIPOS>BOND
     1    97    96    2
     2   105   106    1
     3    96    95    1
     4    98    95    1
     5    98    99    1
     6   106   107    1
     7   106   109    1
     8    95    94    1
     9   107   108    2
    10   101    99   ar
    11   101   103   ar
    12    99   100   ar
    13    94    88   am
    14    89    88    2
    15   103   104   ar
    16    88    87    1
    17   100   102   ar
    18    82    81    2
    19   104   102   ar
    20    81    80    1
    21    87    86    1
    22    87    90    1
    23    83    80    1
    24    83    85    1
    25    83    84    1
    26    80    79    1
    27   128   126    1
    28    90    91    1
    29   118   116   ar
    30   118   120   ar
    31   127   126    1
    32   229   226    1
    33   116   115   ar
    34   110   111    1
    35   126   125    1
    36    74    73    2
    37   120   119   ar
    38    79    73   am
    39   125   122    1
    40    67    66    2
    41    91    93    1
    42    91    92    1
    43   121   122    1
    44   122   123    1
    45    73    72    1
    46   111   114    1
    47   111   112    1
    48   226   225    1
    49   226   227    1
    50   115   114    1
    51   115   117   ar
    52   136   134    1
    53   119   117   ar
    54    66    65    1
    55    66    71   am
    56   225   219   am
    57   227   228    2
    58   112   113    2
    59     7     6    1
    60    65    64    1
    61    65    68    1
    62   123   124    2
    63   134   135    1
    64   134   133    1
    65    72    71    1
    66    72    75    1
    67    31    32   ar
    68    31    29   ar
    69    77    75    1
    70   129   130    1
    71    38    37    1
    72   215   214    1
    73   217   218    1
    74    75    76    1
    75   219   218    1
    76   219   220    2
    77    32    30   ar
    78    21    18    1
    79   130   133    1
    80   130   131    1
    81     6     8    1
    82     6     5    1
    83   221   218    1
    84   221   222    1
    85    29    27   ar
    86   224   222    1
    87    69    68    1
    88     5     2    1
    89    68    70    1
    90   214   216    1
    91   214   213    1
    92   222   223    1
    93    63    62    2
    94    37    39    1
    95    37    34    1
    96   132   131    2
    97    18    19    1
    98    18    17    1
    99    30    28   ar
   100    76    78    1
   101   212   211    2
   102    27    28   ar
   103    27    26    1
   104     3     2    1
   105     3     4    2
   106    62    61    1
   107   232   233    2
   108   232   231    1
   109   213   210    1
   110     2     1    1
   111    19    20    2
   112    34    33    1
   113    34    35    1
   114   210   211    1
   115   210   209    1
   116   230   231    1
   117    17    11   am
   118   235   234    1
   119    33    24   am
   120    26    23    1
   121   234   231    1
   122   234   236    1
   123    61    60    1
   124    35    36    2
   125    24    23    1
   126    24    25    2
   127    11    12    2
   128    11    10    1
   129    23    22    1
   130    13    10    1
   131    13    14    1
   132    10     9    1
   133    15    16    1
   134    15    14    1
   135   195   194    2
   136    55    54    2
   137   196   193    1
   138   200   199    2
   139   144   142    1
   140   194   193    1
   141   194   197   am
   142    42    43    2
   143    42    41    1
   144   205   203   ar
   145   205   207   ar
   146   180   179   ar
   147   180   178   ar
   148   203   202   ar
   149   193   192    1
   150    40    41    1
   151   179   177   ar
   152   198   199    1
   153   198   197    1
   154   198   201    1
   155    54    53    1
   156   178   176   ar
   157   177   175   ar
   158    41    44    1
   159    44    45    1
   160   176   175   ar
   161   208   207    1
   162   143   141    1
   163   142   141    1
   164   207   206   ar
   165   189   191   ar
   166   189   187   ar
   167   175   174    1
   168   202   201    1
   169   202   204   ar
   170   169   167   ar
   171    53    52    1
   172    53    56    1
   173   192   183   am
   174   191   190   ar
   175    47    45   ar
   176    47    49   ar
   177   141   138    1
   178   174   171    1
   179   159   158    1
   180   159   160    1
   181   184   183    2
   182    45    46   ar
   183   168   167   ar
   184   187   186   ar
   185   173   172    2
   186   167   166    1
   187   183   182    1
   188   206   204   ar
   189   158   155    1
   190    56    57    1
   191    49    50   ar
   192   171   172    1
   193   171   170    1
   194   160   154    1
   195   140   139    2
   196   190   188   ar
   197   155   154    1
   198   155   156    1
   199   138   139    1
   200   138   137    1
   201    46    48   ar
   202   186   188   ar
   203   186   185    1
   204    58    57    1
   205    58    59    1
   206   139   145   am
   207   154   147   am
   208   166   165    1
   209   182   185    1
   210   182   181    1
   211    50    48   ar
   212    50    51    1
   213   161   156   am
   214   161   162    1
   215   145   146    1
   216   156   157    2
   217   147   146    1
   218   147   148    2
   219   165   162    1
   220   146   149    1
   221   164   163    2
   222   162   163    1
   223   153   152    1
   224   151   152    1
   225   151   150    1
   226   149   150    1
