@<TRIPOS>MOLECULE
tmp/3h1iM08.pdb
 99 92 0 0 0
SMALL
GASTEIGER

@<TRIPOS>ATOM
      1  N         35.7940  129.3260   99.3860 N.3    43  THR43      -0.1218
      2  CA        35.3230  130.4960  100.0830 C.3    43  THR43       0.1862
      3  C         35.3370  131.7270   99.1960 C.2    43  THR43       0.2287
      4  O         34.5590  132.6490   99.4050 O.2    43  THR43      -0.2866
      5  CB        36.1400  130.7370  101.3720 C.3    43  THR43       0.1770
      6  OG1       36.2910  129.4970  102.0780 O.3    43  THR43      -0.2211
      7  CG2       35.4050  131.7040  102.2920 C.3    43  THR43       0.0375
      8  N         32.2280  131.3100   96.8000 N.3    46  LEU46      -0.1231
      9  CA        30.9940  131.5310   97.4960 C.3    46  LEU46       0.1693
     10  C         30.7580  133.0300   97.7650 C.2    46  LEU46       0.2592
     11  O         29.8020  133.6240   97.2730 O.2    46  LEU46      -0.2718
     12  CB        31.0080  130.7400   98.8010 C.3    46  LEU46       0.0284
     13  CG        29.8120  129.8150   99.1070 C.3    46  LEU46       0.0019
     14  CD1       28.4920  130.5430   98.7730 C.3    46  LEU46       0.0001
     15  CD2       29.9440  128.5000   98.3140 C.3    46  LEU46       0.0001
     16  N         31.6330  133.6460   98.5480 N.am   47  THR47      -0.1953
     17  CA        31.4800  135.0590   98.8730 C.3    47  THR47       0.1897
     18  C         31.4560  135.8720   97.6070 C.2    47  THR47       0.2313
     19  O         30.8870  136.9520   97.5620 O.2    47  THR47      -0.2863
     20  CB        32.6460  135.5900   99.7340 C.3    47  THR47       0.1794
     21  OG1       33.8760  135.4700   99.0110 O.3    47  THR47      -0.2208
     22  CG2       32.7500  134.8110  101.0340 C.3    47  THR47       0.0378
     23  N         24.4510  141.8110  106.3320 N.3    75  TYR75      -0.1241
     24  CA        25.7460  141.1100  106.4190 C.3    75  TYR75       0.1605
     25  C         26.6770  141.2090  105.2110 C.2    75  TYR75       0.2264
     26  O         27.6460  140.4500  105.1120 O.2    75  TYR75      -0.2867
     27  CB        25.5200  139.6440  106.7500 C.3    75  TYR75       0.0534
     28  CG        24.9600  139.4570  108.1320 C.ar   75  TYR75      -0.0201
     29  CD1       24.0270  138.4640  108.3960 C.ar   75  TYR75      -0.0009
     30  CD2       25.3520  140.2860  109.1800 C.ar   75  TYR75      -0.0009
     31  CE1       23.4830  138.2970  109.6810 C.ar   75  TYR75       0.0417
     32  CE2       24.8170  140.1330  110.4650 C.ar   75  TYR75       0.0417
     33  CZ        23.8750  139.1370  110.7130 C.ar   75  TYR75       0.1957
     34  OH        23.2830  139.0150  111.9640 O.3    75  TYR75      -0.2866
     35  N         30.3040  141.9770  106.0580 N.3    78  LEU78      -0.1245
     36  CA        30.9730  140.7460  106.4900 C.3    78  LEU78       0.1561
     37  C         31.3820  139.9450  105.2740 C.2    78  LEU78       0.2260
     38  O         32.4760  139.3770  105.1950 O.2    78  LEU78      -0.2867
     39  CB        30.0220  139.9080  107.3610 C.3    78  LEU78       0.0270
     40  CG        30.3500  138.4280  107.6260 C.3    78  LEU78       0.0019
     41  CD1       31.8230  138.2770  107.9170 C.3    78  LEU78       0.0001
     42  CD2       29.5060  137.8910  108.7880 C.3    78  LEU78       0.0001
     43  N         35.2220  139.2960  104.2770 N.3    82  LEU82      -0.1245
     44  CA        35.6240  137.9090  104.0700 C.3    82  LEU82       0.1561
     45  C         36.2360  137.6540  102.6990 C.2    82  LEU82       0.2260
     46  O         37.3110  137.0530  102.6140 O.2    82  LEU82      -0.2867
     47  CB        34.4310  136.9860  104.2710 C.3    82  LEU82       0.0270
     48  CG        34.1150  136.7130  105.7250 C.3    82  LEU82       0.0019
     49  CD1       32.8100  135.9830  105.8190 C.3    82  LEU82       0.0001
     50  CD2       35.2400  135.9020  106.3400 C.3    82  LEU82       0.0001
     51  N         39.8930  124.7470  110.7960 N.3   233  THR233     -0.1218
     52  CA        39.6380  125.6860  111.8910 C.3   233  THR233      0.1862
     53  C         40.8520  126.5280  112.2270 C.2   233  THR233      0.2287
     54  O         40.7330  127.7360  112.4110 O.2   233  THR233     -0.2866
     55  CB        39.1930  124.9720  113.1870 C.3   233  THR233      0.1770
     56  OG1       40.0890  123.9000  113.4600 O.3   233  THR233     -0.2211
     57  CG2       37.7770  124.4330  113.0670 C.3   233  THR233      0.0375
     58  N         41.2540  128.9640  109.6010 N.3   236  LEU236     -0.1231
     59  CA        40.0120  129.7100  109.6810 C.3   236  LEU236      0.1693
     60  C         39.9640  130.7330  110.7880 C.2   236  LEU236      0.2592
     61  O         39.1570  131.6510  110.7330 O.2   236  LEU236     -0.2718
     62  CB        38.8250  128.7640  109.8450 C.3   236  LEU236      0.0284
     63  CG        37.6000  129.2010  109.0400 C.3   236  LEU236      0.0019
     64  CD1       37.9800  129.3150  107.5680 C.3   236  LEU236      0.0001
     65  CD2       36.4810  128.2000  109.2210 C.3   236  LEU236      0.0001
     66  N         40.8160  130.5900  111.7930 N.am  237  THR237     -0.1953
     67  CA        40.8080  131.5440  112.8990 C.3   237  THR237      0.1897
     68  C         41.4090  132.9060  112.5610 C.2   237  THR237      0.2313
     69  O         40.6940  133.9060  112.5330 O.2   237  THR237     -0.2863
     70  CB        41.5060  130.9740  114.1540 C.3   237  THR237      0.1794
     71  OG1       40.7270  129.8900  114.6770 O.3   237  THR237     -0.2208
     72  CG2       41.6400  132.0440  115.2220 C.3   237  THR237      0.0378
     73  N         42.1300  134.1830  109.8730 N.3   239  PHE239     -0.1227
     74  CA        41.3580  134.7180  108.7630 C.3   239  PHE239      0.1736
     75  C         40.2130  135.5560  109.3210 C.2   239  PHE239      0.2595
     76  O         40.1770  136.7670  109.1240 O.2   239  PHE239     -0.2718
     77  CB        40.8020  133.5830  107.9120 C.3   239  PHE239      0.0547
     78  CG        39.9410  134.0470  106.7900 C.ar  239  PHE239     -0.0202
     79  CD1       38.7850  133.3610  106.4660 C.ar  239  PHE239     -0.0042
     80  CD2       40.2800  135.1720  106.0520 C.ar  239  PHE239     -0.0042
     81  CE1       37.9740  133.7920  105.4170 C.ar  239  PHE239     -0.0003
     82  CE2       39.4740  135.6100  105.0000 C.ar  239  PHE239     -0.0003
     83  CZ        38.3200  134.9200  104.6830 C.ar  239  PHE239     -0.0000
     84  N         39.2940  134.9060  110.0330 N.am  240  LEU240     -0.1980
     85  CA        38.1520  135.5910  110.6300 C.3   240  LEU240      0.1596
     86  C         38.6100  136.6910  111.5660 C.2   240  LEU240      0.2287
     87  O         38.2190  137.8470  111.4100 O.2   240  LEU240     -0.2864
     88  CB        37.2710  134.6030  111.3950 C.3   240  LEU240      0.0297
     89  CG        36.7330  133.4660  110.5380 C.3   240  LEU240      0.0022
     90  CD1       35.5220  132.8870  111.2130 C.3   240  LEU240      0.0001
     91  CD2       36.3700  133.9790  109.1510 C.3   240  LEU240      0.0001
     92  N         37.3630  140.2280  111.2220 N.3   244  LEU244     -0.1245
     93  CA        36.2890  140.6340  112.1020 C.3   244  LEU244      0.1561
     94  C         36.7240  141.7950  112.9680 C.2   244  LEU244      0.2260
     95  O         35.9110  142.6510  113.3370 O.2   244  LEU244     -0.2867
     96  CB        35.8730  139.4800  113.0060 C.3   244  LEU244      0.0270
     97  CG        34.8890  138.4870  112.4200 C.3   244  LEU244      0.0019
     98  CD1       34.6300  137.3830  113.4200 C.3   244  LEU244      0.0001
     99  CD2       33.6100  139.2070  112.0850 C.3   244  LEU244      0.0001
@<TRIPOS>BOND
     1     8     9    1
     2    11    10    2
     3     9    10    1
     4     9    12    1
     5    19    18    2
     6    18    17    1
     7    10    16   am
     8    15    13    1
     9    16    17    1
    10    14    13    1
    11    12    13    1
    12    17    20    1
    13    21    20    1
    14     3     4    2
    15     3     2    1
    16     1     2    1
    17    20    22    1
    18     2     5    1
    19     5     6    1
    20     5     7    1
    21    46    45    2
    22    45    44    1
    23    44    47    1
    24    44    43    1
    25    47    48    1
    26    83    82   ar
    27    83    81   ar
    28    82    80   ar
    29    26    25    2
    30    38    37    2
    31    25    24    1
    32    37    36    1
    33    81    79   ar
    34    48    49    1
    35    48    50    1
    36    80    78   ar
    37    35    36    1
    38    23    24    1
    39    24    27    1
    40    79    78   ar
    41    36    39    1
    42    27    28    1
    43    78    77    1
    44    39    40    1
    45    64    63    1
    46    40    41    1
    47    40    42    1
    48    77    74    1
    49    28    29   ar
    50    28    30   ar
    51    29    31   ar
    52    74    75    1
    53    74    73    1
    54    63    65    1
    55    63    62    1
    56    76    75    2
    57    91    89    1
    58    30    32   ar
    59    75    84   am
    60    58    59    1
    61    59    62    1
    62    59    60    1
    63    31    33   ar
    64    84    85    1
    65    32    33   ar
    66    89    90    1
    67    89    88    1
    68    85    88    1
    69    85    86    1
    70    33    34    1
    71    61    60    2
    72    60    66   am
    73    51    52    1
    74    92    93    1
    75    87    86    2
    76    66    67    1
    77    52    53    1
    78    52    55    1
    79    99    97    1
    80    93    94    1
    81    93    96    1
    82    53    54    2
    83    97    96    1
    84    97    98    1
    85    69    68    2
    86    68    67    1
    87    67    70    1
    88    94    95    2
    89    57    55    1
    90    55    56    1
    91    70    71    1
    92    70    72    1
