@<TRIPOS>MOLECULE
tmp/3h1kM04.pdb
 182 176 0 0 0
SMALL
GASTEIGER

@<TRIPOS>ATOM
      1  N         46.5450  134.1660   90.4020 N.3   124  MET124     -0.1230
      2  CA        47.1630  135.4800   90.3480 C.3   124  MET124      0.1702
      3  C         46.3580  136.3960   89.4510 C.2   124  MET124      0.2592
      4  O         45.9200  137.4710   89.8760 O.2   124  MET124     -0.2718
      5  CB        48.5980  135.3970   89.8180 C.3   124  MET124      0.0401
      6  CG        49.6540  134.9080   90.8210 C.3   124  MET124      0.0596
      7  SD        51.3880  135.1670   90.2240 S.3   124  MET124     -0.1393
      8  CE        51.8240  136.7200   90.9750 C.3   124  MET124      0.0692
      9  N         46.1660  135.9730   88.2040 N.am  125  ALA125     -0.1980
     10  CA        45.4040  136.7770   87.2620 C.3   125  ALA125      0.1597
     11  C         44.0340  137.1090   87.8730 C.2   125  ALA125      0.2287
     12  O         43.6160  138.2790   87.9100 O.2   125  ALA125     -0.2864
     13  CB        45.2380  136.0230   85.9630 C.3   125  ALA125      0.0319
     14  N         42.8500  137.4030   90.9200 N.3   127  ALA127     -0.1231
     15  CA        42.8560  138.4890   91.9030 C.3   127  ALA127      0.1694
     16  C         42.9990  139.8310   91.1850 C.2   127  ALA127      0.2592
     17  O         42.1760  140.7380   91.3470 O.2   127  ALA127     -0.2718
     18  CB        44.0070  138.3110   92.8740 C.3   127  ALA127      0.0304
     19  N         44.0500  139.9310   90.3770 N.am  128  PHE128     -0.1976
     20  CA        44.3340  141.1440   89.6370 C.3   128  PHE128      0.1639
     21  C         43.1050  141.8440   89.0790 C.2   128  PHE128      0.2290
     22  O         43.0060  143.0730   89.0980 O.2   128  PHE128     -0.2864
     23  CB        45.2810  140.8600   88.4940 C.3   128  PHE128      0.0560
     24  CG        45.6330  142.0750   87.7420 C.ar  128  PHE128     -0.0200
     25  CD1       46.3610  143.0800   88.3540 C.ar  128  PHE128     -0.0042
     26  CD2       45.1850  142.2630   86.4530 C.ar  128  PHE128     -0.0042
     27  CE1       46.6440  144.2740   87.6940 C.ar  128  PHE128     -0.0003
     28  CE2       45.4580  143.4500   85.7750 C.ar  128  PHE128     -0.0003
     29  CZ        46.1910  144.4630   86.3990 C.ar  128  PHE128     -0.0000
     30  N         40.6070  142.9900   91.8060 N.3   131  TYR131     -0.1227
     31  CA        41.0170  144.2120   92.4700 C.3   131  TYR131      0.1736
     32  C         40.4470  145.4300   91.7810 C.2   131  TYR131      0.2595
     33  O         40.0200  146.3720   92.4340 O.2   131  TYR131     -0.2718
     34  CB        42.5500  144.3300   92.5490 C.3   131  TYR131      0.0548
     35  CG        43.0010  145.2240   93.6880 C.ar  131  TYR131     -0.0200
     36  CD1       42.7110  144.8870   95.0160 C.ar  131  TYR131     -0.0009
     37  CD2       43.6430  146.4330   93.4420 C.ar  131  TYR131     -0.0009
     38  CE1       43.0400  145.7380   96.0750 C.ar  131  TYR131      0.0417
     39  CE2       43.9860  147.2970   94.4940 C.ar  131  TYR131      0.0417
     40  CZ        43.6800  146.9450   95.8130 C.ar  131  TYR131      0.1957
     41  OH        44.0160  147.7790   96.8710 O.3   131  TYR131     -0.2866
     42  N         40.4210  145.4240   90.4630 N.am  132  VAL132     -0.1980
     43  CA        39.8970  146.5890   89.7880 C.3   132  VAL132      0.1595
     44  C         38.4200  146.8570   90.0650 C.2   132  VAL132      0.2287
     45  O         38.0010  148.0170   90.1510 O.2   132  VAL132     -0.2864
     46  CB        40.0740  146.4770   88.2920 C.3   132  VAL132      0.0276
     47  CG1       39.5590  147.7310   87.6380 C.3   132  VAL132      0.0022
     48  CG2       41.5220  146.2510   87.9610 C.3   132  VAL132      0.0022
     49  N         43.4440  152.8610   93.9930 N.3   138  MET138     -0.1230
     50  CA        44.3930  151.7840   93.7820 C.3   138  MET138      0.1702
     51  C         43.8600  150.8390   92.7120 C.2   138  MET138      0.2593
     52  O         44.6180  150.3890   91.8440 O.2   138  MET138     -0.2718
     53  CB        44.6630  151.0430   95.0850 C.3   138  MET138      0.0401
     54  CG        46.0760  150.4810   95.1390 C.3   138  MET138      0.0596
     55  SD        47.3970  151.7230   94.7910 S.3   138  MET138     -0.1393
     56  CE        48.1800  151.8740   96.4290 C.3   138  MET138      0.0692
     57  N         42.5580  150.5560   92.7630 N.am  139  SER139     -0.1952
     58  CA        41.9310  149.6880   91.7680 C.3   139  SER139      0.1924
     59  C         42.3530  150.1780   90.4000 C.2   139  SER139      0.2314
     60  O         43.0130  149.4740   89.6160 O.2   139  SER139     -0.2863
     61  CB        40.4040  149.7760   91.8260 C.3   139  SER139      0.2116
     62  OG        39.8780  149.0650   92.9190 O.3   139  SER139     -0.2180
     63  N         46.3030  150.5210   89.7360 N.3   142  GLY142     -0.1210
     64  CA        46.9630  149.2350   89.6710 C.3   142  GLY142      0.1956
     65  C         46.7610  148.6910   88.2650 C.2   142  GLY142      0.2611
     66  O         47.6890  148.1770   87.6190 O.2   142  GLY142     -0.2717
     67  N         45.5220  148.8150   87.7940 N.am  143  ALA143     -0.1979
     68  CA        45.1640  148.3710   86.4600 C.3   143  ALA143      0.1597
     69  C         46.1370  149.0190   85.4780 C.2   143  ALA143      0.2287
     70  O         46.9530  148.3440   84.8450 O.2   143  ALA143     -0.2864
     71  CB        43.7470  148.7990   86.1520 C.3   143  ALA143      0.0319
     72  N         48.9860  150.7950   85.7100 N.3   145  VAL145     -0.1231
     73  CA        50.4180  150.5040   85.7950 C.3   145  VAL145      0.1692
     74  C         50.7460  149.1710   85.1200 C.2   145  VAL145      0.2591
     75  O         51.5620  149.1050   84.1950 O.2   145  VAL145     -0.2718
     76  CB        50.9030  150.4280   87.2660 C.3   145  VAL145      0.0266
     77  CG1       52.4290  150.2000   87.3160 C.3   145  VAL145      0.0020
     78  CG2       50.5420  151.7050   87.9960 C.3   145  VAL145      0.0020
     79  N         50.0910  148.1140   85.5820 N.am  146  ILE146     -0.1980
     80  CA        50.3370  146.8000   85.0360 C.3   146  ILE146      0.1595
     81  C         50.0040  146.7020   83.5690 C.2   146  ILE146      0.2287
     82  O         50.8890  146.5320   82.7430 O.2   146  ILE146     -0.2864
     83  CB        49.5450  145.7260   85.7770 C.3   146  ILE146      0.0276
     84  CG1       50.0840  145.5730   87.2000 C.3   146  ILE146      0.0022
     85  CG2       49.6370  144.4150   85.0290 C.3   146  ILE146      0.0022
     86  CD1       51.5520  145.2530   87.2670 C.3   146  ILE146      0.0001
     87  N         51.7900  153.8980   94.5070 N.3   268  ILE268     -0.1231
     88  CA        50.9810  152.8380   93.9380 C.3   268  ILE268      0.1692
     89  C         51.6580  151.5460   94.2930 C.2   268  ILE268      0.2592
     90  O         52.7390  151.2380   93.7970 O.2   268  ILE268     -0.2718
     91  CB        50.9270  152.8910   92.4190 C.3   268  ILE268      0.0266
     92  CG1       50.2080  154.1530   91.9480 C.3   268  ILE268      0.0019
     93  CG2       50.2270  151.6590   91.9040 C.3   268  ILE268      0.0020
     94  CD1       50.1690  154.2860   90.4290 C.3   268  ILE268      0.0001
     95  N         51.0320  150.7910   95.1690 N.am  269  LYS269     -0.1966
     96  CA        51.6060  149.5290   95.5470 C.3   269  LYS269      0.1713
     97  C         50.4690  148.5470   95.7870 C.2   269  LYS269      0.2458
     98  O         49.4580  148.8850   96.4160 O.2   269  LYS269     -0.2730
     99  CB        52.4900  149.6990   96.7830 C.3   269  LYS269      0.0311
    100  CG        51.7850  150.2200   98.0220 C.3   269  LYS269      0.0038
    101  CD        52.7770  150.3150   99.1880 C.3   269  LYS269      0.0206
    102  CE        52.1050  150.5890  100.5470 C.3   269  LYS269      0.1093
    103  NZ        51.3160  149.4310  101.1000 N.3   269  LYS269     -0.1314
    104  N         50.6150  147.3170   95.2610 N.am  270  PRO270     -0.2716
    105  CA        49.6630  146.2080   95.3470 C.3   270  PRO270      0.1536
    106  C         49.4900  145.6060   96.7200 C.2   270  PRO270      0.2598
    107  O         49.9710  146.1250   97.7100 O.2   270  PRO270     -0.2715
    108  CB        50.2410  145.1980   94.3640 C.3   270  PRO270      0.0310
    109  CG        51.7090  145.3920   94.5360 C.3   270  PRO270      0.0237
    110  CD        51.8090  146.8990   94.4980 C.3   270  PRO270      0.0939
    111  N         48.7770  144.4970   96.7620 N.am  271  GLU271     -0.1978
    112  CA        48.5610  143.7810   98.0030 C.3   271  GLU271      0.1602
    113  C         49.8280  142.9570   98.2540 C.2   271  GLU271      0.2287
    114  O         50.5020  142.5390   97.3090 O.2   271  GLU271     -0.2864
    115  CB        47.3400  142.8650   97.8730 C.3   271  GLU271      0.0415
    116  CG        45.9990  143.5870   97.8060 C.3   271  GLU271      0.1163
    117  CD        45.6680  144.3050   99.1030 C.2   271  GLU271      0.3649
    118  OE1       45.8020  143.6730  100.1820 O.co2 271  GLU271     -0.2457
    119  OE2       45.2710  145.4940   99.0370 O.co2 271  GLU271     -0.2457
    120  N         50.7960  139.9790   98.5850 N.3   273  TYR273     -0.1227
    121  CA        51.0650  138.8290   97.7240 C.3   273  TYR273      0.1736
    122  C         51.5690  139.1080   96.3140 C.2   273  TYR273      0.2595
    123  O         51.9070  138.1840   95.5900 O.2   273  TYR273     -0.2718
    124  CB        49.8460  137.8890   97.6820 C.3   273  TYR273      0.0548
    125  CG        48.5180  138.5310   97.3380 C.ar  273  TYR273     -0.0200
    126  CD1       48.2170  138.9260   96.0220 C.ar  273  TYR273     -0.0009
    127  CD2       47.5460  138.7190   98.3280 C.ar  273  TYR273     -0.0009
    128  CE1       46.9710  139.4910   95.7060 C.ar  273  TYR273      0.0417
    129  CE2       46.3040  139.2830   98.0280 C.ar  273  TYR273      0.0417
    130  CZ        46.0210  139.6670   96.7220 C.ar  273  TYR273      0.1957
    131  OH        44.7950  140.2320   96.4580 O.3   273  TYR273     -0.2866
    132  N         51.6320  140.3680   95.9170 N.am  274  PHE274     -0.1976
    133  CA        52.1580  140.6910   94.5960 C.3   274  PHE274      0.1639
    134  C         53.4160  141.5140   94.7950 C.2   274  PHE274      0.2290
    135  O         54.1860  141.7350   93.8580 O.2   274  PHE274     -0.2864
    136  CB        51.1520  141.5000   93.7730 C.3   274  PHE274      0.0560
    137  CG        50.1050  140.6720   93.1200 C.ar  274  PHE274     -0.0200
    138  CD1       48.8360  141.1800   92.9120 C.ar  274  PHE274     -0.0042
    139  CD2       50.3820  139.3800   92.7260 C.ar  274  PHE274     -0.0042
    140  CE1       47.8550  140.4100   92.3270 C.ar  274  PHE274     -0.0003
    141  CE2       49.4120  138.5990   92.1380 C.ar  274  PHE274     -0.0003
    142  CZ        48.1430  139.1120   91.9390 C.ar  274  PHE274     -0.0000
    143  N         56.8180  140.4430   93.5920 N.3   277  ALA277     -0.1231
    144  CA        56.8780  140.5840   92.1440 C.3   277  ALA277      0.1694
    145  C         57.0610  142.0350   91.7350 C.2   277  ALA277      0.2592
    146  O         57.8800  142.3620   90.8700 O.2   277  ALA277     -0.2718
    147  CB        55.6120  140.0230   91.5260 C.3   277  ALA277      0.0304
    148  N         56.2850  142.9030   92.3680 N.am  278  TYR278     -0.1976
    149  CA        56.3440  144.3280   92.0830 C.3   278  TYR278      0.1639
    150  C         57.7930  144.7630   92.2070 C.2   278  TYR278      0.2290
    151  O         58.3440  145.3910   91.3010 O.2   278  TYR278     -0.2864
    152  CB        55.4510  145.0880   93.0750 C.3   278  TYR278      0.0560
    153  CG        55.1240  146.5100   92.6720 C.ar  278  TYR278     -0.0198
    154  CD1       55.0370  146.8820   91.3270 C.ar  278  TYR278     -0.0009
    155  CD2       54.8770  147.4820   93.6360 C.ar  278  TYR278     -0.0009
    156  CE1       54.7140  148.1960   90.9540 C.ar  278  TYR278      0.0417
    157  CE2       54.5520  148.7970   93.2830 C.ar  278  TYR278      0.0417
    158  CZ        54.4760  149.1500   91.9410 C.ar  278  TYR278      0.1957
    159  OH        54.2020  150.4610   91.5980 O.3   278  TYR278     -0.2866
    160  N         59.8790  143.7260   89.4100 N.3   281  LEU281     -0.1245
    161  CA        59.5490  144.4650   88.2120 C.3   281  LEU281      0.1561
    162  C         60.3240  145.7690   88.1680 C.2   281  LEU281      0.2260
    163  O         61.0070  146.0570   87.1910 O.2   281  LEU281     -0.2867
    164  CB        58.0520  144.7580   88.1640 C.3   281  LEU281      0.0270
    165  CG        57.5980  145.7040   87.0440 C.3   281  LEU281      0.0019
    166  CD1       58.0270  145.1640   85.6840 C.3   281  LEU281      0.0001
    167  CD2       56.0830  145.8760   87.1060 C.3   281  LEU281      0.0001
    168  N         59.5850  140.0930   85.7940 N.3   294  LEU294     -0.1245
    169  CA        58.3440  139.7520   86.4840 C.3   294  LEU294      0.1561
    170  C         57.8850  138.3870   85.9960 C.2   294  LEU294      0.2260
    171  O         57.7210  137.4540   86.7790 O.2   294  LEU294     -0.2867
    172  CB        57.2310  140.7590   86.1860 C.3   294  LEU294      0.0270
    173  CG        55.9240  140.3340   86.8710 C.3   294  LEU294      0.0019
    174  CD1       56.0230  140.7350   88.3300 C.3   294  LEU294      0.0001
    175  CD2       54.6930  140.9610   86.2190 C.3   294  LEU294      0.0001
    176  N         58.0330  134.3790   88.0950 N.3   298  VAL298     -0.1245
    177  CA        57.0470  133.3820   88.4920 C.3   298  VAL298      0.1561
    178  C         57.0970  132.1960   87.5450 C.2   298  VAL298      0.2260
    179  O         56.9290  131.0500   87.9610 O.2   298  VAL298     -0.2867
    180  CB        55.6140  133.9800   88.5240 C.3   298  VAL298      0.0252
    181  CG1       54.6460  133.0850   87.7860 C.3   298  VAL298      0.0019
    182  CG2       55.1600  134.1380   89.9680 C.3   298  VAL298      0.0019
@<TRIPOS>BOND
     1    82    81    2
     2    81    80    1
     3    75    74    2
     4    70    69    2
     5    85    83    1
     6    80    79    1
     7    80    83    1
     8    74    79   am
     9    74    73    1
    10    69    68    1
    11   166   165    1
    12    72    73    1
    13    28    29   ar
    14    28    26   ar
    15    83    84    1
    16   168   169    1
    17    73    76    1
    18    13    10    1
    19   170   169    1
    20   170   171    2
    21    71    68    1
    22   172   169    1
    23   172   173    1
    24   175   173    1
    25    29    27   ar
    26    26    24   ar
    27    68    67    1
    28   173   174    1
    29   165   167    1
    30   165   164    1
    31   163   162    2
    32    84    86    1
    33    10    11    1
    34    10     9    1
    35    76    77    1
    36    76    78    1
    37   178   179    2
    38   178   177    1
    39    66    65    2
    40    47    46    1
    41    27    25   ar
    42    24    25   ar
    43    24    23    1
    44   181   180    1
    45    67    65   am
    46    11    12    2
    47    48    46    1
    48   176   177    1
    49   164   161    1
    50   162   161    1
    51     9     3   am
    52   161   160    1
    53    65    64    1
    54    46    43    1
    55   177   180    1
    56    23    20    1
    57   180   182    1
    58    21    22    2
    59    21    20    1
    60     3     4    2
    61     3     2    1
    62    60    59    2
    63    20    19    1
    64    64    63    1
    65    43    44    1
    66    43    42    1
    67     5     2    1
    68     5     6    1
    69    44    45    2
    70     7     6    1
    71     7     8    1
    72     2     1    1
    73    19    16   am
    74    59    58    1
    75    94    92    1
    76    42    32   am
    77   146   145    2
    78    14    15    1
    79   156   154   ar
    80   156   158   ar
    81    16    17    2
    82    16    15    1
    83   151   150    2
    84   154   153   ar
    85   147   144    1
    86   159   158    1
    87   145   144    1
    88   145   148   am
    89    58    61    1
    90    58    57    1
    91    32    33    2
    92    32    31    1
    93    30    31    1
    94    61    62    1
    95    52    51    2
    96    15    18    1
    97    93    91    1
    98   142   141   ar
    99   142   140   ar
   100   158   157   ar
   101    92    91    1
   102   149   150    1
   103   149   148    1
   104   149   152    1
   105   141   139   ar
   106   144   143    1
   107   140   138   ar
   108    91    88    1
   109    31    34    1
   110    34    35    1
   111   153   152    1
   112   153   155   ar
   113    51    57   am
   114    51    50    1
   115   139   137   ar
   116   138   137   ar
   117   137   136    1
   118   157   155   ar
   119    37    35   ar
   120    37    39   ar
   121    35    36   ar
   122   136   133    1
   123    50    49    1
   124    50    53    1
   125    90    89    2
   126   135   134    2
   127    88    89    1
   128    88    87    1
   129    89    95   am
   130   108   109    1
   131   108   105    1
   132    39    40   ar
   133   110   109    1
   134   110   104    1
   135   133   134    1
   136   133   132    1
   137    55    54    1
   138    55    56    1
   139    36    38   ar
   140    53    54    1
   141    95    96    1
   142   104   105    1
   143   104    97   am
   144   105   106    1
   145    96    97    1
   146    96    99    1
   147   123   122    2
   148   128   126   ar
   149   128   130   ar
   150    97    98    2
   151    40    38   ar
   152    40    41    1
   153   132   122   am
   154   126   125   ar
   155   122   121    1
   156   131   130    1
   157   106   111   am
   158   106   107    2
   159   130   129   ar
   160   111   112    1
   161    99   100    1
   162   114   113    2
   163   125   124    1
   164   125   127   ar
   165   124   121    1
   166   121   120    1
   167   116   115    1
   168   116   117    1
   169   115   112    1
   170   112   113    1
   171   100   101    1
   172   129   127   ar
   173   119   117   ar
   174   117   118   ar
   175   101   102    1
   176   102   103    1
