@<TRIPOS>MOLECULE
tmp/3h1lJ00.pdb
 80 76 0 0 0
SMALL
GASTEIGER

@<TRIPOS>ATOM
      1  N         48.9380  116.7220   48.3090 N.3    11  PHE11      -0.1227
      2  CA        48.2430  115.8760   49.2740 C.3    11  PHE11       0.1736
      3  C         48.9430  114.6960   49.9610 C.2    11  PHE11       0.2595
      4  O         48.4810  114.2450   51.0050 O.2    11  PHE11      -0.2718
      5  CB        46.9660  115.3700   48.6180 C.3    11  PHE11       0.0547
      6  CG        46.1640  116.4430   47.9640 C.ar   11  PHE11      -0.0202
      7  CD1       45.1870  116.1180   47.0370 C.ar   11  PHE11      -0.0042
      8  CD2       46.3820  117.7740   48.2750 C.ar   11  PHE11      -0.0042
      9  CE1       44.4380  117.1040   46.4270 C.ar   11  PHE11      -0.0003
     10  CE2       45.6410  118.7620   47.6720 C.ar   11  PHE11      -0.0003
     11  CZ        44.6620  118.4270   46.7420 C.ar   11  PHE11      -0.0000
     12  N         50.0360  114.1870   49.4080 N.am   12  ARG12      -0.1980
     13  CA        50.7120  113.0370   50.0150 C.3    12  ARG12       0.1597
     14  C         51.3820  113.3540   51.3450 C.2    12  ARG12       0.2287
     15  O         50.9950  112.8240   52.3900 O.2    12  ARG12      -0.2864
     16  CB        51.7410  112.4790   49.0410 C.3    12  ARG12       0.0334
     17  CG        52.1830  111.0670   49.3310 C.3    12  ARG12       0.0492
     18  CD        52.3460  110.2850   48.0270 C.3    12  ARG12       0.2205
     19  NE        53.1360  109.0750   48.2040 N.pl3  12  ARG12      -0.0865
     20  CZ        54.4400  109.0800   48.4650 C.cat  12  ARG12       0.5346
     21  NH1       55.0950  110.2340   48.5700 N.pl3  12  ARG12       0.1354
     22  NH2       55.0840  107.9340   48.6420 N.pl3  12  ARG12       0.1354
     23  N         51.8510  114.9770   54.5440 N.3    14  THR14      -0.1218
     24  CA        51.0340  115.6960   55.5210 C.3    14  THR14       0.1862
     25  C         51.5550  117.0870   55.8940 C.2    14  THR14       0.2287
     26  O         50.8650  117.8450   56.5710 O.2    14  THR14      -0.2866
     27  CB        50.8560  114.8540   56.8110 C.3    14  THR14       0.1770
     28  OG1       50.3380  113.5590   56.4690 O.3    14  THR14      -0.2211
     29  CG2       49.8890  115.5380   57.7680 C.3    14  THR14       0.0375
     30  N         50.5900  119.1900   52.6770 N.3    17  PHE17      -0.1227
     31  CA        49.1360  119.2780   52.6880 C.3    17  PHE17       0.1736
     32  C         48.7490  120.5620   53.4100 C.2    17  PHE17       0.2595
     33  O         47.9240  121.3250   52.9190 O.2    17  PHE17      -0.2718
     34  CB        48.5280  118.0590   53.3880 C.3    17  PHE17       0.0547
     35  CG        47.0200  118.0300   53.3760 C.ar   17  PHE17      -0.0202
     36  CD1       46.2920  118.7610   54.3030 C.ar   17  PHE17      -0.0042
     37  CD2       46.3290  117.2450   52.4520 C.ar   17  PHE17      -0.0042
     38  CE1       44.9000  118.7110   54.3170 C.ar   17  PHE17      -0.0003
     39  CE2       44.9320  117.1880   52.4570 C.ar   17  PHE17      -0.0003
     40  CZ        44.2200  117.9200   53.3910 C.ar   17  PHE17      -0.0000
     41  N         49.3640  120.8130   54.5590 N.am   18  ALA18      -0.1980
     42  CA        49.0780  122.0190   55.3240 C.3    18  ALA18       0.1597
     43  C         49.4080  123.2900   54.5390 C.2    18  ALA18       0.2287
     44  O         48.6090  124.2290   54.4990 O.2    18  ALA18      -0.2864
     45  CB        49.8430  122.0050   56.6140 C.3    18  ALA18       0.0319
     46  N         46.6450  124.0610   52.1690 N.3    21  VAL21      -0.1231
     47  CA        45.4710  124.6010   52.8320 C.3    21  VAL21       0.1692
     48  C         45.6600  126.0900   53.1590 C.2    21  VAL21       0.2591
     49  O         44.7500  126.8920   52.9460 O.2    21  VAL21      -0.2718
     50  CB        45.1650  123.8100   54.1240 C.3    21  VAL21       0.0266
     51  CG1       44.0650  124.4890   54.9280 C.3    21  VAL21       0.0020
     52  CG2       44.7380  122.4060   53.7600 C.3    21  VAL21       0.0020
     53  N         46.8320  126.4660   53.6640 N.am   22  VAL22      -0.1980
     54  CA        47.0900  127.8610   53.9860 C.3    22  VAL22       0.1595
     55  C         47.1810  128.6690   52.7090 C.2    22  VAL22       0.2287
     56  O         46.4340  129.6110   52.4950 O.2    22  VAL22      -0.2864
     57  CB        48.4070  128.0290   54.7470 C.3    22  VAL22       0.0276
     58  CG1       48.7530  129.5070   54.8750 C.3    22  VAL22       0.0022
     59  CG2       48.2910  127.4060   56.1170 C.3    22  VAL22       0.0022
     60  N         43.7050  128.7910   51.2220 N.3    25  ALA25      -0.1231
     61  CA        42.7790  129.6360   51.9600 C.3    25  ALA25       0.1694
     62  C         43.0160  131.1150   51.6330 C.2    25  ALA25       0.2591
     63  O         42.0650  131.8830   51.4870 O.2    25  ALA25      -0.2718
     64  CB        42.9370  129.3990   53.4540 C.3    25  ALA25       0.0304
     65  N         44.2830  131.5120   51.5190 N.am   26  VAL26      -0.1980
     66  CA        44.6250  132.8940   51.2100 C.3    26  VAL26       0.1595
     67  C         44.0400  133.3180   49.8660 C.2    26  VAL26       0.2287
     68  O         43.3670  134.3480   49.7680 O.2    26  VAL26      -0.2864
     69  CB        46.1370  133.0790   51.1650 C.3    26  VAL26       0.0276
     70  CG1       46.4790  134.5160   50.8000 C.3    26  VAL26       0.0022
     71  CG2       46.7270  132.7160   52.5010 C.3    26  VAL26       0.0022
     72  N         40.2080  133.2880   49.8210 N.3    29  GLU29      -0.1245
     73  CA        39.6490  134.4620   50.4700 C.3    29  GLU29       0.1567
     74  C         39.5770  135.6300   49.5020 C.2    29  GLU29       0.2260
     75  O         38.5080  135.9810   48.9960 O.2    29  GLU29      -0.2867
     76  CB        40.4940  134.8630   51.6780 C.3    29  GLU29       0.0388
     77  CG        39.7960  135.8480   52.6030 C.3    29  GLU29       0.1160
     78  CD        40.7130  136.3990   53.6790 C.2    29  GLU29       0.3649
     79  OE1       40.2060  136.9880   54.6590 O.co2  29  GLU29      -0.2457
     80  OE2       41.9430  136.2490   53.5340 O.co2  29  GLU29      -0.2457
@<TRIPOS>BOND
     1     9    11   ar
     2     9     7   ar
     3    11    10   ar
     4     7     6   ar
     5    10     8   ar
     6     6     8   ar
     7     6     5    1
     8    18    19    1
     9    18    17    1
    10    19    20    2
    11     1     2    1
    12    20    21    1
    13    20    22    1
    14     5     2    1
    15    75    74    2
    16    16    17    1
    17    16    13    1
    18     2     3    1
    19    12     3   am
    20    12    13    1
    21    74    73    1
    22    68    67    2
    23    72    73    1
    24    67    66    1
    25     3     4    2
    26    13    14    1
    27    73    76    1
    28    70    69    1
    29    69    66    1
    30    69    71    1
    31    66    65    1
    32    60    61    1
    33    14    15    2
    34    63    62    2
    35    65    62   am
    36    62    61    1
    37    76    77    1
    38    61    64    1
    39    46    47    1
    40    37    39   ar
    41    37    35   ar
    42    39    40   ar
    43    56    55    2
    44    77    78    1
    45    30    31    1
    46    31    34    1
    47    31    32    1
    48    55    54    1
    49    47    48    1
    50    47    50    1
    51    33    32    2
    52    49    48    2
    53    48    53   am
    54    35    34    1
    55    35    36   ar
    56    40    38   ar
    57    32    41   am
    58    80    78   ar
    59    53    54    1
    60    78    79   ar
    61    52    50    1
    62    54    57    1
    63    50    51    1
    64    36    38   ar
    65    44    43    2
    66    43    42    1
    67    23    24    1
    68    41    42    1
    69    57    58    1
    70    57    59    1
    71    42    45    1
    72    24    25    1
    73    24    27    1
    74    25    26    2
    75    28    27    1
    76    27    29    1
