@<TRIPOS>MOLECULE
tmp/3h1lC03.pdb
 182 175 0 0 0
SMALL
GASTEIGER

@<TRIPOS>ATOM
      1  N         16.0730  121.5150   83.1830 N.3   122  LEU122     -0.1245
      2  CA        15.6380  122.5160   84.1440 C.3   122  LEU122      0.1561
      3  C         16.6690  123.6680   84.2450 C.2   122  LEU122      0.2260
      4  O         16.3070  124.8530   84.2180 O.2   122  LEU122     -0.2867
      5  CB        15.3990  121.8620   85.5120 C.3   122  LEU122      0.0270
      6  CG        14.1900  120.9180   85.6030 C.3   122  LEU122      0.0019
      7  CD1       14.0980  120.2860   86.9610 C.3   122  LEU122      0.0001
      8  CD2       12.9360  121.6890   85.3410 C.3   122  LEU122      0.0001
      9  N         16.6670  125.8920   81.2300 N.3   125  MET125     -0.1230
     10  CA        15.4590  126.7190   81.3190 C.3   125  MET125      0.1702
     11  C         15.6770  127.9080   82.2340 C.2   125  MET125      0.2592
     12  O         15.4740  129.0490   81.8340 O.2   125  MET125     -0.2718
     13  CB        14.2710  125.9130   81.8330 C.3   125  MET125      0.0401
     14  CG        13.5870  125.1310   80.7320 C.3   125  MET125      0.0596
     15  SD        12.0280  124.3400   81.1590 S.3   125  MET125     -0.1393
     16  CE        12.5710  122.6600   81.4930 C.3   125  MET125      0.0692
     17  N         16.0850  127.6440   83.4670 N.am  126  ALA126     -0.1980
     18  CA        16.3450  128.7250   84.3940 C.3   126  ALA126      0.1597
     19  C         17.3320  129.7100   83.7680 C.2   126  ALA126      0.2287
     20  O         17.1440  130.9190   83.8550 O.2   126  ALA126     -0.2864
     21  CB        16.9060  128.1850   85.6590 C.3   126  ALA126      0.0319
     22  N         15.9270  131.7850   81.0200 N.3   129  PHE129     -0.1241
     23  CA        14.9690  132.7060   81.5560 C.3   129  PHE129      0.1605
     24  C         15.6580  133.9610   82.0130 C.2   129  PHE129      0.2264
     25  O         15.4350  135.0050   81.4420 O.2   129  PHE129     -0.2867
     26  CB        14.2080  132.0890   82.7010 C.3   129  PHE129      0.0534
     27  CG        13.4050  133.0750   83.4630 C.ar  129  PHE129     -0.0203
     28  CD1       12.5000  133.8880   82.8110 C.ar  129  PHE129     -0.0042
     29  CD2       13.5800  133.2130   84.8330 C.ar  129  PHE129     -0.0042
     30  CE1       11.7860  134.8270   83.5100 C.ar  129  PHE129     -0.0003
     31  CE2       12.8680  134.1460   85.5500 C.ar  129  PHE129     -0.0003
     32  CZ        11.9690  134.9600   84.8940 C.ar  129  PHE129     -0.0000
     33  N         17.0750  136.4230   79.3870 N.3   132  TYR132     -0.1241
     34  CA        15.9540  137.1520   78.7880 C.3   132  TYR132      0.1605
     35  C         15.5300  138.3550   79.6270 C.2   132  TYR132      0.2264
     36  O         14.8810  139.2500   79.1130 O.2   132  TYR132     -0.2867
     37  CB        14.7770  136.1690   78.6270 C.3   132  TYR132      0.0534
     38  CG        13.5240  136.7080   77.9780 C.ar  132  TYR132     -0.0201
     39  CD1       13.5340  137.1900   76.6460 C.ar  132  TYR132     -0.0009
     40  CD2       12.2920  136.7090   78.6660 C.ar  132  TYR132     -0.0009
     41  CE1       12.3080  137.6660   75.9930 C.ar  132  TYR132      0.0417
     42  CE2       11.0610  137.1800   78.0260 C.ar  132  TYR132      0.0417
     43  CZ        11.0890  137.6460   76.6980 C.ar  132  TYR132      0.1957
     44  OH         9.9220  138.0230   76.0890 O.3   132  TYR132     -0.2866
     45  N          9.1070  142.4940   78.4650 N.3   139  MET139     -0.1245
     46  CA         8.9410  141.1060   78.8350 C.3   139  MET139      0.1570
     47  C          9.8630  140.8770   79.9820 C.2   139  MET139      0.2261
     48  O          9.4400  140.3650   81.0170 O.2   139  MET139     -0.2867
     49  CB         9.3070  140.1630   77.7040 C.3   139  MET139      0.0387
     50  CG         8.1920  140.0710   76.6690 C.3   139  MET139      0.0595
     51  SD         6.5180  139.8320   77.4280 S.3   139  MET139     -0.1393
     52  CE         5.4790  139.5960   75.8730 C.3   139  MET139      0.0692
     53  N          8.0660  142.0260   83.2810 N.3   142  TRP142     -0.1227
     54  CA         6.9150  141.2390   83.6520 C.3   142  TRP142      0.1737
     55  C          7.2040  139.7570   83.7550 C.2   142  TRP142      0.2596
     56  O          6.5210  139.0390   84.4830 O.2   142  TRP142     -0.2718
     57  CB         5.7580  141.5480   82.7170 C.3   142  TRP142      0.0564
     58  CG         5.3400  142.9430   82.9340 C.ar  142  TRP142      0.0003
     59  CD1        5.5120  143.9970   82.0870 C.ar  142  TRP142      0.0946
     60  CD2        4.8500  143.4850   84.1560 C.ar  142  TRP142      0.0152
     61  NE1        5.1720  145.1660   82.7140 N.ar  142  TRP142     -0.2442
     62  CE2        4.7610  144.8800   83.9880 C.ar  142  TRP142      0.0810
     63  CE3        4.4850  142.9230   85.3900 C.ar  142  TRP142      0.0012
     64  CZ2        4.3240  145.7290   85.0070 C.ar  142  TRP142      0.0191
     65  CZ3        4.0530  143.7620   86.4100 C.ar  142  TRP142      0.0001
     66  CH2        3.9770  145.1540   86.2110 C.ar  142  TRP142      0.0015
     67  N          8.2250  139.2910   83.0470 N.am  143  GLY143     -0.1957
     68  CA         8.5780  137.8910   83.1730 C.3   143  GLY143      0.1869
     69  C          9.1430  137.6840   84.5820 C.2   143  GLY143      0.2309
     70  O          8.7170  136.7840   85.3430 O.2   143  GLY143     -0.2863
     71  N          6.3820  137.6340   87.2150 N.3   146  VAL146     -0.1231
     72  CA         5.5430  136.4550   87.2950 C.3   146  VAL146      0.1692
     73  C          6.2550  135.2090   87.7940 C.2   146  VAL146      0.2591
     74  O          5.7610  134.4740   88.6700 O.2   146  VAL146     -0.2718
     75  CB         4.9420  136.1540   85.9390 C.3   146  VAL146      0.0266
     76  CG1        4.1030  134.8960   85.9990 C.3   146  VAL146      0.0020
     77  CG2        4.1240  137.3320   85.5010 C.3   146  VAL146      0.0020
     78  N          7.4250  134.9550   87.2330 N.am  147  ILE147     -0.1980
     79  CA         8.1540  133.7680   87.6330 C.3   147  ILE147      0.1595
     80  C          8.6020  133.7980   89.0790 C.2   147  ILE147      0.2287
     81  O          8.3940  132.8230   89.7780 O.2   147  ILE147     -0.2864
     82  CB         9.3010  133.5190   86.6730 C.3   147  ILE147      0.0276
     83  CG1        8.6750  133.1150   85.3190 C.3   147  ILE147      0.0022
     84  CG2       10.2490  132.5050   87.2550 C.3   147  ILE147      0.0022
     85  CD1        9.6110  132.9390   84.1620 C.3   147  ILE147      0.0001
     86  N          5.8840  132.9710   91.4040 N.3   150  LEU150     -0.1245
     87  CA         5.4510  131.6030   91.5110 C.3   150  LEU150      0.1561
     88  C          5.6610  131.0250   92.9160 C.2   150  LEU150      0.2260
     89  O          4.8460  130.2370   93.3780 O.2   150  LEU150     -0.2867
     90  CB         6.2000  130.7600   90.4970 C.3   150  LEU150      0.0270
     91  CG         5.7100  130.8600   89.0610 C.3   150  LEU150      0.0019
     92  CD1        6.7740  130.3070   88.1220 C.3   150  LEU150      0.0001
     93  CD2        4.4060  130.0840   88.9340 C.3   150  LEU150      0.0001
     94  N          1.2830  139.8250   76.3500 N.3   269  ILE269     -0.1231
     95  CA         2.4340  139.2910   77.0480 C.3   269  ILE269      0.1692
     96  C          2.5620  137.7750   76.9930 C.2   269  ILE269      0.2592
     97  O          1.8430  137.0380   77.6580 O.2   269  ILE269     -0.2718
     98  CB         2.4410  139.7580   78.5050 C.3   269  ILE269      0.0266
     99  CG1        3.7830  139.4260   79.1340 C.3   269  ILE269      0.0019
    100  CG2        1.3050  139.1290   79.2760 C.3   269  ILE269      0.0020
    101  CD1        3.8920  139.9030   80.5280 C.3   269  ILE269      0.0001
    102  N          3.5090  137.3240   76.1820 N.am  270  LYS270     -0.1966
    103  CA         3.7960  135.9090   75.9820 C.3   270  LYS270      0.1713
    104  C          5.2530  135.7260   76.4040 C.2   270  LYS270      0.2458
    105  O          5.9810  136.6950   76.5850 O.2   270  LYS270     -0.2730
    106  CB         3.6520  135.5470   74.4870 C.3   270  LYS270      0.0311
    107  CG         2.3640  136.0770   73.7710 C.3   270  LYS270      0.0038
    108  CD         1.0420  135.3610   74.2580 C.3   270  LYS270      0.0206
    109  CE        -0.2890  136.1730   74.0250 C.3   270  LYS270      0.1093
    110  NZ        -0.8630  136.8990   75.2470 N.3   270  LYS270     -0.1314
    111  N          5.6920  134.4800   76.6160 N.am  271  PRO271     -0.2716
    112  CA         7.0830  134.1880   77.0100 C.3   271  PRO271      0.1536
    113  C          7.8430  133.8480   75.7330 C.2   271  PRO271      0.2598
    114  O          7.2910  133.9140   74.6260 O.2   271  PRO271     -0.2715
    115  CB         6.9690  132.9480   77.8820 C.3   271  PRO271      0.0310
    116  CG         5.4640  132.8930   78.2550 C.3   271  PRO271      0.0237
    117  CD         4.7970  133.3970   77.0280 C.3   271  PRO271      0.0939
    118  N          9.1060  133.4790   75.8290 N.am  272  GLU272     -0.1978
    119  CA         9.8130  133.1570   74.5820 C.3   272  GLU272      0.1602
    120  C          9.2170  131.8570   74.0740 C.2   272  GLU272      0.2287
    121  O          8.8010  131.0240   74.8660 O.2   272  GLU272     -0.2864
    122  CB        11.2940  132.9840   74.8610 C.3   272  GLU272      0.0415
    123  CG        12.0520  134.2850   75.0270 C.3   272  GLU272      0.1163
    124  CD        12.1510  135.0740   73.7390 C.2   272  GLU272      0.3649
    125  OE1       11.2040  134.9750   72.9370 O.co2 272  GLU272     -0.2457
    126  OE2       13.1630  135.7960   73.5390 O.co2 272  GLU272     -0.2457
    127  N          8.8800  128.3730   75.9560 N.3   275  PHE275     -0.1241
    128  CA         8.2140  128.1770   77.2220 C.3   275  PHE275      0.1605
    129  C          6.7090  128.1330   77.0660 C.2   275  PHE275      0.2264
    130  O          5.9940  127.6860   77.9660 O.2   275  PHE275     -0.2867
    131  CB         8.5630  129.2810   78.1880 C.3   275  PHE275      0.0534
    132  CG         9.9240  129.1680   78.7630 C.ar  275  PHE275     -0.0203
    133  CD1       10.3910  127.9610   79.2380 C.ar  275  PHE275     -0.0042
    134  CD2       10.7480  130.2820   78.8400 C.ar  275  PHE275     -0.0042
    135  CE1       11.6730  127.8590   79.7850 C.ar  275  PHE275     -0.0003
    136  CE2       12.0280  130.1940   79.3830 C.ar  275  PHE275     -0.0003
    137  CZ        12.4930  128.9810   79.8570 C.ar  275  PHE275     -0.0000
    138  N          4.3160  125.4380   78.3920 N.3   278  ALA278     -0.1231
    139  CA         4.1060  125.3890   79.8410 C.3   278  ALA278      0.1694
    140  C          3.1540  126.5080   80.2100 C.2   278  ALA278      0.2592
    141  O          2.2130  126.3180   80.9660 O.2   278  ALA278     -0.2718
    142  CB         5.4250  125.5540   80.5620 C.3   278  ALA278      0.0304
    143  N          3.4170  127.6760   79.6440 N.am  279  TYR279     -0.1976
    144  CA         2.5980  128.8650   79.8360 C.3   279  TYR279      0.1639
    145  C          1.1710  128.4940   79.5120 C.2   279  TYR279      0.2290
    146  O          0.2290  128.9760   80.1350 O.2   279  TYR279     -0.2864
    147  CB         3.0520  129.9420   78.8680 C.3   279  TYR279      0.0560
    148  CG         2.2710  131.2240   78.9050 C.ar  279  TYR279     -0.0198
    149  CD1        1.9760  131.8520   80.1040 C.ar  279  TYR279     -0.0009
    150  CD2        1.9280  131.8690   77.7230 C.ar  279  TYR279     -0.0009
    151  CE1        1.3610  133.1010   80.1220 C.ar  279  TYR279      0.0417
    152  CE2        1.3190  133.1140   77.7230 C.ar  279  TYR279      0.0417
    153  CZ         1.0330  133.7260   78.9190 C.ar  279  TYR279      0.1957
    154  OH         0.3920  134.9510   78.8920 O.3   279  TYR279     -0.2866
    155  N         -0.2010  126.4210   82.4210 N.3   282  LEU282     -0.1245
    156  CA        -0.4170  127.3030   83.5730 C.3   282  LEU282      0.1561
    157  C         -1.7570  128.0310   83.4960 C.2   282  LEU282      0.2260
    158  O         -2.4450  128.2180   84.5140 O.2   282  LEU282     -0.2867
    159  CB         0.6970  128.3460   83.6480 C.3   282  LEU282      0.0270
    160  CG         0.5520  129.3580   84.7770 C.3   282  LEU282      0.0019
    161  CD1        0.6890  128.6280   86.0760 C.3   282  LEU282      0.0001
    162  CD2        1.6060  130.4450   84.6610 C.3   282  LEU282      0.0001
    163  N          2.0660  123.2730   86.2200 N.3   295  LEU295     -0.1231
    164  CA         3.2270  123.8070   85.5340 C.3   295  LEU295      0.1693
    165  C          4.4620  123.0220   85.9430 C.2   295  LEU295      0.2591
    166  O          5.2080  122.5240   85.0930 O.2   295  LEU295     -0.2718
    167  CB         3.4270  125.2770   85.8940 C.3   295  LEU295      0.0284
    168  CG         4.7290  125.8800   85.3710 C.3   295  LEU295      0.0019
    169  CD1        4.8800  125.5870   83.8920 C.3   295  LEU295      0.0001
    170  CD2        4.7390  127.3710   85.6190 C.3   295  LEU295      0.0001
    171  N          4.6790  122.9210   87.2520 N.am  296  ALA296     -0.1980
    172  CA         5.8250  122.1970   87.7770 C.3   296  ALA296      0.1597
    173  C          5.8140  120.8170   87.1690 C.2   296  ALA296      0.2287
    174  O          6.7380  120.4160   86.4870 O.2   296  ALA296     -0.2864
    175  CB         5.7250  122.1060   89.2640 C.3   296  ALA296      0.0319
    176  N          6.9630  119.5450   83.5640 N.3   299  VAL299     -0.1245
    177  CA         8.3620  119.2470   83.2280 C.3   299  VAL299      0.1561
    178  C          8.8840  118.1370   84.1270 C.2   299  VAL299      0.2260
    179  O          9.5290  117.1890   83.6810 O.2   299  VAL299     -0.2867
    180  CB         9.2650  120.4740   83.4230 C.3   299  VAL299      0.0252
    181  CG1       10.7220  120.0440   83.3750 C.3   299  VAL299      0.0019
    182  CG2        8.9690  121.5330   82.3430 C.3   299  VAL299      0.0019
@<TRIPOS>BOND
     1   125   124   ar
     2   126   124   ar
     3   124   123    1
     4   107   108    1
     5   107   106    1
     6   109   108    1
     7   109   110    1
     8   120   119    1
     9   120   121    2
    10   106   103    1
    11   119   122    1
    12   119   118    1
    13   114   113    2
    14   122   123    1
    15   113   118   am
    16   113   112    1
    17    52    51    1
    18   127   128    1
    19   103   102    1
    20   103   104    1
    21    41    39   ar
    22    41    43   ar
    23    44    43    1
    24   102    96   am
    25    94    95    1
    26   104   105    2
    27   104   111   am
    28   111   112    1
    29   111   117    1
    30    39    38   ar
    31    50    51    1
    32    50    49    1
    33    43    42   ar
    34    96    95    1
    35    96    97    2
    36   112   115    1
    37   117   116    1
    38    95    98    1
    39   129   128    1
    40   129   130    2
    41   128   131    1
    42    49    46    1
    43   152   150   ar
    44   152   153   ar
    45   150   148   ar
    46   115   116    1
    47    38    37    1
    48    38    40   ar
    49    42    40   ar
    50   131   132    1
    51   138   139    1
    52    45    46    1
    53    98    99    1
    54    98   100    1
    55    37    34    1
    56   132   134   ar
    57   132   133   ar
    58    34    33    1
    59    34    35    1
    60    46    47    1
    61   134   136   ar
    62   147   148    1
    63   147   144    1
    64   154   153    1
    65   148   149   ar
    66   153   151   ar
    67    36    35    2
    68    99   101    1
    69   133   135   ar
    70   136   137   ar
    71   145   144    1
    72   145   146    2
    73   143   144    1
    74   143   140   am
    75   135   137   ar
    76   139   140    1
    77   139   142    1
    78    47    48    2
    79   149   151   ar
    80   140   141    2
    81    14    15    1
    82    14    13    1
    83    22    23    1
    84    15    16    1
    85     9    10    1
    86    10    13    1
    87    10    11    1
    88    25    24    2
    89    23    24    1
    90    23    26    1
    91    12    11    2
    92    59    61   ar
    93    59    58   ar
    94    11    17   am
    95   182   180    1
    96   155   156    1
    97    26    27    1
    98    61    62   ar
    99    57    58    1
   100    57    54    1
   101    28    27   ar
   102    28    30   ar
   103    58    60   ar
   104    67    68    1
   105    67    55   am
   106    68    69    1
   107     1     2    1
   108   177   180    1
   109   177   176    1
   110   177   178    1
   111    53    54    1
   112   181   180    1
   113    27    29   ar
   114    17    18    1
   115   157   156    1
   116   157   158    2
   117    30    32   ar
   118   156   159    1
   119   159   160    1
   120    54    55    1
   121   179   178    2
   122    55    56    2
   123    19    20    2
   124    19    18    1
   125   169   168    1
   126    62    60   ar
   127    62    64   ar
   128     2     3    1
   129     2     5    1
   130    60    63   ar
   131    85    83    1
   132     4     3    2
   133    18    21    1
   134    69    70    2
   135   162   160    1
   136   160   161    1
   137    29    31   ar
   138    32    31   ar
   139    64    66   ar
   140   166   165    2
   141    83    82    1
   142     8     6    1
   143   168   170    1
   144   168   167    1
   145    63    65   ar
   146    77    75    1
   147     5     6    1
   148   164   167    1
   149   164   165    1
   150   164   163    1
   151     6     7    1
   152    75    76    1
   153    75    72    1
   154   165   171   am
   155    66    65   ar
   156   174   173    2
   157    82    84    1
   158    82    79    1
   159   173   172    1
   160    71    72    1
   161    78    79    1
   162    78    73   am
   163   171   172    1
   164    72    73    1
   165    79    80    1
   166   172   175    1
   167    73    74    2
   168    92    91    1
   169    93    91    1
   170    91    90    1
   171    80    81    2
   172    90    87    1
   173    86    87    1
   174    87    88    1
   175    88    89    2
