@<TRIPOS>MOLECULE
tmp/3h1lC04.pdb
 171 163 0 0 0
SMALL
GASTEIGER

@<TRIPOS>ATOM
      1  N         40.9490  112.3600   76.5690 N.3    15  ILE15      -0.1245
      2  CA        40.4170  112.8540   75.3050 C.3    15  ILE15       0.1561
      3  C         40.2380  111.6310   74.4210 C.2    15  ILE15       0.2260
      4  O         39.2670  111.5240   73.6720 O.2    15  ILE15      -0.2867
      5  CB        41.3810  113.8140   74.5920 C.3    15  ILE15       0.0252
      6  CG1       41.6770  115.0130   75.4820 C.3    15  ILE15       0.0019
      7  CG2       40.7540  114.3220   73.3070 C.3    15  ILE15       0.0019
      8  CD1       42.4730  114.6790   76.7080 C.3    15  ILE15       0.0001
      9  N         37.4250  108.8930   75.8210 N.3    18  SER18      -0.1202
     10  CA        36.0450  109.3520   75.8920 C.3    18  SER18       0.2020
     11  C         35.5770  110.0480   74.6090 C.2    18  SER18       0.2618
     12  O         34.5040  110.6530   74.5800 O.2    18  SER18      -0.2717
     13  CB        35.8620  110.2690   77.1070 C.3    18  SER18       0.2103
     14  OG        36.8620  111.2650   77.1520 O.3    18  SER18      -0.2182
     15  N         36.3670  109.9360   73.5460 N.am   19  LEU19      -0.1979
     16  CA        36.0180  110.5530   72.2780 C.3    19  LEU19       0.1596
     17  C         37.0500  110.2820   71.2100 C.2    19  LEU19       0.2287
     18  O         37.5990  111.2270   70.6530 O.2    19  LEU19      -0.2864
     19  CB        35.8970  112.0730   72.4260 C.3    19  LEU19       0.0297
     20  CG        34.5530  112.7720   72.6540 C.3    19  LEU19       0.0022
     21  CD1       34.8010  114.2690   72.7240 C.3    19  LEU19       0.0001
     22  CD2       33.5850  112.4700   71.5400 C.3    19  LEU19       0.0001
     23  N         36.3820  105.5230   71.7870 N.3    22  LEU22      -0.1231
     24  CA        35.1090  105.1970   72.4080 C.3    22  LEU22       0.1678
     25  C         34.2850  104.2390   71.5610 C.2    22  LEU22       0.2434
     26  O         34.1280  104.4210   70.3640 O.2    22  LEU22      -0.2733
     27  CB        34.3230  106.4810   72.6580 C.3    22  LEU22       0.0284
     28  CG        33.1050  106.4040   73.5800 C.3    22  LEU22       0.0019
     29  CD1       33.5160  105.9090   74.9620 C.3    22  LEU22       0.0001
     30  CD2       32.4620  107.7870   73.6610 C.3    22  LEU22       0.0001
     31  N         33.7700  103.1830   72.1760 N.am   23  PRO23      -0.2718
     32  CA        32.9580  102.1880   71.4800 C.3    23  PRO23       0.1535
     33  C         31.5370  102.6970   71.2160 C.2    23  PRO23       0.2598
     34  O         30.7580  102.9340   72.1490 O.2    23  PRO23      -0.2715
     35  CB        32.9710  100.9990   72.4410 C.3    23  PRO23       0.0310
     36  CG        34.2720  101.1710   73.1650 C.3    23  PRO23       0.0237
     37  CD        34.2660  102.6440   73.4460 C.3    23  PRO23       0.0939
     38  N         31.1940  102.8480   69.9420 N.am   24  ALA24      -0.1978
     39  CA        29.8810  103.3420   69.5390 C.3    24  ALA24       0.1597
     40  C         29.1510  102.3330   68.6610 C.2    24  ALA24       0.2287
     41  O         29.7620  101.6890   67.8020 O.2    24  ALA24      -0.2864
     42  CB        30.0500  104.6460   68.7870 C.3    24  ALA24       0.0319
     43  N         23.7930  104.0050   64.9350 N.3    28  ILE28      -0.1245
     44  CA        23.0310  105.0920   65.5110 C.3    28  ILE28       0.1561
     45  C         22.6920  106.0560   64.3990 C.2    28  ILE28       0.2260
     46  O         23.5580  106.4350   63.6000 O.2    28  ILE28      -0.2867
     47  CB        23.7660  105.8260   66.6580 C.3    28  ILE28       0.0252
     48  CG1       25.2880  105.7950   66.4500 C.3    28  ILE28       0.0019
     49  CG2       23.3190  105.2350   67.9800 C.3    28  ILE28       0.0019
     50  CD1       26.0750  106.6070   67.4540 C.3    28  ILE28       0.0001
     51  N         20.9010  110.7620   66.9970 N.3    32  TRP32      -0.1241
     52  CA        21.9130  110.7020   68.0240 C.3    32  TRP32       0.1605
     53  C         22.8890  111.8680   67.9070 C.2    32  TRP32       0.2264
     54  O         23.7380  112.0360   68.7620 O.2    32  TRP32      -0.2867
     55  CB        22.6540  109.3750   67.9300 C.3    32  TRP32       0.0550
     56  CG        22.1250  108.3330   68.8280 C.ar   32  TRP32       0.0003
     57  CD1       22.7000  107.8950   69.9680 C.ar   32  TRP32       0.0946
     58  CD2       20.8850  107.6390   68.7120 C.ar   32  TRP32       0.0152
     59  NE1       21.9040  106.9760   70.5820 N.ar   32  TRP32      -0.2442
     60  CE2       20.7750  106.7990   69.8330 C.ar   32  TRP32       0.0810
     61  CE3       19.8500  107.6440   67.7730 C.ar   32  TRP32       0.0012
     62  CZ2       19.6640  105.9670   70.0490 C.ar   32  TRP32       0.0191
     63  CZ3       18.7350  106.8030   67.9930 C.ar   32  TRP32       0.0001
     64  CH2       18.6620  105.9850   69.1180 C.ar   32  TRP32       0.0015
     65  N         23.3070  115.1140   70.7600 N.3    35  GLY35      -0.1210
     66  CA        24.1740  115.2010   71.9160 C.3    35  GLY35       0.1956
     67  C         25.2830  116.2190   71.6590 C.2    35  GLY35       0.2612
     68  O         25.4790  117.1810   72.4120 O.2    35  GLY35      -0.2717
     69  N         26.0120  116.0220   70.5680 N.am   36  SER36      -0.1952
     70  CA        27.1000  116.9230   70.2490 C.3    36  SER36       0.1924
     71  C         26.6250  118.3400   69.9740 C.2    36  SER36       0.2314
     72  O         27.2510  119.3080   70.4180 O.2    36  SER36      -0.2863
     73  CB        27.8890  116.3970   69.0560 C.3    36  SER36       0.2116
     74  OG        27.0430  116.1870   67.9490 O.3    36  SER36      -0.2180
     75  N         26.0720  120.0140   73.0120 N.3    39  ALA39      -0.1231
     76  CA        27.3890  120.3060   73.5570 C.3    39  ALA39       0.1694
     77  C         27.9670  121.5200   72.8700 C.2    39  ALA39       0.2591
     78  O         28.3810  122.4670   73.5320 O.2    39  ALA39      -0.2718
     79  CB        28.2880  119.1450   73.3580 C.3    39  ALA39       0.0304
     80  N         27.9950  121.5000   71.5440 N.am   40  VAL40      -0.1980
     81  CA        28.5250  122.6280   70.7980 C.3    40  VAL40       0.1595
     82  C         27.8130  123.9190   71.1570 C.2    40  VAL40       0.2287
     83  O         28.4540  124.9440   71.3400 O.2    40  VAL40      -0.2864
     84  CB        28.3930  122.4090   69.3180 C.3    40  VAL40       0.0276
     85  CG1       28.9940  123.5690   68.5640 C.3    40  VAL40       0.0022
     86  CG2       29.0700  121.1210   68.9540 C.3    40  VAL40       0.0022
     87  N         27.4230  112.6500   80.5970 N.3   198  LEU198     -0.1245
     88  CA        28.2460  111.8410   79.7340 C.3   198  LEU198      0.1561
     89  C         29.0260  110.7620   80.4650 C.2   198  LEU198      0.2260
     90  O         29.3920  109.7550   79.8830 O.2   198  LEU198     -0.2867
     91  CB        29.2010  112.7270   78.9870 C.3   198  LEU198      0.0270
     92  CG        28.5200  113.4080   77.8240 C.3   198  LEU198      0.0019
     93  CD1       29.4700  114.3490   77.0790 C.3   198  LEU198      0.0001
     94  CD2       28.0420  112.2950   76.9180 C.3   198  LEU198      0.0001
     95  N         26.6390  107.9090   81.2390 N.3   201  LEU201     -0.1231
     96  CA        26.4110  107.2860   79.9520 C.3   201  LEU201      0.1693
     97  C         27.4580  106.2120   79.8020 C.2   201  LEU201      0.2592
     98  O         27.1420  105.0340   79.8990 O.2   201  LEU201     -0.2718
     99  CB        26.5380  108.2920   78.7960 C.3   201  LEU201      0.0284
    100  CG        26.2580  107.6860   77.4120 C.3   201  LEU201      0.0019
    101  CD1       24.8160  107.2460   77.3620 C.3   201  LEU201      0.0001
    102  CD2       26.5430  108.6820   76.3130 C.3   201  LEU201      0.0001
    103  N         28.7100  106.6350   79.6320 N.am  202  HIS202     -0.1976
    104  CA        29.8330  105.7320   79.4240 C.3   202  HIS202      0.1656
    105  C         29.8600  104.4140   80.1560 C.2   202  HIS202      0.2291
    106  O         30.5090  103.4920   79.6980 O.2   202  HIS202     -0.2864
    107  CB        31.1450  106.4590   79.6600 C.3   202  HIS202      0.0771
    108  CG        31.4170  107.5410   78.6600 C.ar  202  HIS202      0.0820
    109  ND1       32.6740  108.0710   78.4600 N.ar  202  HIS202     -0.2267
    110  CD2       30.5930  108.2030   77.8110 C.ar  202  HIS202      0.1154
    111  CE1       32.6130  109.0130   77.5330 C.ar  202  HIS202      0.1986
    112  NE2       31.3610  109.1140   77.1220 N.ar  202  HIS202     -0.2212
    113  N         26.1520  103.8030   74.3290 N.3   206  SER206     -0.1217
    114  CA        24.9710  104.3500   73.7020 C.3   206  SER206      0.1889
    115  C         23.9710  103.2810   73.3820 C.2   206  SER206      0.2288
    116  O         24.2770  102.0930   73.2670 O.2   206  SER206     -0.2866
    117  CB        25.3200  105.0720   72.4230 C.3   206  SER206      0.2089
    118  OG        26.0000  106.2460   72.7400 O.3   206  SER206     -0.2183
    119  N         34.4350  105.7150   67.8450 N.3   221  PHE221     -0.1241
    120  CA        33.7950  107.0080   67.6290 C.3   221  PHE221      0.1605
    121  C         34.4260  107.7780   66.4740 C.2   221  PHE221      0.2264
    122  O         33.7330  108.3180   65.6100 O.2   221  PHE221     -0.2867
    123  CB        33.8970  107.8540   68.8760 C.3   221  PHE221      0.0534
    124  CG        33.3950  109.2390   68.6890 C.ar  221  PHE221     -0.0203
    125  CD1       32.0490  109.5340   68.8890 C.ar  221  PHE221     -0.0042
    126  CD2       34.2660  110.2550   68.3000 C.ar  221  PHE221     -0.0042
    127  CE1       31.5710  110.8340   68.7080 C.ar  221  PHE221     -0.0003
    128  CE2       33.8080  111.5620   68.1130 C.ar  221  PHE221     -0.0003
    129  CZ        32.4550  111.8570   68.3170 C.ar  221  PHE221     -0.0000
    130  N         31.7810  108.6430   63.9020 N.3   225  TYR225     -0.1227
    131  CA        30.8880  109.6440   64.4400 C.3   225  TYR225      0.1736
    132  C         31.4460  111.0360   64.5770 C.2   225  TYR225      0.2596
    133  O         30.6890  111.9840   64.7590 O.2   225  TYR225     -0.2718
    134  CB        30.3130  109.1630   65.7660 C.3   225  TYR225      0.0548
    135  CG        29.4760  107.9350   65.5640 C.ar  225  TYR225     -0.0200
    136  CD1       29.8990  106.6880   66.0080 C.ar  225  TYR225     -0.0009
    137  CD2       28.3260  107.9960   64.7940 C.ar  225  TYR225     -0.0009
    138  CE1       29.1980  105.5340   65.6680 C.ar  225  TYR225      0.0417
    139  CE2       27.6200  106.8590   64.4540 C.ar  225  TYR225      0.0417
    140  CZ        28.0540  105.6300   64.8810 C.ar  225  TYR225      0.1957
    141  OH        27.3520  104.5060   64.4800 O.3   225  TYR225     -0.2866
    142  N         32.7580  111.1920   64.5010 N.am  226  SER226     -0.1952
    143  CA        33.3120  112.5400   64.5900 C.3   226  SER226      0.1924
    144  C         32.9600  113.2490   63.2730 C.2   226  SER226      0.2314
    145  O         32.5420  114.4100   63.2710 O.2   226  SER226     -0.2863
    146  CB        34.8300  112.4900   64.8030 C.3   226  SER226      0.2116
    147  OG        35.4210  111.5180   63.9670 O.3   226  SER226     -0.2180
    148  N         29.2560  113.8890   63.0690 N.3   229  ASP229     -0.1225
    149  CA        28.8690  115.0490   63.8620 C.3   229  ASP229      0.1805
    150  C         29.3200  116.3690   63.2550 C.2   229  ASP229      0.2597
    151  O         28.6900  117.3970   63.4630 O.2   229  ASP229     -0.2718
    152  CB        29.4210  114.9350   65.2670 C.3   229  ASP229      0.1424
    153  CG        28.7390  113.8540   66.0480 C.2   229  ASP229      0.3668
    154  OD1       28.9920  113.7450   67.2750 O.co2 229  ASP229     -0.2456
    155  OD2       27.9450  113.1120   65.4180 O.co2 229  ASP229     -0.2456
    156  N         30.4170  116.3560   62.5170 N.am  230  ILE230     -0.1980
    157  CA        30.8800  117.5850   61.9040 C.3   230  ILE230      0.1595
    158  C         29.8190  117.9840   60.9040 C.2   230  ILE230      0.2287
    159  O         29.4530  119.1480   60.7980 O.2   230  ILE230     -0.2864
    160  CB        32.2190  117.3740   61.1750 C.3   230  ILE230      0.0276
    161  CG1       33.3050  117.0490   62.1950 C.3   230  ILE230      0.0022
    162  CG2       32.6020  118.6310   60.3780 C.3   230  ILE230      0.0022
    163  CD1       33.5840  118.1790   63.1070 C.3   230  ILE230      0.0001
    164  N         26.6690  119.1600   62.2490 N.3   233  LEU233     -0.1245
    165  CA        26.8740  120.5120   62.7400 C.3   233  LEU233      0.1561
    166  C         26.6040  121.5010   61.6170 C.2   233  LEU233      0.2260
    167  O         25.8270  122.4430   61.7830 O.2   233  LEU233     -0.2867
    168  CB        28.3150  120.6810   63.2360 C.3   233  LEU233      0.0270
    169  CG        28.6880  122.0340   63.8340 C.3   233  LEU233      0.0019
    170  CD1       28.3230  122.0650   65.3010 C.3   233  LEU233      0.0001
    171  CD2       30.1680  122.2610   63.6690 C.3   233  LEU233      0.0001
@<TRIPOS>BOND
     1   162   160    1
     2   159   158    2
     3   158   157    1
     4   160   157    1
     5   160   161    1
     6   166   167    2
     7   166   165    1
     8   157   156    1
     9   161   163    1
    10   164   165    1
    11   156   150   am
    12   165   168    1
    13   148   149    1
    14   168   169    1
    15   150   151    2
    16   150   149    1
    17   145   144    2
    18   144   143    1
    19    46    45    2
    20   171   169    1
    21   169   170    1
    22   149   152    1
    23   130   131    1
    24   147   146    1
    25    45    44    1
    26   131   132    1
    27   131   134    1
    28   139   137   ar
    29   139   140   ar
    30   141   140    1
    31   142   132   am
    32   142   143    1
    33   132   133    2
    34   143   146    1
    35   137   135   ar
    36   140   138   ar
    37    43    44    1
    38   152   153    1
    39   155   153   ar
    40    44    47    1
    41   135   134    1
    42   135   136   ar
    43   122   121    2
    44   138   136   ar
    45   153   154   ar
    46    48    47    1
    47    48    50    1
    48   121   120    1
    49    47    49    1
    50    51    52    1
    51   120   119    1
    52   120   123    1
    53    61    63   ar
    54    61    58   ar
    55    41    40    2
    56    53    52    1
    57    53    54    2
    58    55    52    1
    59    55    56    1
    60    74    73    1
    61    63    64   ar
    62   128   126   ar
    63   128   129   ar
    64   126   124   ar
    65   129   127   ar
    66    85    84    1
    67    40    39    1
    68   124   123    1
    69   124   125   ar
    70   127   125   ar
    71    58    56   ar
    72    58    60   ar
    73    42    39    1
    74    56    57   ar
    75    86    84    1
    76    73    70    1
    77    64    62   ar
    78    84    81    1
    79    39    38    1
    80    60    62   ar
    81    60    59   ar
    82    38    33   am
    83    57    59   ar
    84    71    70    1
    85    71    72    2
    86    70    69    1
    87    26    25    2
    88    69    67   am
    89    18    17    2
    90    65    66    1
    91    81    82    1
    92    81    80    1
    93    82    83    2
    94    17    16    1
    95    33    32    1
    96    33    34    2
    97    32    31    1
    98    32    35    1
    99    22    20    1
   100    80    77   am
   101    25    31   am
   102    25    24    1
   103    67    66    1
   104    67    68    2
   105    23    24    1
   106    31    37    1
   107    16    19    1
   108    16    15    1
   109    24    27    1
   110   117   118    1
   111   117   114    1
   112    19    20    1
   113    35    36    1
   114    20    21    1
   115    27    28    1
   116    77    78    2
   117    77    76    1
   118    75    76    1
   119    36    37    1
   120   116   115    2
   121     7     5    1
   122    79    76    1
   123   115   114    1
   124    15    11   am
   125    28    30    1
   126    28    29    1
   127     4     3    2
   128   114   113    1
   129     3     2    1
   130    12    11    2
   131     5     2    1
   132     5     6    1
   133    11    10    1
   134     2     1    1
   135     6     8    1
   136     9    10    1
   137    10    13    1
   138   102   100    1
   139    94    92    1
   140    93    92    1
   141    13    14    1
   142   112   111   ar
   143   112   110   ar
   144   101   100    1
   145   100    99    1
   146   111   109   ar
   147   110   108   ar
   148    92    91    1
   149   109   108   ar
   150   108   107    1
   151    99    96    1
   152    91    88    1
   153   104   103    1
   154   104   107    1
   155   104   105    1
   156   103    97   am
   157   106   105    2
   158    88    89    1
   159    88    87    1
   160    97    98    2
   161    97    96    1
   162    90    89    2
   163    96    95    1
