@<TRIPOS>MOLECULE
tmp/3h1pB00.pdb
 185 185 0 0 0
SMALL
GASTEIGER

@<TRIPOS>ATOM
      1  N        -29.9220   -9.9220    9.6360 N.3    28  MET28      -0.1245
      2  CA       -29.1530   -8.9300   10.3710 C.3    28  MET28       0.1570
      3  C        -28.2050   -9.5270   11.3930 C.2    28  MET28       0.2261
      4  O        -28.5390  -10.5110   12.0520 O.2    28  MET28      -0.2867
      5  CB       -30.1020   -7.9720   11.0360 C.3    28  MET28       0.0387
      6  CG       -30.8750   -7.1620   10.0320 C.3    28  MET28       0.0595
      7  SD       -29.8100   -6.1150    9.0200 S.3    28  MET28      -0.1393
      8  CE       -29.9900   -6.9190    7.4230 C.3    28  MET28       0.0692
      9  N        -25.4520   -9.2580   14.8310 N.3    30  VAL30      -0.1231
     10  CA       -25.2350   -8.6670   16.1490 C.3    30  VAL30       0.1692
     11  C        -24.7040   -7.2890   15.9590 C.2    30  VAL30       0.2592
     12  O        -23.8970   -7.0860   15.1060 O.2    30  VAL30      -0.2718
     13  CB       -24.2630   -9.5340   16.9480 C.3    30  VAL30       0.0266
     14  CG1      -23.9660   -8.9270   18.2410 C.3    30  VAL30       0.0020
     15  CG2      -24.9610  -10.8260   17.2460 C.3    30  VAL30       0.0020
     16  N        -25.1720   -6.3220   16.7270 N.am   31  ARG31      -0.1966
     17  CA       -24.6500   -4.9560   16.5520 C.3    31  ARG31       0.1729
     18  C        -23.6710   -4.7260   17.6840 C.2    31  ARG31       0.2616
     19  O        -24.0070   -4.0840   18.6460 O.2    31  ARG31      -0.2715
     20  CB       -25.7550   -3.8620   16.5370 C.3    31  ARG31       0.0348
     21  CG       -27.0070   -4.1930   15.6650 C.3    31  ARG31       0.0492
     22  CD       -27.9890   -3.0320   15.5320 C.3    31  ARG31       0.2205
     23  NE       -27.3190   -1.7310   15.6320 N.pl3  31  ARG31      -0.0865
     24  CZ       -27.3720   -0.9250   16.6950 C.cat  31  ARG31       0.5346
     25  NH1      -28.0670   -1.2820   17.7640 N.pl3  31  ARG31       0.1354
     26  NH2      -26.7410    0.2430   16.6830 N.pl3  31  ARG31       0.1354
     27  N        -22.4610   -5.2550   17.6060 N.am   32  ASN32      -0.1972
     28  CA       -21.5520   -4.9540   18.6910 C.3    32  ASN32       0.1688
     29  C        -21.2430   -3.4960   18.8040 C.2    32  ASN32       0.2292
     30  O        -21.2650   -2.7890   17.8130 O.2    32  ASN32      -0.2864
     31  CB       -20.2830   -5.7700   18.6070 C.3    32  ASN32       0.1181
     32  CG       -20.5740   -7.2310   18.5820 C.2    32  ASN32       0.2629
     33  OD1      -21.2510   -7.7560   19.4450 O.2    32  ASN32      -0.2716
     34  ND2      -20.1090   -7.8860   17.5580 N.am   32  ASN32      -0.0877
     35  N        -30.6470    0.4440   16.3860 N.3    87  SER87      -0.1202
     36  CA       -30.9650   -0.7850   15.6830 C.3    87  SER87       0.2020
     37  C        -30.4230   -0.7670   14.2490 C.2    87  SER87       0.2619
     38  O        -29.7320    0.1870   13.8480 O.2    87  SER87      -0.2717
     39  CB       -32.4750   -0.9810   15.6490 C.3    87  SER87       0.2103
     40  OG       -32.7740   -2.3250   15.4030 O.3    87  SER87      -0.2182
     41  N        -30.7190   -1.8430   13.5120 N.am   88  HIS88      -0.1961
     42  CA       -30.5370   -1.8890   12.0900 C.3    88  HIS88       0.1787
     43  C        -31.6970   -1.1510   11.5160 C.2    88  HIS88       0.2620
     44  O        -32.7110   -1.0100   12.1740 O.2    88  HIS88      -0.2715
     45  CB       -30.5720   -3.3170   11.6320 C.3    88  HIS88       0.0785
     46  CG       -29.2980   -4.0610   11.8820 C.ar   88  HIS88       0.0821
     47  ND1      -28.0740   -3.6540   11.3660 N.ar   88  HIS88      -0.2267
     48  CD2      -29.0620   -5.2150   12.5540 C.ar   88  HIS88       0.1154
     49  CE1      -27.1440   -4.5270   11.7170 C.ar   88  HIS88       0.1986
     50  NE2      -27.7140   -5.4880   12.4320 N.ar   88  HIS88      -0.2212
     51  N        -31.5360   -0.6240   10.3130 N.am   89  GLY89      -0.1954
     52  CA       -32.6220    0.0640    9.6240 C.3    89  GLY89       0.1869
     53  C        -32.4380    0.1090    8.1250 C.2    89  GLY89       0.2309
     54  O        -31.4200   -0.3150    7.6150 O.2    89  GLY89      -0.2863
     55  N        -30.2680    5.9120   15.7710 N.3   128  GLN128     -0.1231
     56  CA       -29.0540    5.3290   15.2380 C.3   128  GLN128      0.1698
     57  C        -29.4880    4.0780   14.5360 C.2   128  GLN128      0.2592
     58  O        -29.7930    3.0660   15.1750 O.2   128  GLN128     -0.2718
     59  CB       -28.0340    5.0350   16.3300 C.3   128  GLN128      0.0381
     60  CG       -26.9640    4.0440   15.9200 C.3   128  GLN128      0.0905
     61  CD       -26.0780    4.5610   14.8180 C.2   128  GLN128      0.2608
     62  OE1      -25.7970    5.7590   14.7680 O.2   128  GLN128     -0.2717
     63  NE2      -25.5990    3.6590   13.9440 N.am  128  GLN128     -0.0878
     64  N        -29.5760    4.1830   13.2130 N.am  129  ALA129     -0.1966
     65  CA       -29.9670    3.0620   12.3300 C.3   129  ALA129      0.1728
     66  C        -29.4640    3.3630   10.9040 C.2   129  ALA129      0.2616
     67  O        -29.3150    4.5260   10.5520 O.2   129  ALA129     -0.2715
     68  CB       -31.4610    2.8980   12.3300 C.3   129  ALA129      0.0334
     69  N        -29.2070    2.3440   10.0840 N.am  130  CYS130     -0.1968
     70  CA       -28.9410    2.6290    8.6410 C.3   130  CYS130      0.1712
     71  C        -30.1750    3.1310    7.9420 C.2   130  CYS130      0.2296
     72  O        -31.2990    2.7980    8.3460 O.2   130  CYS130     -0.2864
     73  CB       -28.3900    1.4170    7.9010 C.3   130  CYS130      0.0983
     74  SG       -26.8030    0.9760    8.5720 S.3   130  CYS130     -0.0798
     75  N        -25.9220    4.2900    4.6400 N.3   160  TYR160     -0.1227
     76  CA       -25.5760    3.4310    5.7770 C.3   160  TYR160      0.1736
     77  C        -25.2440    4.3130    6.9540 C.2   160  TYR160      0.2596
     78  O        -25.0650    5.5100    6.7860 O.2   160  TYR160     -0.2718
     79  CB       -24.2900    2.6830    5.4780 C.3   160  TYR160      0.0548
     80  CG       -24.4680    1.3930    4.7330 C.ar  160  TYR160     -0.0200
     81  CD1      -25.3410    0.4310    5.2040 C.ar  160  TYR160     -0.0009
     82  CD2      -23.7410    1.1300    3.5420 C.ar  160  TYR160     -0.0009
     83  CE1      -25.5060   -0.7590    4.5350 C.ar  160  TYR160      0.0417
     84  CE2      -23.9040   -0.0680    2.8550 C.ar  160  TYR160      0.0417
     85  CZ       -24.7900   -1.0040    3.3790 C.ar  160  TYR160      0.1957
     86  OH       -24.9850   -2.2020    2.7850 O.3   160  TYR160     -0.2866
     87  N        -25.1510    3.7170    8.1460 N.am  161  SER161     -0.1938
     88  CA       -24.6700    4.4430    9.3130 C.3   161  SER161      0.2055
     89  C        -23.6120    3.6060    9.9860 C.2   161  SER161      0.2643
     90  O        -23.7030    2.3830   10.0000 O.2   161  SER161     -0.2714
     91  CB       -25.8280    4.7210   10.2770 C.3   161  SER161      0.2130
     92  OG       -25.4390    5.5970   11.3160 O.3   161  SER161     -0.2179
     93  N        -22.6370    4.2640   10.5800 N.am  162  TRP162     -0.1959
     94  CA       -21.4400    3.6010   11.0160 C.3   162  TRP162      0.1771
     95  C        -21.3790    3.2880   12.5010 C.2   162  TRP162      0.2620
     96  O        -21.7370    4.1170   13.3270 O.2   162  TRP162     -0.2715
     97  CB       -20.2210    4.4370   10.5840 C.3   162  TRP162      0.0590
     98  CG       -19.9270    4.2030    9.1160 C.ar  162  TRP162      0.0006
     99  CD1      -20.2680    5.0070    8.0740 C.ar  162  TRP162      0.0946
    100  CD2      -19.3170    3.0480    8.5390 C.ar  162  TRP162      0.0152
    101  NE1      -19.8980    4.4460    6.8930 N.ar  162  TRP162     -0.2442
    102  CE2      -19.2780    3.2540    7.1440 C.ar  162  TRP162      0.0810
    103  CE3      -18.7520    1.8830    9.0680 C.ar  162  TRP162      0.0012
    104  CZ2      -18.7070    2.3350    6.2620 C.ar  162  TRP162      0.0191
    105  CZ3      -18.1810    0.9520    8.1780 C.ar  162  TRP162      0.0001
    106  CH2      -18.1740    1.1870    6.7930 C.ar  162  TRP162      0.0015
    107  N        -20.8730    2.1030   12.8330 N.am  163  ARG163     -0.1963
    108  CA       -20.7110    1.7160   14.2350 C.3   163  ARG163      0.1729
    109  C        -19.3320    1.1070   14.5040 C.2   163  ARG163      0.2617
    110  O        -18.9320    0.1680   13.8270 O.2   163  ARG163     -0.2715
    111  CB       -21.7950    0.7290   14.6190 C.3   163  ARG163      0.0348
    112  CG       -21.6000    0.1610   15.9960 C.3   163  ARG163      0.0492
    113  CD       -22.8260   -0.6720   16.4020 C.3   163  ARG163      0.2205
    114  NE       -23.5080   -1.2650   15.2570 N.pl3 163  ARG163     -0.0865
    115  CZ       -23.0460   -2.2800   14.5330 C.cat 163  ARG163      0.5346
    116  NH1      -21.8900   -2.8550   14.8500 N.pl3 163  ARG163      0.1354
    117  NH2      -23.7430   -2.7230   13.4990 N.pl3 163  ARG163      0.1354
    118  N        -18.5990    1.6280   15.4770 N.am  164  SER164     -0.1936
    119  CA       -17.3920    0.9420   15.9500 C.3   164  SER164      0.2040
    120  C        -17.6460   -0.1200   17.0620 C.2   164  SER164      0.2485
    121  O        -18.0260    0.2330   18.1850 O.2   164  SER164     -0.2729
    122  CB       -16.3950    1.9900   16.4670 C.3   164  SER164      0.2129
    123  OG       -15.5250    1.4060   17.4240 O.3   164  SER164     -0.2179
    124  N        -17.4430   -1.4160   16.7710 N.am  165  PRO165     -0.2726
    125  CA       -17.7580   -2.4650   17.7790 C.3   165  PRO165      0.1402
    126  C        -17.1840   -2.2250   19.1500 C.2   165  PRO165      0.2269
    127  O        -17.7970   -2.6180   20.1440 O.2   165  PRO165     -0.2865
    128  CB       -17.1460   -3.7340   17.1930 C.3   165  PRO165      0.0296
    129  CG       -17.2310   -3.5490   15.7350 C.3   165  PRO165      0.0237
    130  CD       -17.0110   -2.0160   15.4910 C.3   165  PRO165      0.0939
    131  N        -20.9680    6.0950   15.7830 N.3   170  TRP170     -0.1241
    132  CA       -20.2850    7.3910   15.7560 C.3   170  TRP170      0.1605
    133  C        -21.2440    8.4390   16.1990 C.2   170  TRP170      0.2264
    134  O        -20.8790    9.3480   16.9660 O.2   170  TRP170     -0.2867
    135  CB       -19.7620    7.7860   14.3810 C.3   170  TRP170      0.0550
    136  CG       -18.7790    6.7980   13.7550 C.ar  170  TRP170      0.0003
    137  CD1      -18.1440    5.7510   14.3730 C.ar  170  TRP170      0.0946
    138  CD2      -18.3220    6.8040   12.4050 C.ar  170  TRP170      0.0152
    139  NE1      -17.3440    5.0970   13.4870 N.ar  170  TRP170     -0.2442
    140  CE2      -17.4250    5.7250   12.2670 C.ar  170  TRP170      0.0810
    141  CE3      -18.5930    7.6120   11.2900 C.ar  170  TRP170      0.0012
    142  CZ2      -16.8170    5.4070   11.0370 C.ar  170  TRP170      0.0191
    143  CZ3      -17.9640    7.3330   10.0890 C.ar  170  TRP170      0.0001
    144  CH2      -17.1000    6.2210    9.9640 C.ar  170  TRP170      0.0015
    145  N        -13.7280    8.1920   10.2220 N.3   204  GLU204     -0.1231
    146  CA       -13.5270    7.6730    8.8800 C.3   204  GLU204      0.1699
    147  C        -13.4650    6.1520    8.9050 C.2   204  GLU204      0.2593
    148  O        -12.6870    5.5880    9.6790 O.2   204  GLU204     -0.2718
    149  CB       -12.2270    8.2230    8.3290 C.3   204  GLU204      0.0402
    150  CG       -12.2300    8.1640    6.8280 C.3   204  GLU204      0.1161
    151  CD       -10.9140    8.5750    6.2200 C.2   204  GLU204      0.3649
    152  OE1      -10.6990    9.8040    6.0330 O.co2 204  GLU204     -0.2457
    153  OE2      -10.1210    7.6580    5.9020 O.co2 204  GLU204     -0.2457
    154  N        -14.2440    5.4610    8.0780 N.am  205  SER205     -0.1938
    155  CA       -14.2990    4.0040    8.2410 C.3   205  SER205      0.2055
    156  C        -12.9680    3.2820    8.0030 C.2   205  SER205      0.2643
    157  O        -12.2040    3.6060    7.0830 O.2   205  SER205     -0.2714
    158  CB       -15.4180    3.3400    7.4400 C.3   205  SER205      0.2130
    159  OG       -15.0910    3.3390    6.0700 O.3   205  SER205     -0.2179
    160  N        -12.7070    2.3030    8.8610 N.am  206  GLN206     -0.1963
    161  CA       -11.5910    1.4260    8.7200 C.3   206  GLN206      0.1733
    162  C        -12.1750    0.0720    8.4860 C.2   206  GLN206      0.2617
    163  O        -13.0330   -0.3990    9.2410 O.2   206  GLN206     -0.2715
    164  CB       -10.7560    1.4750    9.9820 C.3   206  GLN206      0.0408
    165  CG       -10.4640    2.9490   10.3770 C.3   206  GLN206      0.0908
    166  CD        -9.1070    3.1450   11.0620 C.2   206  GLN206      0.2608
    167  OE1       -8.4710    2.1800   11.4980 O.2   206  GLN206     -0.2717
    168  NE2       -8.6710    4.4010   11.1680 N.am  206  GLN206     -0.0878
    169  N        -11.7530   -0.5420    7.3960 N.am  207  SER207     -0.1950
    170  CA       -12.3650   -1.7870    7.0120 C.3   207  SER207      0.1924
    171  C        -11.4620   -2.6290    6.1470 C.2   207  SER207      0.2314
    172  O        -10.6520   -2.1240    5.3960 O.2   207  SER207     -0.2863
    173  CB       -13.6710   -1.5290    6.2920 C.3   207  SER207      0.2116
    174  OG       -14.2580   -2.7440    5.9190 O.3   207  SER207     -0.2180
    175  N        -15.7630   -0.8080    1.6000 N.3   212  PHE212     -0.1241
    176  CA       -16.3010   -0.2400    2.8210 C.3   212  PHE212      0.1605
    177  C        -15.2510    0.5800    3.5650 C.2   212  PHE212      0.2264
    178  O        -15.4840    1.0320    4.7080 O.2   212  PHE212     -0.2867
    179  CB       -16.8500   -1.3480    3.7160 C.3   212  PHE212      0.0534
    180  CG       -18.2330   -1.7930    3.3420 C.ar  212  PHE212     -0.0203
    181  CD1      -19.3240   -0.9710    3.5680 C.ar  212  PHE212     -0.0042
    182  CD2      -18.4510   -3.0390    2.7620 C.ar  212  PHE212     -0.0042
    183  CE1      -20.6310   -1.3820    3.2350 C.ar  212  PHE212     -0.0003
    184  CE2      -19.7720   -3.4590    2.4110 C.ar  212  PHE212     -0.0003
    185  CZ       -20.8550   -2.6200    2.6520 C.ar  212  PHE212     -0.0000
@<TRIPOS>BOND
     1   175   176    1
     2   184   185   ar
     3   184   182   ar
     4   185   183   ar
     5   182   180   ar
     6    86    85    1
     7   176   177    1
     8   176   179    1
     9    84    85   ar
    10    84    82   ar
    11   183   181   ar
    12   180   181   ar
    13   180   179    1
    14    85    83   ar
    15    82    80   ar
    16   177   178    2
    17    83    81   ar
    18    75    76    1
    19    80    81   ar
    20    80    79    1
    21   172   171    2
    22    79    76    1
    23    76    77    1
    24   153   151   ar
    25   174   173    1
    26   152   151   ar
    27   159   158    1
    28   171   170    1
    29   151   150    1
    30   104   106   ar
    31   104   102   ar
    32   173   170    1
    33    78    77    2
    34   106   105   ar
    35   150   149    1
    36   101   102   ar
    37   101    99   ar
    38    77    87   am
    39   170   169    1
    40   157   156    2
    41   102   100   ar
    42   169   162   am
    43     8     7    1
    44   158   155    1
    45    54    53    2
    46    73    74    1
    47    73    70    1
    48    71    72    2
    49    71    70    1
    50   156   155    1
    51   156   160   am
    52    99    98   ar
    53   154   155    1
    54   154   147   am
    55    53    52    1
    56    87    88    1
    57   105   103   ar
    58   149   146    1
    59   162   161    1
    60   162   163    2
    61   100   103   ar
    62   100    98   ar
    63    70    69    1
    64   161   160    1
    65   161   164    1
    66   146   147    1
    67   146   145    1
    68   147   148    2
    69     7     6    1
    70    98    97    1
    71    88    89    1
    72    88    91    1
    73    52    51    1
    74     1     2    1
    75   144   143   ar
    76   144   142   ar
    77   164   165    1
    78    89    90    2
    79    89    93   am
    80     6     5    1
    81    69    66   am
    82   143   141   ar
    83    91    92    1
    84    51    43   am
    85     2     5    1
    86     2     3    1
    87   165   166    1
    88    67    66    2
    89    93    94    1
    90    97    94    1
    91    66    65    1
    92    94    95    1
    93   142   140   ar
    94   166   168   am
    95   166   167    2
    96   141   138   ar
    97    47    49   ar
    98    47    46   ar
    99     3     4    2
   100    43    42    1
   101    43    44    2
   102    45    46    1
   103    45    42    1
   104    49    50   ar
   105    46    48   ar
   106    42    41    1
   107   140   138   ar
   108   140   139   ar
   109    68    65    1
   110    65    64    1
   111   138   136   ar
   112    50    48   ar
   113    95   107   am
   114    95    96    2
   115   107   108    1
   116    64    57   am
   117   139   137   ar
   118   117   115    1
   119    41    37   am
   120   136   137   ar
   121   136   135    1
   122   110   109    2
   123    38    37    2
   124    63    61   am
   125   108   109    1
   126   108   111    1
   127    37    36    1
   128   135   132    1
   129   109   118   am
   130   115   116    1
   131   115   114    2
   132    57    58    2
   133    57    56    1
   134   111   112    1
   135    62    61    2
   136    61    60    1
   137     9    10    1
   138    12    11    2
   139    56    55    1
   140    56    59    1
   141   114   113    1
   142    40    39    1
   143   118   119    1
   144   130   129    1
   145   130   124    1
   146    22    23    1
   147    22    21    1
   148    23    24    2
   149    39    36    1
   150    21    20    1
   151    36    35    1
   152   129   128    1
   153   132   131    1
   154   132   133    1
   155    60    59    1
   156   119   122    1
   157   119   120    1
   158    11    10    1
   159    11    16   am
   160   112   113    1
   161    10    13    1
   162   133   134    2
   163   122   123    1
   164    20    17    1
   165    17    16    1
   166    17    18    1
   167    26    24    1
   168    24    25    1
   169   124   120   am
   170   124   125    1
   171    13    15    1
   172    13    14    1
   173   120   121    2
   174   128   125    1
   175    34    32   am
   176    27    18   am
   177    27    28    1
   178    18    19    2
   179   125   126    1
   180    30    29    2
   181    32    31    1
   182    32    33    2
   183    31    28    1
   184    28    29    1
   185   126   127    2
