@<TRIPOS>MOLECULE
tmp/3h1qA00.pdb
 208 199 0 0 0
SMALL
GASTEIGER

@<TRIPOS>ATOM
      1  N         57.3850   38.9370   12.9010 N.3    32  ASP32      -0.1225
      2  CA        57.4870   38.6440   11.4920 C.3    32  ASP32       0.1805
      3  C         56.5450   37.5210   11.1480 C.2    32  ASP32       0.2598
      4  O         56.7540   36.3580   11.5520 O.2    32  ASP32      -0.2718
      5  CB        58.9110   38.2440   11.1320 C.3    32  ASP32       0.1424
      6  CG        59.0960   38.0060    9.6200 C.2    32  ASP32       0.3668
      7  OD1       59.5070   38.9790    8.9330 O.co2  32  ASP32      -0.2456
      8  OD2       58.8270   36.8640    9.1090 O.co2  32  ASP32      -0.2456
      9  N         55.5050   37.8620   10.3940 N.am   33  LEU33      -0.1965
     10  CA        54.5750   36.8390    9.9280 C.3    33  LEU33       0.1731
     11  C         55.1050   36.1910    8.6350 C.2    33  LEU33       0.2656
     12  O         55.8180   36.8340    7.8540 O.2    33  LEU33      -0.2711
     13  CB        53.1600   37.4090    9.8010 C.3    33  LEU33       0.0311
     14  CG        52.5740   37.9340   11.1270 C.3    33  LEU33       0.0022
     15  CD1       51.1900   38.4980   10.9420 C.3    33  LEU33       0.0001
     16  CD2       52.5520   36.8450   12.2020 C.3    33  LEU33       0.0001
     17  N         54.8350   34.9120    8.4140 N.am   34  GLY34      -0.1716
     18  CA        55.5270   34.2610    7.3150 C.2    34  GLY34       0.1480
     19  C         54.9790   32.9360    6.8490 C.2    34  GLY34       0.2821
     20  O         54.1590   32.2610    7.5240 O.2    34  GLY34      -0.2669
     21  N         55.4550   32.5740    5.6740 N.am   35  THR35      -0.1902
     22  CA        55.0810   31.3680    4.9940 C.3    35  THR35       0.2031
     23  C         55.5310   30.1090    5.7020 C.2    35  THR35       0.2642
     24  O         54.8510   29.0800    5.6460 O.2    35  THR35      -0.2714
     25  CB        55.7980   31.3590    3.6860 C.3    35  THR35       0.1808
     26  OG1       55.7100   32.6760    3.1340 O.3    35  THR35      -0.2208
     27  CG2       55.2060   30.3320    2.7680 C.3    35  THR35       0.0379
     28  N         56.7030   30.1460    6.3260 N.am   36  ALA36      -0.1963
     29  CA        57.2200   28.9060    6.8390 C.3    36  ALA36       0.1728
     30  C         57.4390   29.0100    8.2990 C.2    36  ALA36       0.2616
     31  O         57.5430   27.9760    8.9590 O.2    36  ALA36      -0.2715
     32  CB        58.4600   28.5100    6.1380 C.3    36  ALA36       0.0334
     33  N         57.4740   30.2470    8.8100 N.am   37  ASP37      -0.1971
     34  CA        57.7320   30.4900   10.2440 C.3    37  ASP37       0.1709
     35  C         57.2160   31.8290   10.7860 C.2    37  ASP37       0.2293
     36  O         57.0190   32.7990   10.0390 O.2    37  ASP37      -0.2864
     37  CB        59.2370   30.3870   10.5370 C.3    37  ASP37       0.1436
     38  CG        60.0770   31.2350    9.5880 C.2    37  ASP37       0.3671
     39  OD1       60.0700   32.5160    9.6620 O.co2  37  ASP37      -0.2456
     40  OD2       60.7350   30.5850    8.7300 O.co2  37  ASP37      -0.2456
     41  N         57.6970   27.1550   13.5440 N.3    56  TRP56      -0.1241
     42  CA        57.5010   26.7690   12.1640 C.3    56  TRP56       0.1605
     43  C         56.0120   26.7120   11.9110 C.2    56  TRP56       0.2264
     44  O         55.3150   25.9340   12.5620 O.2    56  TRP56      -0.2867
     45  CB        58.1160   25.4010   11.9240 C.3    56  TRP56       0.0550
     46  CG        59.6020   25.4400   12.0270 C.ar   56  TRP56       0.0003
     47  CD1       60.3850   24.8150   12.9570 C.ar   56  TRP56       0.0946
     48  CD2       60.4910   26.1650   11.1720 C.ar   56  TRP56       0.0152
     49  NE1       61.7070   25.0960   12.7250 N.ar   56  TRP56      -0.2442
     50  CE2       61.8030   25.9180   11.6330 C.ar   56  TRP56       0.0810
     51  CE3       60.3050   26.9840   10.0480 C.ar   56  TRP56       0.0012
     52  CZ2       62.9280   26.4640   11.0150 C.ar   56  TRP56       0.0191
     53  CZ3       61.4240   27.5260    9.4280 C.ar   56  TRP56       0.0001
     54  CH2       62.7230   27.2670    9.9210 C.ar   56  TRP56       0.0015
     55  N         53.4040   41.2520    4.8730 N.3    98  PRO98      -0.2116
     56  CA        54.0490   40.6740    3.6700 C.3    98  PRO98       0.1372
     57  C         53.3480   40.9250    2.3390 C.2    98  PRO98       0.2244
     58  O         52.1120   40.8330    2.2710 O.2    98  PRO98      -0.2868
     59  CB        54.1320   39.1680    4.0020 C.3    98  PRO98       0.0268
     60  CG        54.4470   39.1720    5.4970 C.3    98  PRO98       0.0207
     61  CD        53.6160   40.3610    6.0450 C.3    98  PRO98       0.0892
     62  N         58.3980   44.3730    4.3090 N.3   123  GLU123     -0.1245
     63  CA        59.5630   43.5270    4.4940 C.3   123  GLU123      0.1567
     64  C         60.7880   44.1460    3.7970 C.2   123  GLU123      0.2260
     65  O         61.8480   44.2700    4.4050 O.2   123  GLU123     -0.2867
     66  CB        59.2620   42.1010    4.0320 C.3   123  GLU123      0.0388
     67  CG        57.7710   41.7470    4.0990 C.3   123  GLU123      0.1160
     68  CD        57.5130   40.3210    4.5200 C.2   123  GLU123      0.3649
     69  OE1       57.1310   39.4900    3.6630 O.co2 123  GLU123     -0.2457
     70  OE2       57.6930   40.0260    5.7170 O.co2 123  GLU123     -0.2457
     71  N         64.7050   38.9200   -0.6480 N.3   140  ASP140     -0.1239
     72  CA        64.2220   38.1330    0.4630 C.3   140  ASP140      0.1674
     73  C         63.7170   36.8390   -0.1310 C.2   140  ASP140      0.2266
     74  O         62.7130   36.8270   -0.8110 O.2   140  ASP140     -0.2867
     75  CB        63.0940   38.8870    1.1660 C.3   140  ASP140      0.1410
     76  CG        62.7890   38.3490    2.5710 C.2   140  ASP140      0.3668
     77  OD1       63.0650   37.1510    2.8530 O.co2 140  ASP140     -0.2456
     78  OD2       62.2550   39.1380    3.3990 O.co2 140  ASP140     -0.2456
     79  N         61.9940   34.0100    0.8990 N.3   142  GLY142     -0.1210
     80  CA        61.2210   33.3330    1.9470 C.3   142  GLY142      0.1956
     81  C         60.9930   31.8590    1.6780 C.2   142  GLY142      0.2612
     82  O         61.6770   31.2690    0.8740 O.2   142  GLY142     -0.2717
     83  N         60.0290   31.2490    2.3460 N.am  143  GLY143     -0.1956
     84  CA        59.7690   29.8240    2.1590 C.3   143  GLY143      0.1869
     85  C         58.7850   29.5610    1.0300 C.2   143  GLY143      0.2309
     86  O         58.8970   28.5540    0.3000 O.2   143  GLY143     -0.2863
     87  N         61.7530   28.3810   -0.6370 N.3   166  GLY166     -0.1210
     88  CA        62.2840   27.1940    0.0030 C.3   166  GLY166      0.1956
     89  C         61.4830   25.9430   -0.2420 C.2   166  GLY166      0.2612
     90  O         62.0260   24.8300   -0.2890 O.2   166  GLY166     -0.2717
     91  N         60.1840   26.1170   -0.4170 N.am  167  THR167     -0.1952
     92  CA        59.3090   24.9660   -0.4140 C.3   167  THR167      0.1897
     93  C         59.4510   24.1850   -1.7000 C.2   167  THR167      0.2313
     94  O         59.5010   22.9700   -1.6860 O.2   167  THR167     -0.2863
     95  CB        57.8540   25.3700   -0.1590 C.3   167  THR167      0.1794
     96  OG1       57.8280   26.5410    0.6710 O.3   167  THR167     -0.2208
     97  CG2       57.1090   24.2330    0.5320 C.3   167  THR167      0.0378
     98  N         62.3070   22.1480   -1.3560 N.3   170  SER170     -0.1217
     99  CA        62.0280   20.9520   -0.5400 C.3   170  SER170      0.1889
    100  C         61.1440   19.9660   -1.2970 C.2   170  SER170      0.2288
    101  O         61.3320   18.7480   -1.1870 O.2   170  SER170     -0.2866
    102  CB        61.3740   21.3290    0.7880 C.3   170  SER170      0.2089
    103  OG        62.0040   22.4700    1.3510 O.3   170  SER170     -0.2183
    104  N         61.9390   17.8840    4.1820 N.3   185  GLU185     -0.1245
    105  CA        62.2450   19.1370    4.8960 C.3   185  GLU185      0.1567
    106  C         63.2620   18.9050    6.0240 C.2   185  GLU185      0.2260
    107  O         64.2150   19.6750    6.1780 O.2   185  GLU185     -0.2867
    108  CB        60.9640   19.7990    5.4310 C.3   185  GLU185      0.0388
    109  CG        61.1500   21.1880    6.0500 C.3   185  GLU185      0.1160
    110  CD        61.3630   22.2900    5.0250 C.2   185  GLU185      0.3649
    111  OE1       61.3600   22.0030    3.8200 O.co2 185  GLU185     -0.2457
    112  OE2       61.5470   23.4590    5.4220 O.co2 185  GLU185     -0.2457
    113  N         66.6060   18.5910    3.9600 N.3   188  LYS188     -0.1231
    114  CA        67.0430   19.8980    3.5200 C.3   188  LYS188      0.1693
    115  C         67.6470   20.7160    4.6450 C.2   188  LYS188      0.2591
    116  O         68.5800   21.4790    4.4320 O.2   188  LYS188     -0.2718
    117  CB        65.8760   20.6610    2.9250 C.3   188  LYS188      0.0285
    118  CG        66.2090   22.0290    2.3890 C.3   188  LYS188      0.0035
    119  CD        64.9700   22.6180    1.7590 C.3   188  LYS188      0.0206
    120  CE        65.0970   24.1000    1.5000 C.3   188  LYS188      0.1093
    121  NZ        64.1580   24.8820    2.3590 N.3   188  LYS188     -0.1314
    122  N         67.1200   20.5670    5.8490 N.am  189  LYS189     -0.1980
    123  CA        67.5100   21.4840    6.9150 C.3   189  LYS189      0.1596
    124  C         68.7800   21.0810    7.6710 C.2   189  LYS189      0.2287
    125  O         69.5750   21.9510    8.0750 O.2   189  LYS189     -0.2864
    126  CB        66.3260   21.8000    7.8510 C.3   189  LYS189      0.0298
    127  CG        65.5070   23.0260    7.3760 C.3   189  LYS189      0.0038
    128  CD        64.5180   23.5090    8.3980 C.3   189  LYS189      0.0206
    129  CE        63.6010   22.3990    8.8410 C.3   189  LYS189      0.1093
    130  NZ        62.8250   22.8650    9.9920 N.3   189  LYS189     -0.1314
    131  N         72.3660   20.2080    8.1360 N.3   191  PHE191     -0.1241
    132  CA        73.5020   20.7670    7.4180 C.3   191  PHE191      0.1605
    133  C         74.4520   19.7360    6.8180 C.2   191  PHE191      0.2264
    134  O         75.1110   20.0190    5.8210 O.2   191  PHE191     -0.2867
    135  CB        74.2570   21.7190    8.2950 C.3   191  PHE191      0.0534
    136  CG        73.7120   23.0990    8.2810 C.ar  191  PHE191     -0.0203
    137  CD1       74.1300   24.0080    7.3220 C.ar  191  PHE191     -0.0042
    138  CD2       72.7940   23.5050    9.2400 C.ar  191  PHE191     -0.0042
    139  CE1       73.6450   25.3030    7.3190 C.ar  191  PHE191     -0.0003
    140  CE2       72.2950   24.8090    9.2450 C.ar  191  PHE191     -0.0003
    141  CZ        72.7160   25.7040    8.2890 C.ar  191  PHE191     -0.0000
    142  N         73.5840   19.1030    2.9520 N.3   194  HIS194     -0.1241
    143  CA        73.6200   20.1280    1.8750 C.3   194  HIS194      0.1621
    144  C         74.5390   19.7190    0.7460 C.2   194  HIS194      0.2264
    145  O         74.2250   19.9180   -0.4190 O.2   194  HIS194     -0.2867
    146  CB        74.1010   21.4940    2.3520 C.3   194  HIS194      0.0745
    147  CG        73.2300   22.1350    3.3780 C.ar  194  HIS194      0.0817
    148  ND1       73.1280   23.5020    3.5040 N.ar  194  HIS194     -0.2268
    149  CD2       72.4360   21.6030    4.3380 C.ar  194  HIS194      0.1154
    150  CE1       72.3060   23.7840    4.4990 C.ar  194  HIS194      0.1986
    151  NE2       71.8770   22.6490    5.0270 N.ar  194  HIS194     -0.2212
    152  N         66.9200   35.7480    3.8460 N.3   227  GLY227     -0.1210
    153  CA        65.7810   34.8300    3.9660 C.3   227  GLY227      0.1956
    154  C         66.2560   33.4230    4.2010 C.2   227  GLY227      0.2612
    155  O         67.3170   33.0440    3.7340 O.2   227  GLY227     -0.2717
    156  N         65.4640   32.6250    4.8950 N.am  228  GLY228     -0.1942
    157  CA        65.8690   31.2760    5.2770 C.3   228  GLY228      0.2014
    158  C         66.2570   30.2980    4.1820 C.2   228  GLY228      0.2639
    159  O         66.8980   29.2700    4.4580 O.2   228  GLY228     -0.2714
    160  N         65.8540   30.5800    2.9450 N.am  229  THR229     -0.1950
    161  CA        66.1940   29.6790    1.8450 C.3   229  THR229      0.1897
    162  C         67.6940   29.7020    1.5850 C.2   229  THR229      0.2313
    163  O         68.2640   28.6830    1.2000 O.2   229  THR229     -0.2863
    164  CB        65.4670   30.0060    0.5190 C.3   229  THR229      0.1794
    165  OG1       64.2280   30.6750    0.7790 O.3   229  THR229     -0.2208
    166  CG2       65.2190   28.7290   -0.2750 C.3   229  THR229      0.0378
    167  N         69.9930   29.5130    3.5480 N.3   231  TYR231     -0.1227
    168  CA        70.7170   28.7550    4.5600 C.3   231  TYR231      0.1736
    169  C         71.4260   27.5580    3.9320 C.2   231  TYR231      0.2595
    170  O         72.0330   26.7400    4.6190 O.2   231  TYR231     -0.2718
    171  CB        69.7340   28.2290    5.6070 C.3   231  TYR231      0.0548
    172  CG        69.7910   28.8910    6.9650 C.ar  231  TYR231     -0.0200
    173  CD1       71.0100   29.1260    7.6070 C.ar  231  TYR231     -0.0009
    174  CD2       68.6170   29.2410    7.6320 C.ar  231  TYR231     -0.0009
    175  CE1       71.0520   29.7230    8.8730 C.ar  231  TYR231      0.0417
    176  CE2       68.6470   29.8420    8.8940 C.ar  231  TYR231      0.0417
    177  CZ        69.8600   30.0710    9.5100 C.ar  231  TYR231      0.1957
    178  OH        69.8800   30.6530   10.7530 O.3   231  TYR231     -0.2866
    179  N         71.3100   27.4190    2.6190 N.am  232  LEU232     -0.1980
    180  CA        71.9520   26.3020    1.9370 C.3   232  LEU232      0.1596
    181  C         73.4110   26.6880    1.7510 C.2   232  LEU232      0.2287
    182  O         73.7080   27.7330    1.1680 O.2   232  LEU232     -0.2864
    183  CB        71.2590   26.0140    0.5980 C.3   232  LEU232      0.0297
    184  CG        71.2040   24.5260    0.2410 C.3   232  LEU232      0.0022
    185  CD1       70.5680   23.7030    1.3650 C.3   232  LEU232      0.0001
    186  CD2       70.4540   24.2980   -1.0430 C.3   232  LEU232      0.0001
    187  N         67.7640   33.7560    7.4410 N.3   254  LEU254     -0.1245
    188  CA        66.3960   33.7350    7.9990 C.3   254  LEU254      0.1561
    189  C         66.0500   34.8360    8.9850 C.2   254  LEU254      0.2260
    190  O         64.8810   35.1780    9.1250 O.2   254  LEU254     -0.2867
    191  CB        66.1180   32.3970    8.6820 C.3   254  LEU254      0.0270
    192  CG        64.6780   31.9730    9.0330 C.3   254  LEU254      0.0019
    193  CD1       64.5680   30.4490    9.0140 C.3   254  LEU254      0.0001
    194  CD2       64.1170   32.5580   10.3670 C.3   254  LEU254      0.0001
    195  N         65.1940   39.8870    8.2330 N.3   257  THR257     -0.1204
    196  CA        63.9750   40.6930    8.2170 C.3   257  THR257      0.1979
    197  C         63.4180   40.7960    9.6220 C.2   257  THR257      0.2459
    198  O         63.1820   41.9100   10.0990 O.2   257  THR257     -0.2732
    199  CB        62.8750   40.1560    7.2400 C.3   257  THR257      0.1783
    200  OG1       63.4410   39.9490    5.9380 O.3   257  THR257     -0.2211
    201  CG2       61.7140   41.1600    7.1130 C.3   257  THR257      0.0376
    202  N         63.2130   39.6400   10.2930 N.am  258  PRO258     -0.2728
    203  CA        62.7250   39.6990   11.6650 C.3   258  PRO258      0.1401
    204  C         63.4690   40.7520   12.5150 C.2   258  PRO258      0.2269
    205  O         62.8200   41.6170   13.1310 O.2   258  PRO258     -0.2865
    206  CB        62.9630   38.2880   12.1640 C.3   258  PRO258      0.0296
    207  CG        62.8230   37.4430   10.9390 C.3   258  PRO258      0.0237
    208  CD        63.3840   38.2480    9.8310 C.3   258  PRO258      0.0939
@<TRIPOS>BOND
     1    93    94    2
     2    93    92    1
     3    98    99    1
     4   100   101    2
     5   100    99    1
     6   186   184    1
     7    74    73    2
     8    71    72    1
     9    87    88    1
    10    99   102    1
    11   145   144    2
    12    91    92    1
    13    91    89   am
    14    92    95    1
    15    90    89    2
    16   166   164    1
    17    89    88    1
    18    95    97    1
    19    95    96    1
    20    73    72    1
    21   184   183    1
    22   184   185    1
    23    86    85    2
    24    72    75    1
    25   164   165    1
    26   164   161    1
    27   183   180    1
    28   144   143    1
    29   102   103    1
    30    82    81    2
    31    79    80    1
    32    85    84    1
    33    75    76    1
    34   182   181    2
    35   163   162    2
    36   120   119    1
    37   120   121    1
    38   162   161    1
    39    81    80    1
    40    81    83   am
    41   181   180    1
    42   119   118    1
    43   161   160    1
    44   143   146    1
    45   143   142    1
    46   180   179    1
    47    84    83    1
    48    58    57    2
    49    57    56    1
    50   146   147    1
    51   118   117    1
    52    76    77   ar
    53    76    78   ar
    54   179   169   am
    55    27    25    1
    56   117   114    1
    57   160   158   am
    58    26    25    1
    59   147   148   ar
    60   147   149   ar
    61   148   150   ar
    62   114   113    1
    63   114   115    1
    64   167   168    1
    65    69    68   ar
    66    56    59    1
    67    56    55    1
    68    25    22    1
    69   155   154    2
    70    64    65    2
    71    64    63    1
    72   111   110   ar
    73   152   153    1
    74   169   168    1
    75   169   170    2
    76   153   154    1
    77    59    60    1
    78    66    67    1
    79    66    63    1
    80    67    68    1
    81   104   105    1
    82   158   159    2
    83   158   157    1
    84   154   156   am
    85    62    63    1
    86   149   151   ar
    87   116   115    2
    88   150   151   ar
    89    68    70   ar
    90   168   171    1
    91   115   122   am
    92    55    61    1
    93   156   157    1
    94   105   108    1
    95   105   106    1
    96    22    21    1
    97    22    23    1
    98   110   112   ar
    99   110   109    1
   100   108   109    1
   101    60    61    1
   102   171   172    1
   103    24    23    2
   104    21    19   am
   105    23    28   am
   106   134   133    2
   107   122   123    1
   108   200   199    1
   109   106   107    2
   110    32    29    1
   111    28    29    1
   112   133   132    1
   113    29    30    1
   114    19    18    1
   115    19    20    2
   116   123   124    1
   117   123   126    1
   118   172   173   ar
   119   172   174   ar
   120   201   199    1
   121   199   196    1
   122    18    17    2
   123   139   137   ar
   124   139   141   ar
   125   137   136   ar
   126   127   126    1
   127   127   128    1
   128   132   131    1
   129   132   135    1
   130   187   188    1
   131   173   175   ar
   132   174   176   ar
   133   124   125    2
   134    12    11    2
   135   188   191    1
   136   188   189    1
   137   196   195    1
   138   196   197    1
   139   136   135    1
   140   136   138   ar
   141   141   140   ar
   142    30    33   am
   143    30    31    2
   144   128   129    1
   145    17    11    1
   146    11    10    1
   147   191   192    1
   148    40    38   ar
   149    33    34    1
   150   129   130    1
   151   175   177   ar
   152   176   177   ar
   153     7     6   ar
   154   189   190    2
   155   193   192    1
   156   192   194    1
   157     8     6   ar
   158   138   140   ar
   159    53    54   ar
   160    53    51   ar
   161   177   178    1
   162    38    39   ar
   163    38    37    1
   164     6     5    1
   165   197   198    2
   166   197   202   am
   167    13    10    1
   168    13    14    1
   169   208   202    1
   170   208   207    1
   171    54    52   ar
   172    10     9    1
   173    36    35    2
   174    51    48   ar
   175    34    37    1
   176    34    35    1
   177   202   203    1
   178     9     3   am
   179   207   206    1
   180    15    14    1
   181    52    50   ar
   182    14    16    1
   183     5     2    1
   184     3     2    1
   185     3     4    2
   186    48    50   ar
   187    48    46   ar
   188     2     1    1
   189    50    49   ar
   190   203   206    1
   191   203   204    1
   192    43    42    1
   193    43    44    2
   194    45    46    1
   195    45    42    1
   196    46    47   ar
   197    42    41    1
   198   204   205    2
   199    49    47   ar
