@<TRIPOS>MOLECULE
tmp/3h1qB00.pdb
 194 184 0 0 0
SMALL
GASTEIGER

@<TRIPOS>ATOM
      1  N         91.1500   34.1470   34.5310 N.3    33  ASP33      -0.1239
      2  CA        91.1670   33.3410   35.7280 C.3    33  ASP33       0.1674
      3  C         92.0190   32.0870   35.5570 C.2    33  ASP33       0.2266
      4  O         91.7010   31.2140   34.7450 O.2    33  ASP33      -0.2867
      5  CB        89.7450   32.9720   36.1390 C.3    33  ASP33       0.1410
      6  CG        89.7080   31.8760   37.1990 C.2    33  ASP33       0.3668
      7  OD1       89.1560   32.0990   38.3130 O.co2  33  ASP33      -0.2456
      8  OD2       90.2410   30.7770   36.9240 O.co2  33  ASP33      -0.2456
      9  N         93.2880   28.6530   37.0010 N.3    35  GLY35      -0.1210
     10  CA        92.7930   27.7200   37.9950 C.3    35  GLY35       0.1956
     11  C         93.4400   26.3500   37.9870 C.2    35  GLY35       0.2613
     12  O         94.2310   26.0250   37.0950 O.2    35  GLY35      -0.2717
     13  N         93.0750   25.5390   38.9770 N.am   36  THR36      -0.1938
     14  CA        93.4580   24.1410   39.0330 C.3    36  THR36       0.2028
     15  C         92.8770   23.2370   37.9520 C.2    36  THR36       0.2642
     16  O         93.1600   22.0470   37.9410 O.2    36  THR36      -0.2714
     17  CB        93.0550   23.5170   40.3920 C.3    36  THR36       0.1808
     18  OG1       91.6490   23.2190   40.4240 O.3    36  THR36      -0.2208
     19  CG2       93.4000   24.4310   41.5130 C.3    36  THR36       0.0379
     20  N         92.0180   23.7540   37.0740 N.am   37  ALA37      -0.1963
     21  CA        91.2830   22.8760   36.1410 C.3    37  ALA37       0.1728
     22  C         91.0280   23.4720   34.7610 C.2    37  ALA37       0.2616
     23  O         90.9280   22.7400   33.7770 O.2    37  ALA37      -0.2715
     24  CB        89.9940   22.4020   36.7700 C.3    37  ALA37       0.0334
     25  N         90.9450   24.7950   34.6850 N.am   38  ASP38      -0.1971
     26  CA        90.6900   25.4600   33.4390 C.3    38  ASP38       0.1709
     27  C         91.1850   26.8640   33.5910 C.2    38  ASP38       0.2293
     28  O         91.5210   27.2710   34.6980 O.2    38  ASP38      -0.2864
     29  CB        89.1850   25.4840   33.1560 C.3    38  ASP38       0.1436
     30  CG        88.3380   25.7810   34.4090 C.2    38  ASP38       0.3671
     31  OD1       88.1500   26.9660   34.8200 O.co2  38  ASP38      -0.2456
     32  OD2       87.8350   24.7990   34.9890 O.co2  38  ASP38      -0.2456
     33  N         90.5580   23.8230   29.0720 N.3    57  TRP57      -0.1241
     34  CA        90.7180   22.8620   30.1550 C.3    57  TRP57       0.1605
     35  C         92.1970   22.5540   30.3280 C.2    57  TRP57       0.2264
     36  O         92.8990   22.2930   29.3500 O.2    57  TRP57      -0.2867
     37  CB        89.9240   21.5990   29.8830 C.3    57  TRP57       0.0550
     38  CG        88.5190   21.9010   29.7420 C.ar   57  TRP57       0.0003
     39  CD1       87.8390   22.0750   28.5840 C.ar   57  TRP57       0.0946
     40  CD2       87.5830   22.1280   30.8020 C.ar   57  TRP57       0.0152
     41  NE1       86.5230   22.3840   28.8480 N.ar   57  TRP57      -0.2442
     42  CE2       86.3400   22.4270   30.2030 C.ar   57  TRP57       0.0810
     43  CE3       87.6710   22.1030   32.2030 C.ar   57  TRP57       0.0012
     44  CZ2       85.1970   22.6980   30.9500 C.ar   57  TRP57       0.0191
     45  CZ3       86.5280   22.3710   32.9470 C.ar   57  TRP57       0.0001
     46  CH2       85.3100   22.6630   32.3180 C.ar   57  TRP57       0.0015
     47  N         90.6770   35.8610   45.2450 N.3   127  GLU127     -0.1245
     48  CA        89.6270   35.0590   44.6400 C.3   127  GLU127      0.1567
     49  C         88.3150   35.1200   45.4320 C.2   127  GLU127      0.2260
     50  O         87.2420   35.2770   44.8380 O.2   127  GLU127     -0.2867
     51  CB        90.0860   33.6240   44.4940 C.3   127  GLU127      0.0388
     52  CG        90.9900   33.4120   43.3220 C.3   127  GLU127      0.1160
     53  CD        91.3560   31.9510   43.1100 C.2   127  GLU127      0.3649
     54  OE1       90.9430   31.0660   43.9310 O.co2 127  GLU127     -0.2457
     55  OE2       92.0810   31.7000   42.1150 O.co2 127  GLU127     -0.2457
     56  N         83.4780   28.0070   47.2790 N.3   144  ASP144     -0.1239
     57  CA        83.9270   27.9400   45.9030 C.3   144  ASP144      0.1674
     58  C         84.6370   26.6030   45.5850 C.2   144  ASP144      0.2266
     59  O         85.8710   26.5300   45.6030 O.2   144  ASP144     -0.2867
     60  CB        84.8280   29.1430   45.6260 C.3   144  ASP144      0.1410
     61  CG        85.2450   29.2450   44.1820 C.2   144  ASP144      0.3668
     62  OD1       84.9510   28.2860   43.4200 O.co2 144  ASP144     -0.2456
     63  OD2       85.8750   30.2620   43.7990 O.co2 144  ASP144     -0.2456
     64  N         86.3370   24.1070   43.6300 N.3   146  GLY146     -0.1210
     65  CA        86.9450   24.0290   42.3130 C.3   146  GLY146      0.1956
     66  C         87.4960   22.6330   42.0650 C.2   146  GLY146      0.2612
     67  O         87.0640   21.6620   42.6930 O.2   146  GLY146     -0.2717
     68  N         88.4740   22.5270   41.1640 N.am  147  GLY147     -0.1956
     69  CA        89.0700   21.2390   40.8900 C.3   147  GLY147      0.1869
     70  C         90.0040   20.7970   42.0040 C.2   147  GLY147      0.2309
     71  O         89.8120   19.7410   42.6260 O.2   147  GLY147     -0.2863
     72  N         91.0050   22.7320   44.7870 N.3   149  THR149     -0.1218
     73  CA        90.8610   23.3820   46.1000 C.3   149  THR149      0.1862
     74  C         89.4940   23.9740   46.2710 C.2   149  THR149      0.2287
     75  O         88.8470   24.3370   45.2920 O.2   149  THR149     -0.2866
     76  CB        91.8510   24.5320   46.2720 C.3   149  THR149      0.1770
     77  OG1       92.0450   25.1770   45.0100 O.3   149  THR149     -0.2211
     78  CG2       93.2030   24.0090   46.7650 C.3   149  THR149      0.0375
     79  N         87.0110   19.1810   43.0410 N.3   170  GLY170     -0.1210
     80  CA        86.4070   18.3890   41.9780 C.3   170  GLY170      0.1956
     81  C         87.1640   17.1530   41.5450 C.2   170  GLY170      0.2612
     82  O         86.5460   16.1480   41.1730 O.2   170  GLY170     -0.2717
     83  N         88.4920   17.1890   41.5900 N.am  171  THR171     -0.1952
     84  CA        89.2260   15.9830   41.2190 C.3   171  THR171      0.1897
     85  C         88.9870   14.8030   42.2000 C.2   171  THR171      0.2313
     86  O         88.9840   13.6360   41.8060 O.2   171  THR171     -0.2863
     87  CB        90.7040   16.2680   40.9710 C.3   171  THR171      0.1794
     88  OG1       91.4270   16.1490   42.1940 O.3   171  THR171     -0.2208
     89  CG2       90.8730   17.6700   40.3900 C.3   171  THR171      0.0378
     90  N         87.0680   11.8590   34.2170 N.3   189  GLU189     -0.1245
     91  CA        86.8820   13.2970   34.0610 C.3   189  GLU189      0.1567
     92  C         85.8650   13.6580   32.9850 C.2   189  GLU189      0.2260
     93  O         85.0410   14.5400   33.1910 O.2   189  GLU189     -0.2867
     94  CB        88.2430   13.9880   33.8130 C.3   189  GLU189      0.0388
     95  CG        88.2160   15.5090   33.5150 C.3   189  GLU189      0.1160
     96  CD        87.6420   16.3760   34.6390 C.2   189  GLU189      0.3649
     97  OE1       87.3400   15.8580   35.7520 O.co2 189  GLU189     -0.2457
     98  OE2       87.4910   17.5960   34.3840 O.co2 189  GLU189     -0.2457
     99  N         82.3560   12.5570   33.9120 N.3   192  LYS192     -0.1231
    100  CA        81.7990   13.4250   34.9530 C.3   192  LYS192      0.1693
    101  C         81.2090   14.6430   34.3100 C.2   192  LYS192      0.2591
    102  O         80.1040   15.0610   34.6530 O.2   192  LYS192     -0.2718
    103  CB        82.8670   13.8630   35.9430 C.3   192  LYS192      0.0285
    104  CG        82.3260   14.3750   37.2660 C.3   192  LYS192      0.0035
    105  CD        83.4540   14.8280   38.2110 C.3   192  LYS192      0.0206
    106  CE        84.2230   16.0220   37.6420 C.3   192  LYS192      0.1093
    107  NZ        84.2280   17.2220   38.5410 N.3   192  LYS192     -0.1314
    108  N         81.9380   15.1970   33.3530 N.am  193  LYS193     -0.1980
    109  CA        81.5160   16.4270   32.7170 C.3   193  LYS193      0.1596
    110  C         80.3350   16.2530   31.7460 C.2   193  LYS193      0.2287
    111  O         79.8850   17.2350   31.1180 O.2   193  LYS193     -0.2864
    112  CB        82.6900   17.0320   31.9820 C.3   193  LYS193      0.0298
    113  CG        83.8160   17.4720   32.8760 C.3   193  LYS193      0.0038
    114  CD        84.5500   18.6300   32.2350 C.3   193  LYS193      0.0206
    115  CE        85.6450   18.1590   31.2970 C.3   193  LYS193      0.1093
    116  NZ        86.0330   19.3100   30.4260 N.3   193  LYS193     -0.1314
    117  N         76.5820   15.5700   30.9810 N.3   195  PHE195     -0.1241
    118  CA        75.3940   15.7970   31.7930 C.3   195  PHE195      0.1605
    119  C         74.4970   14.5930   31.6870 C.2   195  PHE195      0.2264
    120  O         73.7530   14.2790   32.6110 O.2   195  PHE195     -0.2867
    121  CB        74.6440   17.0390   31.3570 C.3   195  PHE195      0.0534
    122  CG        75.3130   18.3330   31.7360 C.ar  195  PHE195     -0.0203
    123  CD1       75.0200   18.9610   32.9490 C.ar  195  PHE195     -0.0042
    124  CD2       76.2260   18.9550   30.8650 C.ar  195  PHE195     -0.0042
    125  CE1       75.6260   20.1600   33.2750 C.ar  195  PHE195     -0.0003
    126  CE2       76.8160   20.1600   31.1910 C.ar  195  PHE195     -0.0003
    127  CZ        76.5140   20.7510   32.3880 C.ar  195  PHE195     -0.0000
    128  N         75.1980   12.1890   34.4960 N.3   198  HIS198     -0.1241
    129  CA        75.1100   12.5960   35.9060 C.3   198  HIS198      0.1621
    130  C         74.1910   11.7110   36.7280 C.2   198  HIS198      0.2264
    131  O         74.6130   11.2080   37.7530 O.2   198  HIS198     -0.2867
    132  CB        74.7340   14.0700   36.0910 C.3   198  HIS198      0.0745
    133  CG        75.7870   15.0410   35.6370 C.ar  198  HIS198      0.0817
    134  ND1       75.6590   16.4020   35.8020 N.ar  198  HIS198     -0.2268
    135  CD2       76.9860   14.8500   35.0340 C.ar  198  HIS198      0.1154
    136  CE1       76.7250   17.0050   35.3050 C.ar  198  HIS198      0.1986
    137  NE2       77.5460   16.0870   34.8340 N.ar  198  HIS198     -0.2212
    138  N         81.6170   27.4880   41.7200 N.3   231  GLY231     -0.1210
    139  CA        82.7100   26.6710   41.1560 C.3   231  GLY231      0.1956
    140  C         82.2550   25.5010   40.2940 C.2   231  GLY231      0.2612
    141  O         81.1260   25.0220   40.4300 O.2   231  GLY231     -0.2717
    142  N         83.1230   25.0020   39.4250 N.am  232  GLY232     -0.1942
    143  CA        82.7310   23.9280   38.4770 C.3   232  GLY232      0.2014
    144  C         82.1700   22.6480   39.1060 C.2   232  GLY232      0.2639
    145  O         81.3040   21.9640   38.5700 O.2   232  GLY232     -0.2714
    146  N         82.6520   22.2980   40.2710 N.am  233  THR233     -0.1950
    147  CA        82.1770   21.0710   40.8460 C.3   233  THR233      0.1897
    148  C         80.6650   21.0800   41.0120 C.2   233  THR233      0.2313
    149  O         80.0420   20.0330   40.9170 O.2   233  THR233     -0.2863
    150  CB        82.9290   20.7630   42.1270 C.3   233  THR233      0.1794
    151  OG1       84.3100   20.8330   41.8050 O.3   233  THR233     -0.2208
    152  CG2       82.6200   19.3810   42.6600 C.3   233  THR233      0.0378
    153  N         78.3580   22.0840   39.0830 N.3   235  TYR235     -0.1227
    154  CA        77.7050   21.7530   37.8250 C.3   235  TYR235      0.1736
    155  C         77.0120   20.4080   37.8330 C.2   235  TYR235      0.2595
    156  O         76.1650   20.1460   36.9730 O.2   235  TYR235     -0.2718
    157  CB        78.7200   21.6890   36.7030 C.3   235  TYR235      0.0548
    158  CG        78.6200   22.8110   35.7280 C.ar  235  TYR235     -0.0200
    159  CD1       77.4150   23.1020   35.1000 C.ar  235  TYR235     -0.0009
    160  CD2       79.7410   23.5720   35.4140 C.ar  235  TYR235     -0.0009
    161  CE1       77.3110   24.1300   34.1910 C.ar  235  TYR235      0.0417
    162  CE2       79.6560   24.6130   34.5020 C.ar  235  TYR235      0.0417
    163  CZ        78.4290   24.8830   33.8950 C.ar  235  TYR235      0.1957
    164  OH        78.3520   25.9120   32.9910 O.3   235  TYR235     -0.2866
    165  N         77.3680   19.5520   38.7820 N.am  236  LEU236     -0.1980
    166  CA        76.8460   18.2210   38.8120 C.3   236  LEU236      0.1596
    167  C         75.3740   18.2630   39.1080 C.2   236  LEU236      0.2287
    168  O         74.9790   18.7270   40.1680 O.2   236  LEU236     -0.2864
    169  CB        77.5360   17.4610   39.9000 C.3   236  LEU236      0.0297
    170  CG        77.3710   15.9550   39.8150 C.3   236  LEU236      0.0022
    171  CD1       77.6940   15.5100   38.4000 C.3   236  LEU236      0.0001
    172  CD2       78.2870   15.3090   40.8560 C.3   236  LEU236      0.0001
    173  N         80.7270   27.3080   37.6880 N.3   258  LEU258     -0.1245
    174  CA        82.1090   27.5170   37.2950 C.3   258  LEU258      0.1561
    175  C         82.4670   28.9660   36.9310 C.2   258  LEU258      0.2260
    176  O         83.6220   29.3980   37.1100 O.2   258  LEU258     -0.2867
    177  CB        82.4170   26.6310   36.0890 C.3   258  LEU258      0.0270
    178  CG        83.8270   26.4800   35.5190 C.3   258  LEU258      0.0019
    179  CD1       83.9920   25.1130   34.8580 C.3   258  LEU258      0.0001
    180  CD2       84.1520   27.6160   34.5580 C.3   258  LEU258      0.0001
    181  N         83.2850   32.8340   39.6020 N.3   261  THR261     -0.1204
    182  CA        84.4740   33.5220   40.0110 C.3   261  THR261      0.1979
    183  C         85.1220   34.2570   38.8520 C.2   261  THR261      0.2459
    184  O         85.5290   35.4220   39.0280 O.2   261  THR261     -0.2732
    185  CB        85.4560   32.6020   40.6800 C.3   261  THR261      0.1783
    186  OG1       84.9360   32.1730   41.9570 O.3   261  THR261     -0.2211
    187  CG2       86.7890   33.3200   40.8680 C.3   261  THR261      0.0376
    188  N         85.2110   33.6130   37.6540 N.am  262  PRO262     -0.2728
    189  CA        85.8000   34.3610   36.5310 C.3   262  PRO262      0.1401
    190  C         85.0070   35.6250   36.2100 C.2   262  PRO262      0.2269
    191  O         85.6060   36.6570   35.8670 O.2   262  PRO262     -0.2865
    192  CB        85.7610   33.3750   35.3630 C.3   262  PRO262      0.0296
    193  CG        85.7000   32.0790   35.9720 C.3   262  PRO262      0.0237
    194  CD        84.9780   32.2060   37.2880 C.3   262  PRO262      0.0939
@<TRIPOS>BOND
     1    39    41   ar
     2    39    38   ar
     3    41    42   ar
     4    33    34    1
     5    36    35    2
     6    38    37    1
     7    38    40   ar
     8    37    34    1
     9    34    35    1
    10    42    40   ar
    11    42    44   ar
    12   116   115    1
    13    40    43   ar
    14   124   126   ar
    15   124   122   ar
    16    44    46   ar
    17   117   118    1
    18   111   110    2
    19   126   127   ar
    20   115   114    1
    21   121   122    1
    22   121   118    1
    23   119   118    1
    24   119   120    2
    25   122   123   ar
    26   110   109    1
    27   112   109    1
    28   112   113    1
    29    43    45   ar
    30   114   113    1
    31    46    45   ar
    32   127   125   ar
    33   109   108    1
    34   123   125   ar
    35    92    93    2
    36    92    91    1
    37   164   163    1
    38    29    26    1
    39    29    30    1
    40   108   101   am
    41    26    27    1
    42    26    25    1
    43    95    94    1
    44    95    96    1
    45    27    28    2
    46    23    22    2
    47    94    91    1
    48   163   161   ar
    49   163   162   ar
    50    99   100    1
    51    91    90    1
    52   161   159   ar
    53   101   102    2
    54   101   100    1
    55    98    96   ar
    56    30    31   ar
    57    30    32   ar
    58   128   129    1
    59   162   160   ar
    60     1     2    1
    61   180   178    1
    62    96    97   ar
    63    25    22   am
    64     4     3    2
    65    22    21    1
    66   137   135   ar
    67   137   136   ar
    68   179   178    1
    69   100   103    1
    70   135   133   ar
    71   159   158   ar
    72   136   134   ar
    73   192   193    1
    74   192   189    1
    75   160   158   ar
    76   178   177    1
    77     3     2    1
    78   133   134   ar
    79   133   132    1
    80     2     5    1
    81   158   157    1
    82   191   190    2
    83   129   132    1
    84   129   130    1
    85   103   104    1
    86   193   194    1
    87   177   174    1
    88     5     6    1
    89    21    24    1
    90    21    20    1
    91   190   189    1
    92   189   188    1
    93   157   154    1
    94   130   131    2
    95     8     6   ar
    96   175   176    2
    97   175   174    1
    98   156   155    2
    99     9    10    1
   100    20    15   am
   101    12    11    2
   102     6     7   ar
   103   104   105    1
   104   194   188    1
   105   174   173    1
   106   106   105    1
   107   106   107    1
   108   188   183   am
   109   154   155    1
   110   154   153    1
   111   155   165   am
   112    16    15    2
   113    15    14    1
   114    11    10    1
   115    11    13   am
   116   171   170    1
   117   143   144    1
   118   143   142    1
   119   145   144    2
   120   165   166    1
   121   166   167    1
   122   166   169    1
   123   183   184    2
   124   183   182    1
   125    13    14    1
   126    14    17    1
   127   144   146   am
   128   167   168    2
   129   142   140   am
   130   181   182    1
   131   170   169    1
   132   170   172    1
   133   182   185    1
   134   146   147    1
   135   140   141    2
   136   140   139    1
   137    89    87    1
   138    17    18    1
   139    17    19    1
   140   185   187    1
   141   185   186    1
   142   147   148    1
   143   147   150    1
   144    69    68    1
   145    69    70    1
   146   149   148    2
   147    87    84    1
   148    87    88    1
   149   139   138    1
   150    68    66   am
   151    82    81    2
   152    84    83    1
   153    84    85    1
   154    81    83   am
   155    81    80    1
   156   151   150    1
   157    86    85    2
   158    80    79    1
   159    70    71    2
   160    66    65    1
   161    66    67    2
   162    55    53   ar
   163   150   152    1
   164    65    64    1
   165    53    52    1
   166    53    54   ar
   167    52    51    1
   168    62    61   ar
   169    63    61   ar
   170    61    60    1
   171    51    48    1
   172    48    47    1
   173    48    49    1
   174    72    73    1
   175    50    49    2
   176    77    76    1
   177    75    74    2
   178    58    59    2
   179    58    57    1
   180    60    57    1
   181    57    56    1
   182    73    74    1
   183    73    76    1
   184    76    78    1
