@<TRIPOS>MOLECULE
tmp/3h1vA01.pdb
 197 191 0 0 0
SMALL
GASTEIGER

@<TRIPOS>ATOM
      1  N         31.6720   15.1810   57.1840 N.3    47  TYR47      -0.1227
      2  CA        32.2700   16.5480   56.9280 C.3    47  TYR47       0.1736
      3  C         33.3040   16.9500   57.9530 C.2    47  TYR47       0.2595
      4  O         33.7890   18.0920   57.9910 O.2    47  TYR47      -0.2718
      5  CB        31.1610   17.6010   56.6500 C.3    47  TYR47       0.0548
      6  CG        30.5710   17.3610   55.2760 C.ar   47  TYR47      -0.0200
      7  CD1       31.1330   17.9590   54.1090 C.ar   47  TYR47      -0.0009
      8  CD2       29.4840   16.5200   55.1200 C.ar   47  TYR47      -0.0009
      9  CE1       30.5690   17.6990   52.7920 C.ar   47  TYR47       0.0417
     10  CE2       28.9560   16.2620   53.8970 C.ar   47  TYR47       0.0417
     11  CZ        29.4730   16.8690   52.7420 C.ar   47  TYR47       0.1957
     12  OH        28.9010   16.5060   51.5660 O.3    47  TYR47      -0.2866
     13  N         33.6610   15.9920   58.8240 N.am   48  VAL48      -0.1966
     14  CA        34.7550   16.2250   59.7700 C.3    48  VAL48       0.1727
     15  C         36.0640   15.7850   59.0820 C.2    48  VAL48       0.2616
     16  O         36.2370   14.6070   58.7470 O.2    48  VAL48      -0.2715
     17  CB        34.5590   15.4000   61.1040 C.3    48  VAL48       0.0290
     18  CG1       35.8180   15.4150   61.9090 C.3    48  VAL48       0.0023
     19  CG2       33.4920   15.9330   61.9230 C.3    48  VAL48       0.0023
     20  N         37.0150   16.7110   58.9110 N.am   49  ARG49      -0.1963
     21  CA        38.1950   16.4510   58.0850 C.3    49  ARG49       0.1729
     22  C         39.4730   16.4890   58.8790 C.2    49  ARG49       0.2617
     23  O         39.5610   17.1590   59.9240 O.2    49  ARG49      -0.2715
     24  CB        38.3000   17.4940   56.9010 C.3    49  ARG49       0.0348
     25  CG        37.0480   17.6320   56.0640 C.3    49  ARG49       0.0492
     26  CD        37.1260   18.8290   55.1230 C.3    49  ARG49       0.2205
     27  NE        36.0730   18.7360   54.0990 N.pl3  49  ARG49      -0.0865
     28  CZ        36.2970   18.3370   52.8480 C.cat  49  ARG49       0.5346
     29  NH1       37.5520   18.0170   52.4500 N.pl3  49  ARG49       0.1354
     30  NH2       35.2670   18.2510   51.9940 N.pl3  49  ARG49       0.1354
     31  N         40.4900   15.8360   58.3360 N.am   50  SER50      -0.1936
     32  CA        41.8210   15.8880   58.9280 C.3    50  SER50       0.2055
     33  C         42.4730   17.2560   58.8270 C.2    50  SER50       0.2644
     34  O         42.0280   18.1110   58.0630 O.2    50  SER50      -0.2714
     35  CB        42.7400   14.8330   58.3370 C.3    50  SER50       0.2130
     36  OG        42.8790   14.9760   56.9410 O.3    50  SER50      -0.2179
     37  N         43.5090   17.4170   59.6430 N.am   51  THR51      -0.1937
     38  CA        44.3060   18.6450   59.8330 C.3    51  THR51       0.2013
     39  C         43.6330   19.7620   60.6770 C.2    51  THR51       0.2484
     40  O         42.3870   19.8540   60.7630 O.2    51  THR51      -0.2729
     41  CB        45.1260   19.1220   58.5390 C.3    51  THR51       0.1807
     42  OG1       44.2480   19.5730   57.4990 O.3    51  THR51      -0.2208
     43  CG2       46.0600   17.9940   58.0060 C.3    51  THR51       0.0379
     44  N         44.4750   20.5630   61.3830 N.am   52  PRO52      -0.2726
     45  CA        43.9160   21.5960   62.2420 C.3    52  PRO52       0.1402
     46  C         43.8000   22.9270   61.5130 C.2    52  PRO52       0.2269
     47  O         44.7200   23.7650   61.6120 O.2    52  PRO52      -0.2865
     48  CB        44.9420   21.6760   63.3960 C.3    52  PRO52       0.0296
     49  CG        46.2730   21.2860   62.7590 C.3    52  PRO52       0.0237
     50  CD        45.9580   20.5470   61.4550 C.3    52  PRO52       0.0939
     51  N         50.1010   20.6860   73.0090 N.3    82  GLU82      -0.1231
     52  CA        49.9100   19.8730   71.8370 C.3    82  GLU82       0.1699
     53  C         48.9350   20.5920   70.9020 C.2    82  GLU82       0.2593
     54  O         48.9400   20.4100   69.6540 O.2    82  GLU82      -0.2718
     55  CB        49.3690   18.5070   72.2670 C.3    82  GLU82       0.0402
     56  CG        50.1970   17.8110   73.4070 C.3    82  GLU82       0.1161
     57  CD        51.5660   17.2790   72.9380 C.2    82  GLU82       0.3649
     58  OE1       51.6790   16.9200   71.7350 O.co2  82  GLU82      -0.2457
     59  OE2       52.5220   17.2110   73.7690 O.co2  82  GLU82      -0.2457
     60  N         48.1360   21.4450   71.5260 N.am   83  GLY83      -0.1942
     61  CA        47.0370   22.0640   70.8500 C.3    83  GLY83       0.2014
     62  C         45.9770   22.3760   71.8700 C.2    83  GLY83       0.2638
     63  O         46.2760   22.9100   72.9190 O.2    83  GLY83      -0.2714
     64  N         44.7430   22.0140   71.5520 N.am   84  GLN84      -0.1977
     65  CA        43.6110   22.5480   72.2660 C.3    84  GLN84       0.1601
     66  C         43.0720   21.6430   73.3600 C.2    84  GLN84       0.2287
     67  O         42.6080   20.5050   73.0830 O.2    84  GLN84      -0.2864
     68  CB        42.4850   22.9320   71.3090 C.3    84  GLN84       0.0394
     69  CG        42.6890   24.2840   70.6330 C.3    84  GLN84       0.0908
     70  CD        43.5470   24.1370   69.4200 C.2    84  GLN84       0.2608
     71  OE1       44.5600   24.8330   69.2580 O.2    84  GLN84      -0.2717
     72  NE2       43.1680   23.1980   68.5560 N.am   84  GLN84      -0.0878
     73  N         26.4820   19.0190   55.0800 N.3   144  ASP144     -0.1225
     74  CA        27.6090   19.7080   55.6700 C.3   144  ASP144      0.1805
     75  C         27.6970   19.4590   57.1820 C.2   144  ASP144      0.2597
     76  O         26.8280   18.8150   57.7690 O.2   144  ASP144     -0.2718
     77  CB        27.4870   21.2050   55.4340 C.3   144  ASP144      0.1424
     78  CG        28.8180   21.8690   55.1530 C.2   144  ASP144      0.3668
     79  OD1       29.7810   21.7550   55.9550 O.co2 144  ASP144     -0.2456
     80  OD2       28.8980   22.5410   54.0930 O.co2 144  ASP144     -0.2456
     81  N         28.7390   20.0110   57.7780 N.am  145  ILE145     -0.1980
     82  CA        29.0500   19.8910   59.1880 C.3   145  ILE145      0.1595
     83  C         27.9080   20.4010   60.0690 C.2   145  ILE145      0.2287
     84  O         27.8260   20.0430   61.2930 O.2   145  ILE145     -0.2864
     85  CB        30.3720   20.6350   59.4760 C.3   145  ILE145      0.0276
     86  CG1       30.9660   20.2890   60.8480 C.3   145  ILE145      0.0022
     87  CG2       30.2290   22.1910   59.3060 C.3   145  ILE145      0.0022
     88  CD1       31.1890   18.7210   61.0580 C.3   145  ILE145      0.0001
     89  N         35.9770    9.9070   69.2320 N.3   196  MET196     -0.1230
     90  CA        37.2970    9.9340   68.5950 C.3   196  MET196      0.1702
     91  C         38.0040   11.3100   68.7210 C.2   196  MET196      0.2592
     92  O         39.2310   11.4340   69.1240 O.2   196  MET196     -0.2718
     93  CB        37.1190    9.5570   67.0730 C.3   196  MET196      0.0401
     94  CG        38.4190    9.8830   66.1940 C.3   196  MET196      0.0596
     95  SD        38.0220    9.8150   64.4500 S.3   196  MET196     -0.1393
     96  CE        37.0820   11.3810   64.3150 C.3   196  MET196      0.0692
     97  N         37.2530   12.3450   68.3160 N.am  197  ILE197     -0.1980
     98  CA        37.6950   13.7790   68.4580 C.3   197  ILE197      0.1595
     99  C         38.1760   14.0600   69.8510 C.2   197  ILE197      0.2287
    100  O         39.3130   14.5620   70.0600 O.2   197  ILE197     -0.2864
    101  CB        36.5520   14.7870   67.9760 C.3   197  ILE197      0.0276
    102  CG1       36.5640   14.8860   66.4620 C.3   197  ILE197      0.0022
    103  CG2       36.8020   16.1780   68.5470 C.3   197  ILE197      0.0022
    104  CD1       35.2750   14.7960   65.9270 C.3   197  ILE197      0.0001
    105  N         41.7490   12.8440   70.4050 N.3   200  TYR200     -0.1227
    106  CA        42.8000   13.2280   69.4580 C.3   200  TYR200      0.1736
    107  C         43.9500   14.1410   70.0360 C.2   200  TYR200      0.2595
    108  O         45.1020   14.0160   69.6370 O.2   200  TYR200     -0.2718
    109  CB        42.1640   13.7350   68.1480 C.3   200  TYR200      0.0548
    110  CG        43.1510   13.8960   67.0090 C.ar  200  TYR200     -0.0200
    111  CD1       43.4460   12.8270   66.1660 C.ar  200  TYR200     -0.0009
    112  CD2       43.8460   15.1340   66.8180 C.ar  200  TYR200     -0.0009
    113  CE1       44.4070   12.9550   65.1230 C.ar  200  TYR200      0.0417
    114  CE2       44.7970   15.2680   65.7940 C.ar  200  TYR200      0.0417
    115  CZ        45.0520   14.1920   64.9330 C.ar  200  TYR200      0.1957
    116  OH        45.9830   14.3220   63.8820 O.3   200  TYR200     -0.2866
    117  N         43.6560   14.9830   71.0260 N.am  201  TYR201     -0.1976
    118  CA        44.6930   15.8220   71.7160 C.3   201  TYR201      0.1639
    119  C         45.7000   14.9530   72.4540 C.2   201  TYR201      0.2290
    120  O         46.9440   15.1150   72.3610 O.2   201  TYR201     -0.2864
    121  CB        44.0170   16.8230   72.6840 C.3   201  TYR201      0.0560
    122  CG        44.9770   17.6630   73.5540 C.ar  201  TYR201     -0.0198
    123  CD1       45.9450   18.5140   72.9850 C.ar  201  TYR201     -0.0009
    124  CD2       44.8920   17.6240   74.9180 C.ar  201  TYR201     -0.0009
    125  CE1       46.7990   19.2800   73.8020 C.ar  201  TYR201      0.0417
    126  CE2       45.7400   18.3710   75.7250 C.ar  201  TYR201      0.0417
    127  CZ        46.6770   19.1860   75.1790 C.ar  201  TYR201      0.1957
    128  OH        47.5090   19.8830   76.0240 O.3   201  TYR201     -0.2866
    129  N         47.3530   11.5980   68.6610 N.3   204  HIS204     -0.1241
    130  CA        47.1210   11.9200   67.2640 C.3   204  HIS204      0.1621
    131  C         46.9260   10.6960   66.3720 C.2   204  HIS204      0.2264
    132  O         46.5030   10.8340   65.2010 O.2   204  HIS204     -0.2867
    133  CB        48.1860   12.8620   66.6750 C.3   204  HIS204      0.0745
    134  CG        48.3300   14.1700   67.4140 C.ar  204  HIS204      0.0817
    135  ND1       49.4060   15.0130   67.2320 N.ar  204  HIS204     -0.2268
    136  CD2       47.5380   14.7700   68.3450 C.ar  204  HIS204      0.1154
    137  CE1       49.2780   16.0710   68.0200 C.ar  204  HIS204      0.1986
    138  NE2       48.1510   15.9500   68.7050 N.ar  204  HIS204     -0.2212
    139  N         44.6260    8.6420   67.0930 N.3   206  CYS206     -0.1221
    140  CA        43.2270    8.2610   67.3050 C.3   206  CYS206      0.1808
    141  C         42.4040    8.6360   66.0880 C.2   206  CYS206      0.2601
    142  O         42.0810    9.8110   65.9260 O.2   206  CYS206     -0.2717
    143  CB        42.6270    8.8930   68.5930 C.3   206  CYS206      0.0970
    144  SG        40.9610    8.3880   68.8220 S.3   206  CYS206     -0.0800
    145  N         42.0360    7.6600   65.2650 N.am  207  GLU207     -0.1979
    146  CA        41.3140    7.9270   64.0280 C.3   207  GLU207      0.1602
    147  C         40.2070    6.9810   63.8720 C.2   207  GLU207      0.2287
    148  O         39.6520    6.8420   62.7710 O.2   207  GLU207     -0.2864
    149  CB        42.2540    7.7730   62.8000 C.3   207  GLU207      0.0415
    150  CG        43.4010    8.7980   62.7970 C.3   207  GLU207      0.1163
    151  CD        44.1200    8.8150   61.4470 C.2   207  GLU207      0.3649
    152  OE1       43.4690    9.2170   60.4280 O.co2 207  GLU207     -0.2457
    153  OE2       45.3050    8.3760   61.4210 O.co2 207  GLU207     -0.2457
    154  N         38.6040    7.6020   60.0400 N.3   221  MET221     -0.1245
    155  CA        39.1460    8.4680   59.0380 C.3   221  MET221      0.1570
    156  C         39.4380    7.7340   57.7450 C.2   221  MET221      0.2261
    157  O         40.4320    6.9960   57.6370 O.2   221  MET221     -0.2867
    158  CB        40.4090    9.1400   59.5780 C.3   221  MET221      0.0387
    159  CG        40.1570   10.0780   60.7920 C.3   221  MET221      0.0595
    160  SD        38.7760   11.2870   60.7450 S.3   221  MET221     -0.1393
    161  CE        39.3980   12.3680   59.4120 C.3   221  MET221      0.0692
    162  N         35.0770   20.5960   70.4130 N.3   437  LEU437     -0.1231
    163  CA        36.2700   20.7340   69.6150 C.3   437  LEU437      0.1693
    164  C         35.9960   20.8870   68.1110 C.2   437  LEU437      0.2591
    165  O         36.7020   21.6070   67.4230 O.2   437  LEU437     -0.2718
    166  CB        37.1750   19.5350   69.8750 C.3   437  LEU437      0.0284
    167  CG        37.8710   19.5810   71.2290 C.3   437  LEU437      0.0019
    168  CD1       38.0840   18.1420   71.7280 C.3   437  LEU437      0.0001
    169  CD2       39.1500   20.3820   71.1610 C.3   437  LEU437      0.0001
    170  N         34.9820   20.1820   67.6190 N.am  438  VAL438     -0.1980
    171  CA        34.5180   20.3130   66.2600 C.3   438  VAL438      0.1595
    172  C         33.9790   21.7490   66.0580 C.2   438  VAL438      0.2287
    173  O         34.4130   22.4490   65.1580 O.2   438  VAL438     -0.2864
    174  CB        33.4880   19.2140   65.8900 C.3   438  VAL438      0.0276
    175  CG1       33.1190   19.3090   64.4080 C.3   438  VAL438      0.0022
    176  CG2       34.0930   17.8550   66.1280 C.3   438  VAL438      0.0022
    177  N         36.6090   24.3710   65.7790 N.3   441  VAL441     -0.1231
    178  CA        37.1610   24.3810   64.4120 C.3   441  VAL441      0.1692
    179  C         36.1420   24.9260   63.4010 C.2   441  VAL441      0.2591
    180  O         36.5170   25.6880   62.5110 O.2   441  VAL441     -0.2718
    181  CB        37.6680   22.9840   63.9000 C.3   441  VAL441      0.0266
    182  CG1       37.9740   23.0170   62.3720 C.3   441  VAL441      0.0020
    183  CG2       38.8650   22.4680   64.7080 C.3   441  VAL441      0.0020
    184  N         34.8760   24.5250   63.5200 N.am  442  ALA442     -0.1980
    185  CA        33.8090   25.0570   62.6660 C.3   442  ALA442      0.1597
    186  C         33.6790   26.5790   62.8090 C.2   442  ALA442      0.2287
    187  O         33.0630   27.2150   61.9590 O.2   442  ALA442     -0.2864
    188  CB        32.4490   24.3770   62.9440 C.3   442  ALA442      0.0319
    189  N         35.6170   29.5400   60.0330 N.3   445  LYS445     -0.1245
    190  CA        34.8250   30.1850   58.9970 C.3   445  LYS445      0.1561
    191  C         34.1860   31.4630   59.5730 C.2   445  LYS445      0.2260
    192  O         34.5920   32.5780   59.1880 O.2   445  LYS445     -0.2867
    193  CB        33.8080   29.2410   58.2910 C.3   445  LYS445      0.0271
    194  CG        33.6750   27.7850   58.8130 C.3   445  LYS445      0.0035
    195  CD        34.8450   26.8580   58.3810 C.3   445  LYS445      0.0206
    196  CE        35.7730   26.5030   59.5620 C.3   445  LYS445      0.1093
    197  NZ        37.1770   26.2150   59.1720 N.3   445  LYS445     -0.1314
@<TRIPOS>BOND
     1    12    11    1
     2    30    28    1
     3    29    28    1
     4    11     9   ar
     5    11    10   ar
     6     9     7   ar
     7    28    27    2
     8    10     8   ar
     9    80    78   ar
    10    27    26    1
    11     7     6   ar
    12    73    74    1
    13     8     6   ar
    14    26    25    1
    15    78    77    1
    16    78    79   ar
    17     6     5    1
    18    77    74    1
    19    74    75    1
    20    25    24    1
    21     5     2    1
    22    24    21    1
    23     2     1    1
    24     2     3    1
    25    36    35    1
    26    75    76    2
    27    75    81   am
    28    42    41    1
    29   157   156    2
    30   156   155    1
    31    81    82    1
    32     3     4    2
    33     3    13   am
    34    43    41    1
    35    34    33    2
    36    21    22    1
    37    21    20    1
    38   193   194    1
    39   193   190    1
    40    31    22   am
    41    31    32    1
    42    35    32    1
    43   195   194    1
    44   195   196    1
    45    41    38    1
    46    16    15    2
    47    13    14    1
    48    33    32    1
    49    33    37   am
    50    22    23    2
    51    20    15   am
    52   190   191    1
    53   190   189    1
    54   155   158    1
    55   155   154    1
    56    15    14    1
    57   197   196    1
    58    82    85    1
    59    82    83    1
    60   192   191    2
    61    87    85    1
    62   161   160    1
    63    85    86    1
    64   158   159    1
    65    37    38    1
    66    14    17    1
    67    38    39    1
    68    83    84    2
    69   152   151   ar
    70    39    40    2
    71    39    44   am
    72   160   159    1
    73    86    88    1
    74    17    18    1
    75    17    19    1
    76    44    50    1
    77    44    45    1
    78   153   151   ar
    79   151   150    1
    80    50    49    1
    81    46    47    2
    82    46    45    1
    83   187   186    2
    84    45    48    1
    85   182   181    1
    86   180   179    2
    87   185   186    1
    88   185   188    1
    89   185   184    1
    90    49    48    1
    91   148   147    2
    92   150   149    1
    93   149   146    1
    94   179   184   am
    95   179   178    1
    96   147   146    1
    97   116   115    1
    98   181   178    1
    99   181   183    1
   100   146   145    1
   101    96    95    1
   102   175   174    1
   103   178   177    1
   104    95    94    1
   105   115   113   ar
   106   115   114   ar
   107   113   111   ar
   108   173   172    2
   109   132   131    2
   110   145   141   am
   111   114   112   ar
   112   174   176    1
   113   174   171    1
   114   142   141    2
   115   104   102    1
   116   172   171    1
   117   141   140    1
   118   111   110   ar
   119    94    93    1
   120   171   170    1
   121   131   130    1
   122   102   101    1
   123   133   130    1
   124   133   134    1
   125   112   110   ar
   126   110   109    1
   127    93    90    1
   128   139   140    1
   129   135   134   ar
   130   135   137   ar
   131   130   129    1
   132   140   143    1
   133   134   136   ar
   134   165   164    2
   135   170   164   am
   136   101    98    1
   137   101   103    1
   138   137   138   ar
   139   164   163    1
   140   109   106    1
   141    97    98    1
   142    97    91   am
   143   136   138   ar
   144    98    99    1
   145    72    70   am
   146   143   144    1
   147    90    91    1
   148    90    89    1
   149    91    92    2
   150    71    70    2
   151    70    69    1
   152   106   107    1
   153   106   105    1
   154   163   166    1
   155   163   162    1
   156   108   107    2
   157    54    53    2
   158    99   100    2
   159   166   167    1
   160   107   117   am
   161    69    68    1
   162    61    60    1
   163    61    62    1
   164    53    60   am
   165    53    52    1
   166   117   118    1
   167   169   167    1
   168   167   168    1
   169    68    65    1
   170    64    62   am
   171    64    65    1
   172   118   119    1
   173   118   121    1
   174    58    57   ar
   175    52    55    1
   176    52    51    1
   177    62    63    2
   178    65    66    1
   179    55    56    1
   180   120   119    2
   181   121   122    1
   182    57    56    1
   183    57    59   ar
   184   123   122   ar
   185   123   125   ar
   186    67    66    2
   187   122   124   ar
   188   125   127   ar
   189   124   126   ar
   190   127   126   ar
   191   127   128    1
