@<TRIPOS>MOLECULE
tmp/3h1yA00.pdb
 106 104 0 0 0
SMALL
GASTEIGER

@<TRIPOS>ATOM
      1  N         11.5430   35.6830   24.4870 N.3    99  HIS99      -0.1227
      2  CA        11.6420   37.0990   24.7790 C.3    99  HIS99       0.1737
      3  C         10.8150   37.4460   26.0210 C.2    99  HIS99       0.2438
      4  O          9.6010   37.2900   26.0160 O.2    99  HIS99      -0.2733
      5  CB        11.0800   37.9050   23.6100 C.3    99  HIS99       0.0758
      6  CG        11.6780   37.5550   22.2790 C.ar   99  HIS99       0.0818
      7  ND1       13.0330   37.5940   22.0400 N.ar   99  HIS99      -0.2268
      8  CD2       11.1000   37.1920   21.1040 C.ar   99  HIS99       0.1154
      9  CE1       13.2720   37.2370   20.7870 C.ar   99  HIS99       0.1986
     10  NE2       12.1180   36.9940   20.1950 N.ar   99  HIS99      -0.2212
     11  N         11.4770   37.9080   27.0880 N.am  100  PRO100     -0.2729
     12  CA        10.7940   38.1930   28.3510 C.3   100  PRO100      0.1401
     13  C          9.7340   39.2850   28.2170 C.2   100  PRO100      0.2269
     14  O          9.7760   40.0920   27.2900 O.2   100  PRO100     -0.2865
     15  CB        11.9300   38.6380   29.2790 C.3   100  PRO100      0.0296
     16  CG        13.1960   38.1650   28.6300 C.3   100  PRO100      0.0237
     17  CD        12.9170   38.1890   27.1500 C.3   100  PRO100      0.0939
     18  N         11.8670   42.2750   31.4620 N.3   105  SER105     -0.1217
     19  CA        12.8490   42.9470   30.6060 C.3   105  SER105      0.1889
     20  C         13.4630   44.1410   31.3540 C.2   105  SER105      0.2288
     21  O         14.6660   44.4030   31.2630 O.2   105  SER105     -0.2866
     22  CB        12.1710   43.4490   29.3170 C.3   105  SER105      0.2089
     23  OG        11.7710   42.3670   28.4810 O.3   105  SER105     -0.2183
     24  N          9.3560   45.0680   26.4710 N.3   131  HIS131     -0.1226
     25  CA         9.0630   44.0280   25.5130 C.3   131  HIS131      0.1752
     26  C          8.3980   44.6530   24.3210 C.2   131  HIS131      0.2596
     27  O          7.4750   45.4490   24.4670 O.2   131  HIS131     -0.2718
     28  CB         8.1300   42.9420   26.0550 C.3   131  HIS131      0.0759
     29  CG         7.6940   41.9700   25.0000 C.ar  131  HIS131      0.0818
     30  ND1        6.4720   42.0460   24.3680 N.ar  131  HIS131     -0.2268
     31  CD2        8.3410   40.9130   24.4430 C.ar  131  HIS131      0.1154
     32  CE1        6.3720   41.0670   23.4820 C.ar  131  HIS131      0.1986
     33  NE2        7.4980   40.3720   23.5010 N.ar  131  HIS131     -0.2212
     34  N          8.8650   44.2600   23.1430 N.am  132  LYS132     -0.1966
     35  CA         8.2150   44.6100   21.8640 C.3   132  LYS132      0.1713
     36  C          7.9430   43.4140   20.9650 C.2   132  LYS132      0.2458
     37  O          8.6320   42.4310   20.9550 O.2   132  LYS132     -0.2730
     38  CB         8.9810   45.6840   21.0560 C.3   132  LYS132      0.0311
     39  CG         9.3970   46.9460   21.8580 C.3   132  LYS132      0.0038
     40  CD        10.9320   47.0680   21.9670 C.3   132  LYS132      0.0206
     41  CE        11.6310   45.7020   21.9360 C.3   132  LYS132      0.1093
     42  NZ        11.7880   45.0770   23.2900 N.3   132  LYS132     -0.1314
     43  N          6.9200   43.5530   20.1690 N.am  133  PRO133     -0.2716
     44  CA         6.4370   42.6810   19.1390 C.3   133  PRO133      0.1536
     45  C          7.5430   42.2360   18.2210 C.2   133  PRO133      0.2598
     46  O          8.5040   42.9720   18.0100 O.2   133  PRO133     -0.2715
     47  CB         5.5180   43.5890   18.3490 C.3   133  PRO133      0.0310
     48  CG         6.0390   44.9330   18.6020 C.3   133  PRO133      0.0237
     49  CD         6.5890   44.9640   19.9340 C.3   133  PRO133      0.0939
     50  N          7.3980   41.0350   17.6830 N.am  134  GLU134     -0.1978
     51  CA         8.1970   40.5850   16.5410 C.3   134  GLU134      0.1602
     52  C          7.2850   39.8490   15.5570 C.2   134  GLU134      0.2287
     53  O          6.4990   38.9830   15.9280 O.2   134  GLU134     -0.2864
     54  CB         9.3690   39.7440   17.0250 C.3   134  GLU134      0.0415
     55  CG        10.1880   39.0140   16.0390 C.3   134  GLU134      0.1163
     56  CD        11.3410   38.4000   16.7850 C.2   134  GLU134      0.3649
     57  OE1       11.1780   37.2810   17.3030 O.co2 134  GLU134     -0.2457
     58  OE2       12.3750   39.0500   16.9680 O.co2 134  GLU134     -0.2457
     59  N          5.2530   36.8820   17.3180 N.3   249  LEU249     -0.1245
     60  CA         6.0070   36.0900   18.3000 C.3   249  LEU249      0.1561
     61  C          5.8520   36.7320   19.6670 C.2   249  LEU249      0.2260
     62  O          6.4750   37.7400   19.9510 O.2   249  LEU249     -0.2867
     63  CB         7.4790   35.9740   17.8890 C.3   249  LEU249      0.0270
     64  CG         7.5930   35.3260   16.4920 C.3   249  LEU249      0.0019
     65  CD1        8.7190   35.8840   15.6460 C.3   249  LEU249      0.0001
     66  CD2        7.6550   33.8120   16.5910 C.3   249  LEU249      0.0001
     67  N         11.0130   43.9670   13.6380 N.3   266  MET266     -0.1230
     68  CA        11.3110   43.9710   15.0700 C.3   266  MET266      0.1702
     69  C         11.7830   45.3510   15.5210 C.2   266  MET266      0.2592
     70  O         11.8520   46.2890   14.7150 O.2   266  MET266     -0.2718
     71  CB        12.3890   42.9350   15.3830 C.3   266  MET266      0.0401
     72  CG        13.7030   43.2010   14.6400 C.3   266  MET266      0.0596
     73  SD        14.8960   41.8990   14.9680 S.3   266  MET266     -0.1393
     74  CE        15.4420   42.3000   16.6390 C.3   266  MET266      0.0692
     75  N         12.1020   45.4680   16.8130 N.am  267  ALA267     -0.1980
     76  CA        12.7840   46.6560   17.3190 C.3   267  ALA267      0.1597
     77  C         14.2810   46.5170   17.0790 C.2   267  ALA267      0.2287
     78  O         14.7530   45.4470   16.7180 O.2   267  ALA267     -0.2864
     79  CB        12.5030   46.8530   18.7920 C.3   267  ALA267      0.0319
     80  N         16.7650   44.0530   21.3030 N.3   270  ASP270     -0.1225
     81  CA        15.8690   43.1070   21.9260 C.3   270  ASP270      0.1805
     82  C         16.4710   42.3080   23.0610 C.2   270  ASP270      0.2597
     83  O         17.6470   42.4280   23.3890 O.2   270  ASP270     -0.2718
     84  CB        15.2340   42.1980   20.8870 C.3   270  ASP270      0.1424
     85  CG        16.1720   41.1540   20.3960 C.2   270  ASP270      0.3668
     86  OD1       17.3930   41.3400   20.5890 O.co2 270  ASP270     -0.2456
     87  OD2       15.6910   40.1330   19.8310 O.co2 270  ASP270     -0.2456
     88  N         15.6200   41.5070   23.6770 N.am  271  ASN271     -0.1974
     89  CA        16.0400   40.6480   24.7710 C.3   271  ASN271      0.1688
     90  C         15.8290   39.1910   24.3780 C.2   271  ASN271      0.2292
     91  O         14.7800   38.8200   23.8610 O.2   271  ASN271     -0.2864
     92  CB        15.2550   40.9710   26.0390 C.3   271  ASN271      0.1181
     93  CG        15.0880   42.4590   26.2710 C.2   271  ASN271      0.2629
     94  OD1       13.9880   42.9270   26.5270 O.2   271  ASN271     -0.2716
     95  ND2       16.1600   43.1940   26.2010 N.am  271  ASN271     -0.0877
     96  N          5.6380   49.5000   15.4460 N.3   321  PHE321     -0.1241
     97  CA         5.6770   49.3870   14.0040 C.3   321  PHE321      0.1605
     98  C          4.4200   48.7450   13.4580 C.2   321  PHE321      0.2264
     99  O          3.6690   48.0890   14.1830 O.2   321  PHE321     -0.2867
    100  CB         6.9220   48.6360   13.5340 C.3   321  PHE321      0.0534
    101  CG         7.0730   47.2770   14.1440 C.ar  321  PHE321     -0.0203
    102  CD1        7.9830   47.0570   15.1650 C.ar  321  PHE321     -0.0042
    103  CD2        6.3110   46.2150   13.6770 C.ar  321  PHE321     -0.0042
    104  CE1        8.1360   45.7910   15.7040 C.ar  321  PHE321     -0.0003
    105  CE2        6.4440   44.9550   14.2070 C.ar  321  PHE321     -0.0003
    106  CZ         7.3520   44.7310   15.2170 C.ar  321  PHE321     -0.0000
@<TRIPOS>BOND
     1    98    97    1
     2    98    99    2
     3   100    97    1
     4   100   101    1
     5    67    68    1
     6   103   101   ar
     7   103   105   ar
     8    97    96    1
     9   101   102   ar
    10   105   106   ar
    11    72    73    1
    12    72    71    1
    13    70    69    2
    14    73    74    1
    15    68    71    1
    16    68    69    1
    17   102   104   ar
    18   106   104   ar
    19    69    75   am
    20    52    53    2
    21    52    51    1
    22    65    64    1
    23    55    56    1
    24    55    54    1
    25    64    66    1
    26    64    63    1
    27    51    54    1
    28    51    50    1
    29    78    77    2
    30    56    58   ar
    31    56    57   ar
    32    75    76    1
    33    77    76    1
    34    59    60    1
    35    76    79    1
    36    50    45   am
    37    63    60    1
    38    46    45    2
    39    45    44    1
    40    60    61    1
    41    47    48    1
    42    47    44    1
    43    48    49    1
    44    44    43    1
    45    61    62    2
    46    87    85   ar
    47    49    43    1
    48    43    36   am
    49    10     9   ar
    50    10     8   ar
    51    85    86   ar
    52    85    84    1
    53     9     7   ar
    54    84    81    1
    55    37    36    2
    56    36    35    1
    57    38    39    1
    58    38    35    1
    59     8     6   ar
    60    80    81    1
    61    39    40    1
    62    35    34    1
    63    81    82    1
    64    41    40    1
    65    41    42    1
    66     7     6   ar
    67     6     5    1
    68    82    83    2
    69    82    88   am
    70    34    26   am
    71    32    33   ar
    72    32    30   ar
    73    33    31   ar
    74     5     2    1
    75    88    89    1
    76    91    90    2
    77    26    27    2
    78    26    25    1
    79    30    29   ar
    80    90    89    1
    81    31    29   ar
    82     1     2    1
    83    89    92    1
    84     2     3    1
    85    29    28    1
    86    25    28    1
    87    25    24    1
    88     4     3    2
    89     3    11   am
    90    92    93    1
    91    95    93   am
    92    93    94    2
    93    11    17    1
    94    11    12    1
    95    17    16    1
    96    14    13    2
    97    13    12    1
    98    12    15    1
    99    23    22    1
   100    16    15    1
   101    22    19    1
   102    19    20    1
   103    19    18    1
   104    21    20    2
