@<TRIPOS>MOLECULE
tmp/3h21B00.pdb
 123 110 0 0 0
SMALL
GASTEIGER

@<TRIPOS>ATOM
      1  N        -70.0010   58.7330  131.0890 N.3    24  ILE24      -0.1245
      2  CA       -68.7430   59.3460  130.6600 C.3    24  ILE24       0.1561
      3  C        -68.8180   59.7860  129.1770 C.2    24  ILE24       0.2260
      4  O        -68.9830   58.9370  128.2410 O.2    24  ILE24      -0.2867
      5  CB       -67.5570   58.4030  130.8730 C.3    24  ILE24       0.0252
      6  CG1      -67.5180   57.9380  132.3240 C.3    24  ILE24       0.0019
      7  CG2      -66.2470   59.0530  130.4610 C.3    24  ILE24       0.0019
      8  CD1      -66.6580   56.7570  132.4840 C.3    24  ILE24       0.0001
      9  N        -65.4290   67.3380  134.6760 N.3    83  ASP83      -0.1239
     10  CA       -64.3100   66.5450  135.1200 C.3    83  ASP83       0.1674
     11  C        -63.1050   67.4780  135.0570 C.2    83  ASP83       0.2266
     12  O        -62.4540   67.5920  134.0330 O.2    83  ASP83      -0.2867
     13  CB       -64.2200   65.2940  134.2190 C.3    83  ASP83       0.1410
     14  CG       -62.8080   64.6870  134.1290 C.2    83  ASP83       0.3668
     15  OD1      -62.5920   63.7300  133.2950 O.co2  83  ASP83      -0.2456
     16  OD2      -61.9010   65.1250  134.8860 O.co2  83  ASP83      -0.2456
     17  N        -66.4110   67.6950  139.3960 N.3   102  ASN102     -0.1240
     18  CA       -65.9050   66.3390  139.5330 C.3   102  ASN102      0.1653
     19  C        -64.3900   66.2990  139.6220 C.2   102  ASN102      0.2266
     20  O        -63.6730   66.2720  138.5870 O.2   102  ASN102     -0.2867
     21  CB       -66.3630   65.4580  138.3780 C.3   102  ASN102      0.1155
     22  CG       -65.9730   64.0050  138.5870 C.2   102  ASN102      0.2627
     23  OD1      -65.7930   63.5680  139.7370 O.2   102  ASN102     -0.2716
     24  ND2      -65.8530   63.2450  137.4970 N.am  102  ASN102     -0.0877
     25  N        -60.8390   64.9040  140.5240 N.3   104  ILE104     -0.1245
     26  CA       -59.9920   63.7370  140.7680 C.3   104  ILE104      0.1561
     27  C        -58.8760   63.9530  141.8230 C.2   104  ILE104      0.2260
     28  O        -58.1570   62.9970  142.1590 O.2   104  ILE104     -0.2867
     29  CB       -59.4100   63.0780  139.4440 C.3   104  ILE104      0.0252
     30  CG1      -58.4880   64.0330  138.6540 C.3   104  ILE104      0.0019
     31  CG2      -60.5080   62.5400  138.5860 C.3   104  ILE104      0.0019
     32  CD1      -57.3790   63.3320  137.9190 C.3   104  ILE104      0.0001
     33  N        -67.5330   66.5920  143.7450 N.3   125  ILE125     -0.1245
     34  CA       -67.1310   65.2350  144.0080 C.3   125  ILE125      0.1561
     35  C        -65.6740   65.2710  144.3840 C.2   125  ILE125      0.2260
     36  O        -64.8420   65.7580  143.6180 O.2   125  ILE125     -0.2867
     37  CB       -67.3920   64.2730  142.8230 C.3   125  ILE125      0.0252
     38  CG1      -68.8830   64.1410  142.5770 C.3   125  ILE125      0.0019
     39  CG2      -66.8170   62.8840  143.1290 C.3   125  ILE125      0.0019
     40  CD1      -69.2320   63.9220  141.1150 C.3   125  ILE125      0.0001
     41  N        -62.7370   63.0500  145.0590 N.3   127  MET127     -0.1245
     42  CA       -62.2280   61.7010  144.8420 C.3   127  MET127      0.1570
     43  C        -60.9530   61.4180  145.6470 C.2   127  MET127      0.2261
     44  O        -60.0680   62.2660  145.7570 O.2   127  MET127     -0.2867
     45  CB       -61.9880   61.4330  143.3550 C.3   127  MET127      0.0387
     46  CG       -61.7220   59.9600  143.0410 C.3   127  MET127      0.0595
     47  SD       -60.9940   59.6570  141.4070 S.3   127  MET127     -0.1393
     48  CE       -59.2960   60.0670  141.6920 C.3   127  MET127      0.0692
     49  N        -65.6740   59.7120  146.6170 N.3   166  ASP166     -0.1239
     50  CA       -65.3670   58.6940  145.6350 C.3   166  ASP166      0.1674
     51  C        -64.1080   58.0000  146.1470 C.2   166  ASP166      0.2266
     52  O        -63.1490   58.6620  146.4860 O.2   166  ASP166     -0.2867
     53  CB       -65.1820   59.3890  144.2630 C.3   166  ASP166      0.1410
     54  CG       -64.9050   58.4310  143.0970 C.2   166  ASP166      0.3668
     55  OD1      -65.3980   58.7330  141.9700 O.co2 166  ASP166     -0.2456
     56  OD2      -64.1940   57.4170  143.2430 O.co2 166  ASP166     -0.2456
     57  N        -61.0790   54.3890  142.7660 N.3   169  ILE169     -0.1245
     58  CA       -60.5640   53.0910  142.3000 C.3   169  ILE169      0.1561
     59  C        -59.6360   53.3340  141.0800 C.2   169  ILE169      0.2260
     60  O        -59.9690   54.0760  140.1580 O.2   169  ILE169     -0.2867
     61  CB       -61.7350   52.1000  141.9360 C.3   169  ILE169      0.0252
     62  CG1      -62.6530   51.8330  143.1420 C.3   169  ILE169      0.0019
     63  CG2      -61.2080   50.7910  141.4220 C.3   169  ILE169      0.0019
     64  CD1      -61.9910   51.2020  144.4510 C.3   169  ILE169      0.0001
     65  N        -56.7040   54.8370  141.3030 N.3   171  PHE171     -0.1241
     66  CA       -55.7780   55.9270  141.6050 C.3   171  PHE171      0.1605
     67  C        -54.9780   55.6620  142.8760 C.2   171  PHE171      0.2264
     68  O        -55.5340   55.4460  143.9610 O.2   171  PHE171     -0.2867
     69  CB       -56.5130   57.2510  141.7310 C.3   171  PHE171      0.0534
     70  CG       -57.1980   57.6750  140.4790 C.ar  171  PHE171     -0.0203
     71  CD1      -58.4300   57.1280  140.1180 C.ar  171  PHE171     -0.0042
     72  CD2      -56.6180   58.6350  139.6400 C.ar  171  PHE171     -0.0042
     73  CE1      -59.0680   57.5200  138.9650 C.ar  171  PHE171     -0.0003
     74  CE2      -57.2600   59.0330  138.4870 C.ar  171  PHE171     -0.0003
     75  CZ       -58.4940   58.4670  138.1580 C.ar  171  PHE171     -0.0000
     76  N        -69.7560   58.0590  145.0590 N.3   196  LEU196     -0.1245
     77  CA       -69.7370   57.7720  143.6460 C.3   196  LEU196      0.1561
     78  C        -68.6770   56.7190  143.3820 C.2   196  LEU196      0.2260
     79  O        -67.5210   56.8670  143.8530 O.2   196  LEU196     -0.2867
     80  CB       -69.4830   59.0560  142.8330 C.3   196  LEU196      0.0270
     81  CG       -69.5700   58.8670  141.3170 C.3   196  LEU196      0.0019
     82  CD1      -70.2990   60.0670  140.7700 C.3   196  LEU196      0.0001
     83  CD2      -68.2180   58.8140  140.6950 C.3   196  LEU196      0.0001
     84  N        -66.3530   54.8840  140.5050 N.3   198  GLY198     -0.1225
     85  CA       -65.7800   54.8510  139.1550 C.3   198  GLY198      0.1811
     86  C        -64.8260   53.6980  138.8840 C.2   198  GLY198      0.2280
     87  O        -63.6720   53.7410  139.2390 O.2   198  GLY198     -0.2866
     88  N        -65.2610   51.7280  135.7110 N.3   200  SER200     -0.1217
     89  CA       -65.5500   51.4040  134.3070 C.3   200  SER200      0.1889
     90  C        -64.3050   51.2250  133.4970 C.2   200  SER200      0.2288
     91  O        -63.5300   52.1760  133.3470 O.2   200  SER200     -0.2866
     92  CB       -66.3440   52.5090  133.6760 C.3   200  SER200      0.2089
     93  OG       -66.8760   52.0390  132.4750 O.3   200  SER200     -0.2183
     94  N        -61.4700   49.9080  133.9530 N.3   202  LYS202     -0.1245
     95  CA       -60.1930   50.1300  134.5690 C.3   202  LYS202      0.1561
     96  C        -59.2760   48.9550  134.4780 C.2   202  LYS202      0.2260
     97  O        -59.6750   47.8070  134.3250 O.2   202  LYS202     -0.2867
     98  CB       -60.3640   50.5510  136.0220 C.3   202  LYS202      0.0271
     99  CG       -61.0350   51.8380  136.0620 C.3   202  LYS202      0.0035
    100  CD       -60.4880   52.7000  137.0850 C.3   202  LYS202      0.0206
    101  CE       -60.9800   54.0770  136.7800 C.3   202  LYS202      0.1093
    102  NZ       -61.2830   54.7180  138.0650 N.3   202  LYS202     -0.1314
    103  N        -70.0810   55.9070  137.7420 N.3   236  ARG236     -0.1245
    104  CA       -69.5530   56.6370  136.6140 C.3   236  ARG236      0.1563
    105  C        -69.0970   55.6590  135.5670 C.2   236  ARG236      0.2260
    106  O        -68.0550   55.0300  135.7450 O.2   236  ARG236     -0.2867
    107  CB       -68.3650   57.4340  137.0570 C.3   236  ARG236      0.0307
    108  CG       -67.9630   58.4370  136.0180 C.3   236  ARG236      0.0489
    109  CD       -66.6740   58.9290  136.4250 C.3   236  ARG236      0.2205
    110  NE       -66.0510   59.7540  135.4330 N.pl3 236  ARG236     -0.0865
    111  CZ       -65.0900   59.3490  134.6220 C.cat 236  ARG236      0.5346
    112  NH1      -64.6460   58.1020  134.6410 N.pl3 236  ARG236      0.1354
    113  NH2      -64.5820   60.2050  133.7650 N.pl3 236  ARG236      0.1354
    114  N        -68.9120   54.0850  131.2480 N.3   238  HIS238     -0.1241
    115  CA       -68.9720   54.2160  129.7660 C.3   238  HIS238      0.1621
    116  C        -70.1790   53.5100  129.1250 C.2   238  HIS238      0.2264
    117  O        -70.8550   54.0570  128.2650 O.2   238  HIS238     -0.2867
    118  CB       -67.7390   53.6380  129.0850 C.3   238  HIS238      0.0745
    119  CG       -66.4400   54.1930  129.5690 C.ar  238  HIS238      0.0817
    120  ND1      -65.8510   53.7820  130.7410 N.ar  238  HIS238     -0.2268
    121  CD2      -65.5830   55.0710  129.0050 C.ar  238  HIS238      0.1154
    122  CE1      -64.6940   54.3960  130.8910 C.ar  238  HIS238      0.1986
    123  NE2      -64.5100   55.1870  129.8520 N.ar  238  HIS238     -0.2212
@<TRIPOS>BOND
     1     4     3    2
     2   117   116    2
     3   121   119   ar
     4   121   123   ar
     5   118   119    1
     6   118   115    1
     7   116   115    1
     8     3     2    1
     9   119   120   ar
    10   115   114    1
    11   123   122   ar
    12     7     5    1
    13     2     5    1
    14     2     1    1
    15   120   122   ar
    16     5     6    1
    17     6     8    1
    18    93    92    1
    19    15    14   ar
    20    91    90    2
    21    90    89    1
    22    92    89    1
    23   113   111    1
    24    94    95    1
    25    12    11    2
    26    14    13    1
    27    14    16   ar
    28    13    10    1
    29    89    88    1
    30    97    96    2
    31    96    95    1
    32    95    98    1
    33   111   112    1
    34   111   110    2
    35     9    10    1
    36    11    10    1
    37   110   109    1
    38   105   106    2
    39   105   104    1
    40   108   109    1
    41   108   107    1
    42    98    99    1
    43    99   100    1
    44   104   107    1
    45   104   103    1
    46   101   100    1
    47   101   102    1
    48    24    22   am
    49    32    30    1
    50    75    74   ar
    51    75    73   ar
    52    21    22    1
    53    21    18    1
    54    74    72   ar
    55    31    29    1
    56    20    19    2
    57    22    23    2
    58    30    29    1
    59    86    85    1
    60    86    87    2
    61    73    71   ar
    62    85    84    1
    63    17    18    1
    64    29    26    1
    65    18    19    1
    66    72    70   ar
    67    71    70   ar
    68    60    59    2
    69    70    69    1
    70    25    26    1
    71    83    81    1
    72    26    27    1
    73    82    81    1
    74    59    58    1
    75    40    38    1
    76    65    66    1
    77    81    80    1
    78    47    48    1
    79    47    46    1
    80    63    61    1
    81    66    69    1
    82    66    67    1
    83    27    28    2
    84    61    58    1
    85    61    62    1
    86    55    54   ar
    87    58    57    1
    88    38    37    1
    89    37    39    1
    90    37    34    1
    91    80    77    1
    92    67    68    2
    93    46    45    1
    94    54    56   ar
    95    54    53    1
    96    62    64    1
    97    45    42    1
    98    78    77    1
    99    78    79    2
   100    36    35    2
   101    77    76    1
   102    33    34    1
   103    34    35    1
   104    53    50    1
   105    42    41    1
   106    42    43    1
   107    50    51    1
   108    50    49    1
   109    43    44    2
   110    51    52    2
