@<TRIPOS>MOLECULE
tmp/3h23A00.pdb
 165 153 0 0 0
SMALL
GASTEIGER

@<TRIPOS>ATOM
      1  N        -80.8680   78.5700   99.0980 N.3    24  ILE24      -0.1231
      2  CA       -79.6800   79.3660   99.3790 C.3    24  ILE24       0.1692
      3  C        -79.2710   79.0910  100.8110 C.2    24  ILE24       0.2592
      4  O        -80.0120   79.4090  101.7590 O.2    24  ILE24      -0.2718
      5  CB       -79.9080   80.8690   99.1670 C.3    24  ILE24       0.0266
      6  CG1      -80.2510   81.0860   97.6990 C.3    24  ILE24       0.0019
      7  CG2      -78.7120   81.6770   99.6680 C.3    24  ILE24       0.0020
      8  CD1      -80.7300   82.4710   97.3810 C.3    24  ILE24       0.0001
      9  N        -78.0730   78.5390  100.9480 N.am   25  LEU25      -0.1966
     10  CA       -77.5040   78.2870  102.2820 C.3    25  LEU25       0.1728
     11  C        -77.1150   79.5440  103.0320 C.2    25  LEU25       0.2616
     12  O        -76.2860   80.3380  102.6030 O.2    25  LEU25      -0.2715
     13  CB       -76.3370   77.2900  102.2760 C.3    25  LEU25       0.0311
     14  CG       -76.1300   76.6440  103.6860 C.3    25  LEU25       0.0022
     15  CD1      -77.1530   75.5870  104.0430 C.3    25  LEU25       0.0001
     16  CD2      -74.7700   76.1090  103.8620 C.3    25  LEU25       0.0001
     17  N        -77.7520   79.7030  104.1790 N.am   26  ASN26      -0.1958
     18  CA       -77.4030   80.7450  105.1170 C.3    26  ASN26       0.1819
     19  C        -76.0890   80.4080  105.8890 C.2    26  ASN26       0.2621
     20  O        -76.0470   79.4790  106.7110 O.2    26  ASN26      -0.2715
     21  CB       -78.5820   80.9600  106.0690 C.3    26  ASN26       0.1195
     22  CG       -78.2370   81.8890  107.1730 C.2    26  ASN26       0.2630
     23  OD1      -77.0460   82.0580  107.4900 O.2    26  ASN26      -0.2716
     24  ND2      -79.2580   82.5140  107.7960 N.am   26  ASN26      -0.0877
     25  N        -75.0250   81.1590  105.5900 N.am   27  VAL27      -0.1977
     26  CA       -73.6790   80.9780  106.1830 C.3    27  VAL27       0.1596
     27  C        -73.4500   82.0760  107.2390 C.2    27  VAL27       0.2287
     28  O        -73.2400   83.2300  106.8880 O.2    27  VAL27      -0.2864
     29  CB       -72.5020   81.0950  105.0830 C.3    27  VAL27       0.0276
     30  CG1      -71.1190   80.7580  105.6660 C.3    27  VAL27       0.0022
     31  CG2      -72.7870   80.2970  103.8220 C.3    27  VAL27       0.0022
     32  N        -68.1500   86.1420   97.3420 N.3    66  THR66      -0.1203
     33  CA       -69.3420   86.2750   96.5040 C.3    66  THR66       0.1994
     34  C        -70.6010   86.6480   97.3000 C.2    66  THR66       0.2618
     35  O        -71.5860   87.1350   96.7290 O.2    66  THR66      -0.2717
     36  CB       -69.6210   84.9670   95.7710 C.3    66  THR66       0.1784
     37  OG1      -69.1210   83.8730   96.5480 O.3    66  THR66      -0.2211
     38  CG2      -68.9170   84.9610   94.4340 C.3    66  THR66       0.0376
     39  N        -70.5780   86.3880   98.6080 N.am   67  ARG67      -0.1965
     40  CA       -71.7360   86.6490   99.4660 C.3    67  ARG67       0.1714
     41  C        -71.7260   88.1410   99.8700 C.2    67  ARG67       0.2458
     42  O        -70.6820   88.6360  100.3320 O.2    67  ARG67      -0.2730
     43  CB       -71.7660   85.6850  100.6780 C.3    67  ARG67       0.0347
     44  CG       -71.9900   84.1790  100.3060 C.3    67  ARG67       0.0492
     45  CD       -72.6260   83.4250  101.4740 C.3    67  ARG67       0.2205
     46  NE       -72.2190   83.9870  102.7800 N.pl3  67  ARG67      -0.0865
     47  CZ       -71.0970   83.6810  103.4540 C.cat  67  ARG67       0.5346
     48  NH1      -70.2110   82.7880  102.9930 N.pl3  67  ARG67       0.1354
     49  NH2      -70.8530   84.2800  104.6190 N.pl3  67  ARG67       0.1354
     50  N        -72.8730   88.8550   99.6580 N.am   68  PRO68      -0.2727
     51  CA       -72.9970   90.3460   99.6520 C.3    68  PRO68       0.1402
     52  C        -72.0180   91.2140  100.5170 C.2    68  PRO68       0.2269
     53  O        -70.9040   91.5560  100.0550 O.2    68  PRO68      -0.2865
     54  CB       -74.4810   90.5860  100.0350 C.3    68  PRO68       0.0296
     55  CG       -75.2090   89.2960   99.6460 C.3    68  PRO68       0.0237
     56  CD       -74.1730   88.2080   99.3580 C.3    68  PRO68       0.0939
     57  N        -70.9580   78.0170   95.0770 N.3   100  ASP100     -0.1239
     58  CA       -71.0020   79.3510   94.4950 C.3   100  ASP100      0.1674
     59  C        -69.6680   80.0900   94.6510 C.2   100  ASP100      0.2266
     60  O        -69.2950   80.5410   95.7490 O.2   100  ASP100     -0.2867
     61  CB       -72.2580   80.1240   95.0300 C.3   100  ASP100      0.1410
     62  CG       -71.9560   81.5390   95.5670 C.2   100  ASP100      0.3668
     63  OD1      -72.4770   81.8850   96.6510 O.co2 100  ASP100     -0.2456
     64  OD2      -71.2050   82.2970   94.9220 O.co2 100  ASP100     -0.2456
     65  N        -71.3870   77.0490   90.5790 N.3   119  ASN119     -0.1240
     66  CA       -72.1640   78.2430   90.3700 C.3   119  ASN119      0.1653
     67  C        -71.2760   79.5060   90.2310 C.2   119  ASN119      0.2266
     68  O        -70.7980   80.0900   91.2430 O.2   119  ASN119     -0.2867
     69  CB       -73.1550   78.4080   91.5400 C.3   119  ASN119      0.1155
     70  CG       -74.0890   79.5660   91.3210 C.2   119  ASN119      0.2627
     71  OD1      -74.1340   80.1200   90.2160 O.2   119  ASN119     -0.2716
     72  ND2      -74.7960   79.9920   92.3750 N.am  119  ASN119     -0.0877
     73  N        -70.8900   83.3260   89.3060 N.3   121  ILE121     -0.1245
     74  CA       -71.4120   84.6670   88.9980 C.3   121  ILE121      0.1561
     75  C        -70.6620   85.4970   87.9400 C.2   121  ILE121      0.2260
     76  O        -71.1760   86.5460   87.4840 O.2   121  ILE121     -0.2867
     77  CB       -71.6900   85.5010   90.2680 C.3   121  ILE121      0.0252
     78  CG1      -70.3660   85.9140   90.9300 C.3   121  ILE121      0.0019
     79  CG2      -72.6550   84.7440   91.1730 C.3   121  ILE121      0.0019
     80  CD1      -70.5010   87.0460   91.9040 C.3   121  ILE121      0.0001
     81  N        -72.9840   76.5090   86.1950 N.3   142  ILE142     -0.1245
     82  CA       -73.9020   77.5900   85.9460 C.3   142  ILE142      0.1561
     83  C        -73.1130   78.8140   85.5160 C.2   142  ILE142      0.2260
     84  O        -72.2740   79.2850   86.2800 O.2   142  ILE142     -0.2867
     85  CB       -74.8020   77.9510   87.2020 C.3   142  ILE142      0.0252
     86  CG1      -75.6160   76.7480   87.7270 C.3   142  ILE142      0.0019
     87  CG2      -75.6260   79.1590   86.8650 C.3   142  ILE142      0.0019
     88  CD1      -75.7820   76.7890   89.2240 C.3   142  ILE142      0.0001
     89  N        -73.5050   82.4800   84.8450 N.3   144  MET144     -0.1245
     90  CA       -74.4190   83.6070   85.0640 C.3   144  MET144      0.1570
     91  C        -73.9510   84.7780   84.2270 C.2   144  MET144      0.2261
     92  O        -72.7590   84.9210   83.9940 O.2   144  MET144     -0.2867
     93  CB       -74.4790   83.9790   86.5440 C.3   144  MET144      0.0387
     94  CG       -75.5680   84.9900   86.8430 C.3   144  MET144      0.0595
     95  SD       -75.5200   85.5590   88.4970 S.3   144  MET144     -0.1393
     96  CE       -74.2570   86.7530   88.1740 C.3   144  MET144      0.0692
     97  N        -77.8020   81.6420   83.3290 N.3   183  ASP183     -0.1239
     98  CA       -78.4900   82.4300   84.3070 C.3   183  ASP183      0.1674
     99  C        -78.5250   83.9130   83.8080 C.2   183  ASP183      0.2266
    100  O        -77.5240   84.4560   83.4130 O.2   183  ASP183     -0.2867
    101  CB       -77.8050   82.2910   85.6570 C.3   183  ASP183      0.1410
    102  CG       -78.5270   83.0590   86.7800 C.2   183  ASP183      0.3668
    103  OD1      -78.4170   82.7010   87.9600 O.co2 183  ASP183     -0.2456
    104  OD2      -79.2430   84.0170   86.5190 O.co2 183  ASP183     -0.2456
    105  N        -80.0220   88.4240   87.3780 N.3   186  ILE186     -0.1245
    106  CA       -80.8970   89.5420   87.7680 C.3   186  ILE186      0.1561
    107  C        -80.2220   90.2530   88.9490 C.2   186  ILE186      0.2260
    108  O        -79.8500   89.6000   89.9140 O.2   186  ILE186     -0.2867
    109  CB       -82.2990   89.0000   88.2270 C.3   186  ILE186      0.0252
    110  CG1      -83.1040   88.4140   87.0500 C.3   186  ILE186      0.0019
    111  CG2      -83.0460   90.0380   89.0680 C.3   186  ILE186      0.0019
    112  CD1      -83.2190   89.2710   85.7540 C.3   186  ILE186      0.0001
    113  N        -77.3900   92.1120   88.6560 N.3   188  PHE188     -0.1241
    114  CA       -75.9380   92.1930   88.3860 C.3   188  PHE188      0.1605
    115  C        -75.7500   93.0670   87.1500 C.2   188  PHE188      0.2264
    116  O        -76.1230   92.6700   86.0360 O.2   188  PHE188     -0.2867
    117  CB       -75.3500   90.7950   88.1320 C.3   188  PHE188      0.0534
    118  CG       -75.2140   89.9510   89.4110 C.ar  188  PHE188     -0.0203
    119  CD1      -76.2640   89.1350   89.8310 C.ar  188  PHE188     -0.0042
    120  CD2      -74.0900   90.0600   90.2250 C.ar  188  PHE188     -0.0042
    121  CE1      -76.2070   88.4260   90.9570 C.ar  188  PHE188     -0.0003
    122  CE2      -73.9890   89.2920   91.3760 C.ar  188  PHE188     -0.0003
    123  CZ       -75.0500   88.4680   91.7610 C.ar  188  PHE188     -0.0000
    124  N        -81.2120   78.6810   84.9310 N.3   213  LEU213     -0.1245
    125  CA       -81.5180   79.0210   86.3130 C.3   213  LEU213      0.1561
    126  C        -81.9370   80.4860   86.5470 C.2   213  LEU213      0.2260
    127  O        -81.3300   81.3640   86.0190 O.2   213  LEU213     -0.2867
    128  CB       -80.2690   78.7270   87.1640 C.3   213  LEU213      0.0270
    129  CG       -80.4280   78.8460   88.6930 C.3   213  LEU213      0.0019
    130  CD1      -79.5870   77.7630   89.2350 C.3   213  LEU213      0.0001
    131  CD2      -79.8200   80.1560   89.1150 C.3   213  LEU213      0.0001
    132  N        -82.6030   83.5010   89.6040 N.3   215  GLY215     -0.1225
    133  CA       -82.3980   83.8200   91.0000 C.3   215  GLY215      0.1811
    134  C        -82.8150   85.2720   91.2650 C.2   215  GLY215      0.2280
    135  O        -82.0830   86.1720   90.9330 O.2   215  GLY215     -0.2866
    136  N        -84.3380   90.2050   95.9050 N.3   219  LYS219     -0.1245
    137  CA       -83.4430   91.2290   95.3780 C.3   219  LYS219      0.1561
    138  C        -84.0680   92.5990   95.4560 C.2   219  LYS219      0.2260
    139  O        -85.2720   92.7390   95.6200 O.2   219  LYS219     -0.2867
    140  CB       -82.9480   90.9460   93.9770 C.3   219  LYS219      0.0271
    141  CG       -82.3710   89.6070   93.8990 C.3   219  LYS219      0.0035
    142  CD       -81.1060   89.5730   93.0780 C.3   219  LYS219      0.0206
    143  CE       -80.6040   88.1850   93.0290 C.3   219  LYS219      0.1093
    144  NZ       -79.8840   88.0310   91.7970 N.3   219  LYS219     -0.1314
    145  N        -83.4430   79.7580   92.2930 N.3   253  ARG253     -0.1245
    146  CA       -82.5300   79.8270   93.4260 C.3   253  ARG253      0.1563
    147  C        -83.1810   80.7580   94.4340 C.2   253  ARG253      0.2260
    148  O        -83.3170   81.9680   94.1510 O.2   253  ARG253     -0.2867
    149  CB       -81.1870   80.3790   92.9200 C.3   253  ARG253      0.0307
    150  CG       -80.0770   80.4700   94.0280 C.3   253  ARG253      0.0489
    151  CD       -78.7950   81.1860   93.5000 C.3   253  ARG253      0.2205
    152  NE       -77.8670   81.3700   94.6030 N.pl3 253  ARG253     -0.0865
    153  CZ       -77.8230   82.4040   95.4230 C.cat 253  ARG253      0.5346
    154  NH1      -78.6720   83.4200   95.3070 N.pl3 253  ARG253      0.1354
    155  NH2      -76.9380   82.4160   96.4020 N.pl3 253  ARG253      0.1354
    156  N        -84.4190   81.7520   98.7470 N.3   255  HIS255     -0.1241
    157  CA       -84.2960   81.6110  100.1730 C.3   255  HIS255      0.1621
    158  C        -85.4820   80.9000  100.7900 C.2   255  HIS255      0.2264
    159  O        -85.2730   80.1100  101.7610 O.2   255  HIS255     -0.2867
    160  CB       -84.1510   82.9390  100.9300 C.3   255  HIS255      0.0745
    161  CG       -83.0060   83.8010  100.5050 C.ar  255  HIS255      0.0817
    162  ND1      -83.0400   84.6010   99.3830 N.ar  255  HIS255     -0.2268
    163  CD2      -81.7760   83.9770  101.0470 C.ar  255  HIS255      0.1154
    164  CE1      -81.9120   85.2720   99.2720 C.ar  255  HIS255      0.1986
    165  NE2      -81.1260   84.9160  100.2750 N.ar  255  HIS255     -0.2212
@<TRIPOS>BOND
     1    97    98    1
     2   100    99    2
     3    99    98    1
     4    92    91    2
     5    91    90    1
     6    98   101    1
     7    89    90    1
     8   124   125    1
     9    90    93    1
    10    83    82    1
    11    83    84    2
    12   101   102    1
    13   112   110    1
    14    82    81    1
    15    82    85    1
    16   127   126    2
    17   116   115    2
    18   125   126    1
    19   125   128    1
    20   104   102   ar
    21    93    94    1
    22   102   103   ar
    23    94    95    1
    24    87    85    1
    25   110   109    1
    26   115   114    1
    27   128   129    1
    28    85    86    1
    29   105   106    1
    30    76    75    2
    31    86    88    1
    32   106   109    1
    33   106   107    1
    34    75    74    1
    35   117   114    1
    36   117   118    1
    37    96    95    1
    38   109   111    1
    39   114   113    1
    40   129   131    1
    41   129   130    1
    42   107   108    2
    43    74    73    1
    44    74    77    1
    45   118   119   ar
    46   118   120   ar
    47   132   133    1
    48   119   121   ar
    49    71    70    2
    50   120   122   ar
    51    67    66    1
    52    67    68    2
    53    77    78    1
    54    77    79    1
    55    66    65    1
    56    66    69    1
    57    78    80    1
    58   135   134    2
    59   121   123   ar
    60   133   134    1
    61    70    69    1
    62    70    72   am
    63   122   123   ar
    64   144   143    1
    65   145   146    1
    66   149   146    1
    67   149   150    1
    68   143   142    1
    69   142   141    1
    70   146   147    1
    71   151   150    1
    72   151   152    1
    73   141   140    1
    74   140   137    1
    75   148   147    2
    76    38    36    1
    77    58    59    1
    78    58    61    1
    79    58    57    1
    80   152   153    2
    81    59    60    2
    82    64    62   ar
    83    61    62    1
    84   154   153    1
    85   137   138    1
    86   137   136    1
    87   153   155    1
    88   138   139    2
    89    62    63   ar
    90    36    33    1
    91    36    37    1
    92    33    34    1
    93    33    32    1
    94    35    34    2
    95    34    39   am
    96     8     6    1
    97     6     5    1
    98    39    40    1
    99   156   157    1
   100     1     2    1
   101     5     2    1
   102     5     7    1
   103   164   162   ar
   104   164   165   ar
   105    56    55    1
   106    56    50    1
   107     2     3    1
   108   162   161   ar
   109    40    41    1
   110    40    43    1
   111    55    54    1
   112    51    50    1
   113    51    54    1
   114    51    52    1
   115    50    41   am
   116    41    42    2
   117    53    52    2
   118   157   158    1
   119   157   160    1
   120   165   163   ar
   121    44    43    1
   122    44    45    1
   123   161   160    1
   124   161   163   ar
   125   158   159    2
   126     3     9   am
   127     3     4    2
   128     9    10    1
   129    45    46    1
   130    13    10    1
   131    13    14    1
   132    10    11    1
   133    12    11    2
   134    46    47    2
   135    48    47    1
   136    11    17   am
   137    47    49    1
   138    14    16    1
   139    14    15    1
   140    31    29    1
   141    17    18    1
   142    29    30    1
   143    29    26    1
   144    18    19    1
   145    18    21    1
   146    25    19   am
   147    25    26    1
   148    19    20    2
   149    21    22    1
   150    26    27    1
   151    28    27    2
   152    22    23    2
   153    22    24   am
