@<TRIPOS>MOLECULE
tmp/3h24B00.pdb
 108 96 0 0 0
SMALL
GASTEIGER

@<TRIPOS>ATOM
      1  N        -58.1440   66.1790  130.5960 N.3    58  GLU58      -0.1245
      2  CA       -56.8670   65.4110  130.6950 C.3    58  GLU58       0.1567
      3  C        -57.0660   63.8600  130.6280 C.2    58  GLU58       0.2260
      4  O        -57.9090   63.3070  131.3700 O.2    58  GLU58      -0.2867
      5  CB       -56.0820   65.8060  132.0440 C.3    58  GLU58       0.0388
      6  CG       -55.7170   67.2900  132.0730 C.3    58  GLU58       0.1160
      7  CD       -54.3470   67.4570  131.4470 C.2    58  GLU58       0.3649
      8  OE1      -53.6940   66.4790  131.0080 O.co2  58  GLU58      -0.2457
      9  OE2      -53.9060   68.6060  131.3340 O.co2  58  GLU58      -0.2457
     10  N        -65.0530   67.2710  135.0460 N.3    87  ASP87      -0.1239
     11  CA       -63.9780   66.4830  135.6190 C.3    87  ASP87       0.1674
     12  C        -62.6680   67.2350  135.5520 C.2    87  ASP87       0.2266
     13  O        -61.8470   66.9200  134.7010 O.2    87  ASP87      -0.2867
     14  CB       -63.8520   65.1620  134.8520 C.3    87  ASP87       0.1410
     15  CG       -62.7210   64.3060  135.3580 C.2    87  ASP87       0.3668
     16  OD1      -62.4050   63.2780  134.7500 O.co2  87  ASP87      -0.2456
     17  OD2      -62.1030   64.6680  136.3540 O.co2  87  ASP87      -0.2456
     18  N        -66.0580   67.7900  139.6020 N.3   106  ASN106     -0.1240
     19  CA       -65.5210   66.4780  139.8790 C.3   106  ASN106      0.1653
     20  C        -63.9880   66.3550  139.9870 C.2   106  ASN106      0.2266
     21  O        -63.2710   66.2470  138.9960 O.2   106  ASN106     -0.2867
     22  CB       -66.1330   65.4610  138.9490 C.3   106  ASN106      0.1155
     23  CG       -65.6130   64.0970  139.2010 C.2   106  ASN106      0.2627
     24  OD1      -65.4920   63.6470  140.3560 O.2   106  ASN106     -0.2716
     25  ND2      -65.2670   63.4080  138.1200 N.am  106  ASN106     -0.0877
     26  N        -60.4470   64.8150  141.0940 N.3   108  ILE108     -0.1245
     27  CA       -59.6870   63.5970  141.3440 C.3   108  ILE108      0.1561
     28  C        -58.5360   63.8110  142.3550 C.2   108  ILE108      0.2260
     29  O        -57.7480   62.8960  142.6160 O.2   108  ILE108     -0.2867
     30  CB       -59.1340   62.9670  140.0210 C.3   108  ILE108      0.0252
     31  CG1      -58.1840   63.9270  139.2980 C.3   108  ILE108      0.0019
     32  CG2      -60.2510   62.5610  139.0700 C.3   108  ILE108      0.0019
     33  CD1      -57.2910   63.2030  138.2750 C.3   108  ILE108      0.0001
     34  N        -67.2500   66.5600  143.9220 N.3   129  ILE129     -0.1245
     35  CA       -66.8590   65.2170  144.2540 C.3   129  ILE129      0.1561
     36  C        -65.4210   65.3170  144.6610 C.2   129  ILE129      0.2260
     37  O        -64.6720   65.9590  143.9520 O.2   129  ILE129     -0.2867
     38  CB       -66.9970   64.2580  143.0900 C.3   129  ILE129      0.0252
     39  CG1      -68.4580   63.9830  142.8190 C.3   129  ILE129      0.0019
     40  CG2      -66.3490   62.9430  143.4520 C.3   129  ILE129      0.0019
     41  CD1      -68.7900   63.8430  141.3150 C.3   129  ILE129      0.0001
     42  N        -62.3220   62.8090  145.4460 N.3   131  MET131     -0.1245
     43  CA       -61.9400   61.4070  145.2480 C.3   131  MET131      0.1570
     44  C        -60.7080   61.0920  146.0620 C.2   131  MET131      0.2261
     45  O        -59.8650   61.9480  146.2270 O.2   131  MET131     -0.2867
     46  CB       -61.6280   61.1620  143.7750 C.3   131  MET131      0.0387
     47  CG       -61.3150   59.7230  143.4240 C.3   131  MET131      0.0595
     48  SD       -60.7230   59.5010  141.7340 S.3   131  MET131     -0.1393
     49  CE       -58.9930   59.6980  142.0630 C.3   131  MET131      0.0692
     50  N        -65.5580   59.8370  146.7770 N.3   170  ASP170     -0.1239
     51  CA       -65.2200   58.7430  145.8670 C.3   170  ASP170      0.1674
     52  C        -63.9920   58.0680  146.4600 C.2   170  ASP170      0.2266
     53  O        -62.9920   58.7390  146.7340 O.2   170  ASP170     -0.2867
     54  CB       -64.8380   59.3560  144.5340 C.3   170  ASP170      0.1410
     55  CG       -64.5190   58.3320  143.4390 C.2   170  ASP170      0.3668
     56  OD1      -65.0850   58.5450  142.3530 O.co2 170  ASP170     -0.2456
     57  OD2      -63.7410   57.3490  143.6030 O.co2 170  ASP170     -0.2456
     58  N        -60.9830   54.2580  143.2310 N.3   173  ILE173     -0.1245
     59  CA       -60.5230   52.9490  142.7510 C.3   173  ILE173      0.1561
     60  C        -59.7830   53.0760  141.4290 C.2   173  ILE173      0.2260
     61  O        -60.3340   53.5820  140.4280 O.2   173  ILE173     -0.2867
     62  CB       -61.6960   51.9780  142.6070 C.3   173  ILE173      0.0252
     63  CG1      -62.3240   51.7220  143.9860 C.3   173  ILE173      0.0019
     64  CG2      -61.2720   50.6710  141.9230 C.3   173  ILE173      0.0019
     65  CD1      -61.6970   50.7020  144.7660 C.3   173  ILE173      0.0001
     66  N        -56.7290   54.6500  141.5190 N.3   175  PHE175     -0.1241
     67  CA       -55.6940   55.6480  141.7560 C.3   175  PHE175      0.1605
     68  C        -54.9750   55.3050  142.9970 C.2   175  PHE175      0.2264
     69  O        -55.5920   54.8180  143.9490 O.2   175  PHE175     -0.2867
     70  CB       -56.2210   57.0710  141.8490 C.3   175  PHE175      0.0534
     71  CG       -56.9530   57.5100  140.6190 C.ar  175  PHE175     -0.0203
     72  CD1      -58.2910   57.1320  140.4200 C.ar  175  PHE175     -0.0042
     73  CD2      -56.3060   58.2900  139.6560 C.ar  175  PHE175     -0.0042
     74  CE1      -58.9680   57.5180  139.3150 C.ar  175  PHE175     -0.0003
     75  CE2      -56.9770   58.7010  138.5240 C.ar  175  PHE175     -0.0003
     76  CZ       -58.3310   58.3110  138.3410 C.ar  175  PHE175     -0.0000
     77  N        -69.5950   58.0460  145.4900 N.3   200  LEU200     -0.1245
     78  CA       -69.6220   57.7650  144.0860 C.3   200  LEU200      0.1561
     79  C        -68.5170   56.7810  143.8000 C.2   200  LEU200      0.2260
     80  O        -67.3600   56.9590  144.2530 O.2   200  LEU200     -0.2867
     81  CB       -69.4660   59.0590  143.3060 C.3   200  LEU200      0.0270
     82  CG       -69.3730   58.8950  141.8070 C.3   200  LEU200      0.0019
     83  CD1      -69.9560   60.0950  141.0570 C.3   200  LEU200      0.0001
     84  CD2      -67.9570   58.7200  141.4920 C.3   200  LEU200      0.0001
     85  N        -66.1850   54.9500  141.0090 N.3   202  GLY202     -0.1225
     86  CA       -65.6550   54.9950  139.6700 C.3   202  GLY202      0.1811
     87  C        -64.7210   53.8790  139.3140 C.2   202  GLY202      0.2280
     88  O        -63.5500   53.9690  139.4720 O.2   202  GLY202     -0.2866
     89  N        -61.2880   50.1010  134.5690 N.3   206  LYS206     -0.1245
     90  CA       -59.9350   50.3220  135.0530 C.3   206  LYS206      0.1561
     91  C        -59.0460   49.0810  134.9780 C.2   206  LYS206      0.2260
     92  O        -59.4650   47.9140  134.8910 O.2   206  LYS206     -0.2867
     93  CB       -59.8900   50.9530  136.4620 C.3   206  LYS206      0.0271
     94  CG       -60.7270   52.1920  136.5850 C.3   206  LYS206      0.0035
     95  CD       -59.9200   53.3780  137.1260 C.3   206  LYS206      0.0206
     96  CE       -60.6520   54.7300  136.8110 C.3   206  LYS206      0.1093
     97  NZ       -61.4250   55.2850  137.9800 N.3   206  LYS206     -0.1314
     98  N        -69.9230   55.6490  138.1020 N.3   240  ARG240     -0.1245
     99  CA       -69.4410   56.4060  136.9950 C.3   240  ARG240      0.1563
    100  C        -68.9620   55.4380  135.9500 C.2   240  ARG240      0.2260
    101  O        -67.9920   54.7290  136.1570 O.2   240  ARG240     -0.2867
    102  CB       -68.2710   57.2100  137.5150 C.3   240  ARG240      0.0307
    103  CG       -67.7330   58.1220  136.4860 C.3   240  ARG240      0.0489
    104  CD       -66.6480   58.9690  137.0120 C.3   240  ARG240      0.2205
    105  NE       -66.0350   59.7450  135.9480 N.pl3 240  ARG240     -0.0865
    106  CZ       -65.0240   59.3180  135.2090 C.cat 240  ARG240      0.5346
    107  NH1      -64.5290   58.1090  135.4060 N.pl3 240  ARG240      0.1354
    108  NH2      -64.4940   60.1130  134.2900 N.pl3 240  ARG240      0.1354
@<TRIPOS>BOND
     1     1     2    1
     2     3     2    1
     3     3     4    2
     4     2     5    1
     5     8     7   ar
     6     9     7   ar
     7     7     6    1
     8     5     6    1
     9   108   106    1
    10    89    90    1
    11    13    12    2
    12    16    15   ar
    13    14    15    1
    14    14    11    1
    15    92    91    2
    16    91    90    1
    17    10    11    1
    18    90    93    1
    19   106   107    1
    20   106   105    2
    21    15    17   ar
    22    12    11    1
    23   105   104    1
    24   100   101    2
    25   100    99    1
    26    93    94    1
    27   103   104    1
    28   103   102    1
    29    94    95    1
    30    96    95    1
    31    96    97    1
    32    99   102    1
    33    99    98    1
    34    25    23   am
    35    33    31    1
    36    76    75   ar
    37    76    74   ar
    38    75    73   ar
    39    22    23    1
    40    22    19    1
    41    21    20    2
    42    32    30    1
    43    23    24    2
    44    31    30    1
    45    87    88    2
    46    87    86    1
    47    74    72   ar
    48    18    19    1
    49    73    71   ar
    50    86    85    1
    51    19    20    1
    52    30    27    1
    53    72    71   ar
    54    61    60    2
    55    71    70    1
    56    83    82    1
    57    26    27    1
    58    41    39    1
    59    27    28    1
    60    60    59    1
    61    84    82    1
    62    66    67    1
    63    48    49    1
    64    48    47    1
    65    67    70    1
    66    67    68    1
    67    82    81    1
    68    64    62    1
    69    56    55   ar
    70    28    29    2
    71    62    59    1
    72    62    63    1
    73    59    58    1
    74    39    38    1
    75    68    69    2
    76    38    40    1
    77    38    35    1
    78    81    78    1
    79    47    46    1
    80    55    57   ar
    81    55    54    1
    82    46    43    1
    83    79    78    1
    84    79    80    2
    85    34    35    1
    86    37    36    2
    87    63    65    1
    88    78    77    1
    89    35    36    1
    90    54    51    1
    91    43    42    1
    92    43    44    1
    93    51    52    1
    94    51    50    1
    95    44    45    2
    96    52    53    2
