@<TRIPOS>MOLECULE
tmp/3h26B00.pdb
 99 88 0 0 0
SMALL
GASTEIGER

@<TRIPOS>ATOM
      1  N        -65.5470   67.5110  134.3900 N.3    97  ASP97      -0.1239
      2  CA       -64.4000   66.7650  134.8980 C.3    97  ASP97       0.1674
      3  C        -63.1430   67.6250  134.8050 C.2    97  ASP97       0.2266
      4  O        -62.4370   67.6240  133.7940 O.2    97  ASP97      -0.2867
      5  CB       -64.2510   65.4240  134.1530 C.3    97  ASP97       0.1410
      6  CG       -62.8290   64.8660  134.1900 C.2    97  ASP97       0.3668
      7  OD1      -62.4080   64.2620  133.1810 O.co2  97  ASP97      -0.2456
      8  OD2      -62.1310   65.0200  135.2160 O.co2  97  ASP97      -0.2456
      9  N        -66.5750   67.9880  139.0590 N.3   116  ASN116     -0.1240
     10  CA       -66.0380   66.6480  139.2430 C.3   116  ASN116      0.1653
     11  C        -64.5140   66.6510  139.3270 C.2   116  ASN116      0.2266
     12  O        -63.8190   66.6280  138.3060 O.2   116  ASN116     -0.2867
     13  CB       -66.5280   65.7200  138.1350 C.3   116  ASN116      0.1155
     14  CG       -66.1210   64.2830  138.3590 C.2   116  ASN116      0.2627
     15  OD1      -65.7170   63.8950  139.4580 O.2   116  ASN116     -0.2716
     16  ND2      -66.2290   63.4760  137.3140 N.am  116  ASN116     -0.0877
     17  N        -60.9930   65.1340  140.4460 N.3   118  ILE118     -0.1245
     18  CA       -60.2020   63.9430  140.7280 C.3   118  ILE118      0.1561
     19  C        -59.1080   64.2060  141.7680 C.2   118  ILE118      0.2260
     20  O        -58.3610   63.2960  142.1290 O.2   118  ILE118     -0.2867
     21  CB       -59.5870   63.3380  139.4370 C.3   118  ILE118      0.0252
     22  CG1      -58.8330   64.4030  138.6310 C.3   118  ILE118      0.0019
     23  CG2      -60.6690   62.6860  138.5900 C.3   118  ILE118      0.0019
     24  CD1      -57.7630   63.8420  137.7110 C.3   118  ILE118      0.0001
     25  N        -67.9420   66.6850  143.4470 N.3   139  ILE139     -0.1245
     26  CA       -67.4640   65.3450  143.7280 C.3   139  ILE139      0.1561
     27  C        -66.0120   65.4510  144.1690 C.2   139  ILE139      0.2260
     28  O        -65.1790   66.0060  143.4490 O.2   139  ILE139     -0.2867
     29  CB       -67.6150   64.4100  142.5080 C.3   139  ILE139      0.0252
     30  CG1      -69.0960   64.2580  142.1490 C.3   139  ILE139      0.0019
     31  CG2      -66.9920   63.0350  142.7930 C.3   139  ILE139      0.0019
     32  CD1      -69.3610   64.1050  140.6700 C.3   139  ILE139      0.0001
     33  N        -62.9750   63.2060  144.8590 N.3   141  MET141     -0.1245
     34  CA       -62.4880   61.8530  144.6190 C.3   141  MET141      0.1570
     35  C        -61.2290   61.5830  145.4240 C.2   141  MET141      0.2261
     36  O        -60.4170   62.4880  145.6310 O.2   141  MET141     -0.2867
     37  CB       -62.2050   61.6470  143.1330 C.3   141  MET141      0.0387
     38  CG       -62.1210   60.1920  142.7240 C.3   141  MET141      0.0595
     39  SD       -61.4260   59.9390  141.0850 S.3   141  MET141     -0.1393
     40  CE       -59.6930   60.2490  141.4160 C.3   141  MET141      0.0692
     41  N        -65.9440   59.9700  146.4090 N.3   180  ASP180     -0.1239
     42  CA       -65.6170   58.9660  145.4080 C.3   180  ASP180      0.1674
     43  C        -64.3450   58.2570  145.8770 C.2   180  ASP180      0.2266
     44  O        -63.3610   58.9200  146.2110 O.2   180  ASP180     -0.2867
     45  CB       -65.4010   59.6530  144.0550 C.3   180  ASP180      0.1410
     46  CG       -65.2480   58.6740  142.8970 C.2   180  ASP180      0.3668
     47  OD1      -64.4320   57.7300  142.9870 O.co2 180  ASP180     -0.2456
     48  OD2      -65.9330   58.8790  141.8680 O.co2 180  ASP180     -0.2456
     49  N        -61.2210   54.6290  142.3960 N.3   183  ILE183     -0.1245
     50  CA       -60.7180   53.3510  141.9010 C.3   183  ILE183      0.1561
     51  C        -59.8810   53.6090  140.6650 C.2   183  ILE183      0.2260
     52  O        -60.3350   54.2680  139.7260 O.2   183  ILE183     -0.2867
     53  CB       -61.8620   52.3620  141.5500 C.3   183  ILE183      0.0252
     54  CG1      -62.8140   52.1590  142.7390 C.3   183  ILE183      0.0019
     55  CG2      -61.2980   51.0230  141.0550 C.3   183  ILE183      0.0019
     56  CD1      -62.2000   51.4850  143.9720 C.3   183  ILE183      0.0001
     57  N        -56.8700   55.1230  140.9250 N.3   185  PHE185     -0.1241
     58  CA       -55.9250   56.1920  141.2470 C.3   185  PHE185      0.1605
     59  C        -55.1490   55.8800  142.5070 C.2   185  PHE185      0.2264
     60  O        -55.7330   55.5650  143.5440 O.2   185  PHE185     -0.2867
     61  CB       -56.6230   57.5450  141.3840 C.3   185  PHE185      0.0534
     62  CG       -57.3640   57.9750  140.1540 C.ar  185  PHE185     -0.0203
     63  CD1      -58.6020   57.4150  139.8420 C.ar  185  PHE185     -0.0042
     64  CD2      -56.8400   58.9540  139.3180 C.ar  185  PHE185     -0.0042
     65  CE1      -59.3000   57.8110  138.7160 C.ar  185  PHE185     -0.0003
     66  CE2      -57.5330   59.3620  138.1820 C.ar  185  PHE185     -0.0003
     67  CZ       -58.7670   58.7890  137.8810 C.ar  185  PHE185     -0.0000
     68  N        -69.9870   58.2480  144.8810 N.3   210  LEU210     -0.1245
     69  CA       -69.9460   57.9380  143.4600 C.3   210  LEU210      0.1561
     70  C        -68.8440   56.9260  143.1840 C.2   210  LEU210      0.2260
     71  O        -67.7170   57.0730  143.6680 O.2   210  LEU210     -0.2867
     72  CB       -69.7320   59.2120  142.6310 C.3   210  LEU210      0.0270
     73  CG       -69.2330   59.0970  141.1800 C.3   210  LEU210      0.0019
     74  CD1      -70.2630   58.4720  140.2510 C.3   210  LEU210      0.0001
     75  CD2      -68.8210   60.4530  140.6500 C.3   210  LEU210      0.0001
     76  N        -66.5600   55.0130  140.2460 N.3   212  GLY212     -0.1225
     77  CA       -66.0730   55.0530  138.8730 C.3   212  GLY212      0.1811
     78  C        -65.0980   53.9280  138.5980 C.2   212  GLY212      0.2280
     79  O        -63.9240   54.0150  138.9510 O.2   212  GLY212     -0.2866
     80  N        -61.7240   49.9580  133.6220 N.3   216  LYS216     -0.1245
     81  CA       -60.3910   50.2570  134.1730 C.3   216  LYS216      0.1561
     82  C        -59.4330   49.0530  134.2340 C.2   216  LYS216      0.2260
     83  O        -59.8540   47.9000  134.1040 O.2   216  LYS216     -0.2867
     84  CB       -60.5120   50.9510  135.5380 C.3   216  LYS216      0.0271
     85  CG       -61.2150   52.2950  135.4590 C.3   216  LYS216      0.0035
     86  CD       -61.0970   53.1140  136.7310 C.3   216  LYS216      0.0206
     87  CE       -61.8240   54.4420  136.5450 C.3   216  LYS216      0.1093
     88  NZ       -61.8020   55.3210  137.7440 N.3   216  LYS216     -0.1314
     89  N        -70.2090   55.9640  137.5230 N.3   250  ARG250     -0.1245
     90  CA       -69.7150   56.7050  136.3730 C.3   250  ARG250      0.1563
     91  C        -69.2340   55.7250  135.3010 C.2   250  ARG250      0.2260
     92  O        -68.1900   55.0830  135.4650 O.2   250  ARG250     -0.2867
     93  CB       -68.5910   57.6360  136.8170 C.3   250  ARG250      0.0307
     94  CG       -67.9870   58.4530  135.7050 C.3   250  ARG250      0.0489
     95  CD       -66.8390   59.3010  136.2110 C.3   250  ARG250      0.2205
     96  NE       -66.1860   60.0000  135.1110 N.pl3 250  ARG250     -0.0865
     97  CZ       -65.2360   59.4680  134.3500 C.cat 250  ARG250      0.5346
     98  NH1      -64.8180   58.2280  134.5720 N.pl3 250  ARG250      0.1354
     99  NH2      -64.6990   60.1760  133.3660 N.pl3 250  ARG250      0.1354
@<TRIPOS>BOND
     1     7     6   ar
     2    99    97    1
     3    80    81    1
     4     4     3    2
     5    83    82    2
     6     5     6    1
     7     5     2    1
     8    81    82    1
     9    81    84    1
    10     6     8   ar
    11    97    98    1
    12    97    96    2
    13     1     2    1
    14     3     2    1
    15    96    95    1
    16    91    92    2
    17    91    90    1
    18    85    84    1
    19    85    86    1
    20    94    95    1
    21    94    93    1
    22    90    93    1
    23    90    89    1
    24    87    86    1
    25    87    88    1
    26    16    14   am
    27    24    22    1
    28    67    66   ar
    29    67    65   ar
    30    13    14    1
    31    13    10    1
    32    66    64   ar
    33    12    11    2
    34    14    15    2
    35    23    21    1
    36    78    77    1
    37    78    79    2
    38    22    21    1
    39    65    63   ar
    40    77    76    1
    41     9    10    1
    42    10    11    1
    43    64    62   ar
    44    21    18    1
    45    52    51    2
    46    63    62   ar
    47    62    61    1
    48    74    73    1
    49    17    18    1
    50    75    73    1
    51    51    50    1
    52    32    30    1
    53    18    19    1
    54    57    58    1
    55    55    53    1
    56    39    40    1
    57    39    38    1
    58    73    72    1
    59    58    61    1
    60    58    59    1
    61    53    50    1
    62    53    54    1
    63    19    20    2
    64    48    46   ar
    65    50    49    1
    66    30    29    1
    67    59    60    2
    68    29    31    1
    69    29    26    1
    70    72    69    1
    71    38    37    1
    72    54    56    1
    73    46    47   ar
    74    46    45    1
    75    37    34    1
    76    70    69    1
    77    70    71    2
    78    25    26    1
    79    28    27    2
    80    69    68    1
    81    26    27    1
    82    45    42    1
    83    34    33    1
    84    34    35    1
    85    42    43    1
    86    42    41    1
    87    35    36    2
    88    43    44    2
