@<TRIPOS>MOLECULE
tmp/3h2aB00.pdb
 118 107 0 0 0
SMALL
GASTEIGER

@<TRIPOS>ATOM
      1  N        -57.5120   60.2310  130.7180 N.3    76  THR76      -0.1218
      2  CA       -56.9040   59.5440  131.8730 C.3    76  THR76       0.1862
      3  C        -56.3850   58.1540  131.4840 C.2    76  THR76       0.2287
      4  O        -56.5960   57.6870  130.3480 O.2    76  THR76      -0.2866
      5  CB       -57.8980   59.4600  133.0650 C.3    76  THR76       0.1770
      6  OG1      -59.0420   58.7350  132.6420 O.3    76  THR76      -0.2211
      7  CG2      -58.2930   60.8330  133.5740 C.3    76  THR76       0.0375
      8  N        -65.6700   67.2740  133.7110 N.3   104  ASP104     -0.1239
      9  CA       -64.6020   66.4300  134.2580 C.3   104  ASP104      0.1674
     10  C        -63.2750   67.1720  134.2110 C.2   104  ASP104      0.2266
     11  O        -62.4580   66.9360  133.3200 O.2   104  ASP104     -0.2867
     12  CB       -64.5150   65.1090  133.4830 C.3   104  ASP104      0.1410
     13  CG       -63.3420   64.2280  133.9220 C.2   104  ASP104      0.3668
     14  OD1      -62.9480   63.3230  133.1520 O.co2 104  ASP104     -0.2456
     15  OD2      -62.8040   64.4130  135.0260 O.co2 104  ASP104     -0.2456
     16  N        -66.6190   67.4750  138.2950 N.3   123  ASN123     -0.1225
     17  CA       -66.0960   66.1080  138.4770 C.3   123  ASN123      0.1785
     18  C        -64.5790   66.1410  138.6050 C.2   123  ASN123      0.2597
     19  O        -63.8430   66.1770  137.6160 O.2   123  ASN123     -0.2718
     20  CB       -66.5330   65.1990  137.3200 C.3   123  ASN123      0.1169
     21  CG       -66.2550   63.7250  137.5880 C.2   123  ASN123      0.2627
     22  OD1      -66.2290   63.2830  138.7520 O.2   123  ASN123     -0.2716
     23  ND2      -66.0560   62.9470  136.5120 N.am  123  ASN123     -0.0877
     24  N        -64.1070   66.1300  139.8480 N.am  124  ASP124     -0.1960
     25  CA       -62.7100   66.4440  140.1180 C.3   124  ASP124      0.1840
     26  C        -61.9430   65.2160  140.5150 C.2   124  ASP124      0.2621
     27  O        -62.1460   64.6790  141.6100 O.2   124  ASP124     -0.2715
     28  CB       -62.6100   67.5450  141.1750 C.3   124  ASP124      0.1450
     29  CG       -61.1830   67.9670  141.4540 C.2   124  ASP124      0.3671
     30  OD1      -60.9940   68.8770  142.2940 O.co2 124  ASP124     -0.2456
     31  OD2      -60.2480   67.3920  140.8540 O.co2 124  ASP124     -0.2456
     32  N        -61.0380   64.7850  139.6360 N.am  125  ILE125     -0.1977
     33  CA       -60.2630   63.5620  139.8690 C.3   125  ILE125      0.1596
     34  C        -59.1770   63.7500  140.9190 C.2   125  ILE125      0.2287
     35  O        -58.4640   62.8040  141.2640 O.2   125  ILE125     -0.2864
     36  CB       -59.6650   62.9500  138.5730 C.3   125  ILE125      0.0276
     37  CG1      -58.6790   63.9100  137.8840 C.3   125  ILE125      0.0022
     38  CG2      -60.7580   62.5400  137.6480 C.3   125  ILE125      0.0022
     39  CD1      -57.8130   63.2450  136.8170 C.3   125  ILE125      0.0001
     40  N        -67.7480   66.3590  142.6660 N.3   146  ILE146     -0.1245
     41  CA       -67.3500   64.9910  142.9060 C.3   146  ILE146      0.1561
     42  C        -65.8940   65.0270  143.3020 C.2   146  ILE146      0.2260
     43  O        -65.0510   65.4630  142.5340 O.2   146  ILE146     -0.2867
     44  CB       -67.5830   64.0900  141.6840 C.3   146  ILE146      0.0252
     45  CG1      -69.0770   63.9820  141.3920 C.3   146  ILE146      0.0019
     46  CG2      -66.9900   62.7070  141.9120 C.3   146  ILE146      0.0019
     47  CD1      -69.4250   63.7940  139.9050 C.3   146  ILE146      0.0001
     48  N        -62.8950   62.9390  144.0060 N.3   148  MET148     -0.1245
     49  CA       -62.4130   61.5820  143.7880 C.3   148  MET148      0.1570
     50  C        -61.1850   61.3470  144.6340 C.2   148  MET148      0.2261
     51  O        -60.3490   62.2410  144.7700 O.2   148  MET148     -0.2867
     52  CB       -62.0800   61.3430  142.3220 C.3   148  MET148      0.0387
     53  CG       -61.9490   59.8760  141.9890 C.3   148  MET148      0.0595
     54  SD       -61.1280   59.5070  140.4130 S.3   148  MET148     -0.1393
     55  CE       -59.4290   59.9480  140.7480 C.3   148  MET148      0.0692
     56  N        -65.8060   59.7080  145.4410 N.3   187  ASP187     -0.1239
     57  CA       -65.4990   58.6700  144.4950 C.3   187  ASP187      0.1674
     58  C        -64.2580   57.9820  145.0150 C.2   187  ASP187      0.2266
     59  O        -63.2980   58.6600  145.3310 O.2   187  ASP187     -0.2867
     60  CB       -65.2880   59.3090  143.0980 C.3   187  ASP187      0.1410
     61  CG       -65.0640   58.2870  141.9750 C.2   187  ASP187      0.3668
     62  OD1      -65.4250   58.5940  140.8150 O.co2 187  ASP187     -0.2456
     63  OD2      -64.5400   57.1900  142.2160 O.co2 187  ASP187     -0.2456
     64  N        -62.0290   56.4320  143.5080 N.3   189  GLY189     -0.1210
     65  CA       -60.9190   56.5610  142.5720 C.3   189  GLY189      0.1956
     66  C        -60.3560   55.2180  142.1830 C.2   189  GLY189      0.2611
     67  O        -59.1430   55.0240  142.2040 O.2   189  GLY189     -0.2717
     68  N        -61.2360   54.2810  141.8490 N.am  190  ILE190     -0.1979
     69  CA       -60.8030   52.9820  141.3340 C.3   190  ILE190      0.1595
     70  C        -60.0090   53.1900  140.0250 C.2   190  ILE190      0.2287
     71  O        -60.4570   53.9080  139.1180 O.2   190  ILE190     -0.2864
     72  CB       -62.0110   52.0400  141.0480 C.3   190  ILE190      0.0276
     73  CG1      -62.8270   51.7800  142.3220 C.3   190  ILE190      0.0022
     74  CG2      -61.5180   50.7140  140.4360 C.3   190  ILE190      0.0022
     75  CD1      -62.0920   51.0080  143.4210 C.3   190  ILE190      0.0001
     76  N        -57.0530   54.6780  140.1220 N.3   192  PHE192     -0.1241
     77  CA       -56.1170   55.7850  140.3850 C.3   192  PHE192      0.1605
     78  C        -55.3040   55.5420  141.6280 C.2   192  PHE192      0.2264
     79  O        -55.8500   55.1960  142.6860 O.2   192  PHE192     -0.2867
     80  CB       -56.8470   57.1080  140.5420 C.3   192  PHE192      0.0534
     81  CG       -57.5410   57.5730  139.2920 C.ar  192  PHE192     -0.0203
     82  CD1      -58.8640   57.1990  139.0340 C.ar  192  PHE192     -0.0042
     83  CD2      -56.8830   58.4010  138.3850 C.ar  192  PHE192     -0.0042
     84  CE1      -59.5120   57.6380  137.8860 C.ar  192  PHE192     -0.0003
     85  CE2      -57.5280   58.8470  137.2460 C.ar  192  PHE192     -0.0003
     86  CZ       -58.8450   58.4600  136.9930 C.ar  192  PHE192     -0.0000
     87  N        -69.9500   57.9240  144.0110 N.3   217  LEU217     -0.1245
     88  CA       -69.9060   57.6330  142.5870 C.3   217  LEU217      0.1561
     89  C        -68.7940   56.6500  142.3270 C.2   217  LEU217      0.2260
     90  O        -67.6660   56.8350  142.7840 O.2   217  LEU217     -0.2867
     91  CB       -69.7630   58.9320  141.7460 C.3   217  LEU217      0.0270
     92  CG       -69.6180   58.8900  140.2080 C.3   217  LEU217      0.0019
     93  CD1      -70.2800   60.0750  139.5920 C.3   217  LEU217      0.0001
     94  CD2      -68.1500   58.8960  139.8550 C.3   217  LEU217      0.0001
     95  N        -66.4380   54.8760  139.4850 N.3   219  GLY219     -0.1225
     96  CA       -65.8840   54.9440  138.1320 C.3   219  GLY219      0.1811
     97  C        -64.9410   53.7990  137.8520 C.2   219  GLY219      0.2280
     98  O        -63.7520   53.8840  138.1410 O.2   219  GLY219     -0.2866
     99  N        -61.6760   49.9680  132.9380 N.3   223  LYS223     -0.1245
    100  CA       -60.3590   50.2220  133.5140 C.3   223  LYS223      0.1561
    101  C        -59.4120   49.0320  133.4540 C.2   223  LYS223      0.2260
    102  O        -59.8210   47.8780  133.3110 O.2   223  LYS223     -0.2867
    103  CB       -60.4770   50.8150  134.9140 C.3   223  LYS223      0.0271
    104  CG       -61.0430   52.2050  134.8560 C.3   223  LYS223      0.0035
    105  CD       -60.8200   53.0070  136.1060 C.3   223  LYS223      0.0206
    106  CE       -61.4310   54.3640  135.8810 C.3   223  LYS223      0.1093
    107  NZ       -61.5410   55.1550  137.1180 N.3   223  LYS223     -0.1314
    108  N        -70.1940   55.7680  136.7910 N.3   257  ARG257     -0.1245
    109  CA       -69.7070   56.4760  135.6360 C.3   257  ARG257      0.1563
    110  C        -69.2620   55.4440  134.6190 C.2   257  ARG257      0.2260
    111  O        -68.3160   54.6730  134.8840 O.2   257  ARG257     -0.2867
    112  CB       -68.5440   57.3520  136.0290 C.3   257  ARG257      0.0307
    113  CG       -68.0210   58.1880  134.9170 C.3   257  ARG257      0.0489
    114  CD       -66.7860   58.8670  135.3810 C.3   257  ARG257      0.2205
    115  NE       -66.1720   59.6990  134.3670 N.pl3 257  ARG257     -0.0865
    116  CZ       -65.2220   59.2910  133.5410 C.cat 257  ARG257      0.5346
    117  NH1      -64.7890   58.0440  133.5900 N.pl3 257  ARG257      0.1354
    118  NH2      -64.7150   60.1350  132.6580 N.pl3 257  ARG257      0.1354
@<TRIPOS>BOND
     1     4     3    2
     2     1     2    1
     3     3     2    1
     4     2     5    1
     5     6     5    1
     6   118   116    1
     7    99   100    1
     8     5     7    1
     9    14    13   ar
    10   102   101    2
    11    11    10    2
    12   101   100    1
    13    12    13    1
    14    12     9    1
    15   100   103    1
    16   116   117    1
    17   116   115    2
    18     8     9    1
    19    13    15   ar
    20    10     9    1
    21   115   114    1
    22   110   111    2
    23   110   109    1
    24   104   103    1
    25   104   105    1
    26   113   114    1
    27   113   112    1
    28   109   112    1
    29   109   108    1
    30   106   105    1
    31   106   107    1
    32    23    21   am
    33    39    37    1
    34    86    85   ar
    35    86    84   ar
    36    85    83   ar
    37    20    21    1
    38    20    17    1
    39    21    22    2
    40    19    18    2
    41    38    36    1
    42    97    96    1
    43    97    98    2
    44    37    36    1
    45    84    82   ar
    46    96    95    1
    47    16    17    1
    48    83    81   ar
    49    17    18    1
    50    36    33    1
    51    18    24   am
    52    82    81   ar
    53    71    70    2
    54    81    80    1
    55    93    92    1
    56    32    33    1
    57    32    26   am
    58    24    25    1
    59    94    92    1
    60    33    34    1
    61    47    45    1
    62    70    69    1
    63    25    26    1
    64    25    28    1
    65    76    77    1
    66    92    91    1
    67    77    80    1
    68    77    78    1
    69    54    55    1
    70    54    53    1
    71    74    72    1
    72    26    27    2
    73    62    61   ar
    74    31    29   ar
    75    34    35    2
    76    72    69    1
    77    72    73    1
    78    28    29    1
    79    69    68    1
    80    45    44    1
    81    29    30   ar
    82    78    79    2
    83    44    46    1
    84    44    41    1
    85    91    88    1
    86    68    66   am
    87    61    63   ar
    88    61    60    1
    89    53    52    1
    90    66    67    2
    91    66    65    1
    92    52    49    1
    93    73    75    1
    94    89    88    1
    95    89    90    2
    96    43    42    2
    97    65    64    1
    98    88    87    1
    99    40    41    1
   100    41    42    1
   101    60    57    1
   102    49    48    1
   103    49    50    1
   104    57    58    1
   105    57    56    1
   106    50    51    2
   107    58    59    2
