@<TRIPOS>MOLECULE
tmp/3h2bB00.pdb
 227 224 0 0 0
SMALL
GASTEIGER

@<TRIPOS>ATOM
      1  N          1.3510   24.5190   22.4620 N.3     2  THR2       -0.1218
      2  CA         1.3430   23.7930   23.7320 C.3     2  THR2        0.1862
      3  C          1.9210   22.3720   23.6800 C.2     2  THR2        0.2287
      4  O          2.5990   21.9450   24.6190 O.2     2  THR2       -0.2866
      5  CB        -0.0830   23.7240   24.3140 C.3     2  THR2        0.1770
      6  OG1       -0.5640   25.0540   24.5490 O.3     2  THR2       -0.2211
      7  CG2       -0.0920   22.9470   25.6250 C.3     2  THR2        0.0375
      8  N          5.6680   22.6450   23.5860 N.3     5  VAL5       -0.1231
      9  CA         6.0850   23.3250   24.8150 C.3     5  VAL5        0.1692
     10  C          5.9890   22.3850   26.0120 C.2     5  VAL5        0.2592
     11  O          6.9030   22.3000   26.8340 O.2     5  VAL5       -0.2718
     12  CB         5.2050   24.5670   25.0910 C.3     5  VAL5        0.0266
     13  CG1        5.4770   25.1120   26.4930 C.3     5  VAL5        0.0020
     14  CG2        5.4870   25.6380   24.0480 C.3     5  VAL5        0.0020
     15  N          4.8800   21.6680   26.1080 N.am    6  SER6       -0.1952
     16  CA         4.6880   20.7490   27.2170 C.3     6  SER6        0.1924
     17  C          5.7420   19.6430   27.2170 C.2     6  SER6        0.2314
     18  O          6.2500   19.2720   28.2700 O.2     6  SER6       -0.2863
     19  CB         3.2840   20.1480   27.1650 C.3     6  SER6        0.2116
     20  OG         3.0420   19.5480   25.9090 O.3     6  SER6       -0.2180
     21  N          9.1050   20.9780   28.4880 N.3     9  TYR9       -0.1241
     22  CA         9.1680   21.1140   29.9380 C.3     9  TYR9        0.1605
     23  C          9.2950   19.7600   30.6410 C.2     9  TYR9        0.2264
     24  O          9.7830   19.6790   31.7670 O.2     9  TYR9       -0.2867
     25  CB         7.9290   21.8610   30.4480 C.3     9  TYR9        0.0534
     26  CG         8.1030   23.3710   30.5030 C.ar    9  TYR9       -0.0201
     27  CD1        8.8060   23.9770   31.5470 C.ar    9  TYR9       -0.0009
     28  CD2        7.5580   24.1930   29.5130 C.ar    9  TYR9       -0.0009
     29  CE1        8.9610   25.3630   31.6090 C.ar    9  TYR9        0.0417
     30  CE2        7.7080   25.5860   29.5680 C.ar    9  TYR9        0.0417
     31  CZ         8.4090   26.1570   30.6160 C.ar    9  TYR9        0.1957
     32  OH         8.5640   27.5210   30.6710 O.3     9  TYR9       -0.2866
     33  N         13.4720   25.4500   38.5660 N.3    20  LEU20      -0.1245
     34  CA        12.2260   26.0630   39.0050 C.3    20  LEU20       0.1561
     35  C         12.0830   26.0070   40.5260 C.2    20  LEU20       0.2260
     36  O         11.5010   26.9040   41.1310 O.2    20  LEU20      -0.2867
     37  CB        11.0300   25.3720   38.3390 C.3    20  LEU20       0.0270
     38  CG        10.5910   25.8580   36.9500 C.3    20  LEU20       0.0019
     39  CD1       11.7710   25.9230   35.9950 C.3    20  LEU20       0.0001
     40  CD2        9.5160   24.9180   36.4140 C.3    20  LEU20       0.0001
     41  N         -4.2830   26.1500   40.1070 N.3    47  ASP47      -0.1225
     42  CA        -2.9530   26.6400   39.7350 C.3    47  ASP47       0.1805
     43  C         -2.7080   26.1280   38.3080 C.2    47  ASP47       0.2598
     44  O         -2.3810   24.9570   38.1060 O.2    47  ASP47      -0.2718
     45  CB        -1.9310   26.0790   40.7420 C.3    47  ASP47       0.1424
     46  CG        -0.5080   26.5970   40.5340 C.2    47  ASP47       0.3668
     47  OD1       -0.2990   27.6140   39.8370 O.co2  47  ASP47      -0.2456
     48  OD2        0.4130   25.9710   41.1070 O.co2  47  ASP47      -0.2456
     49  N         -2.9000   27.0180   37.3320 N.am   48  VAL48      -0.1966
     50  CA        -2.7530   26.7050   35.9090 C.3    48  VAL48       0.1727
     51  C         -1.3030   26.6130   35.4580 C.2    48  VAL48       0.2617
     52  O         -0.6070   27.6200   35.3680 O.2    48  VAL48      -0.2715
     53  CB        -3.4820   27.7620   35.0450 C.3    48  VAL48       0.0290
     54  CG1       -3.4030   27.3960   33.5700 C.3    48  VAL48       0.0023
     55  CG2       -4.9270   27.8620   35.4860 C.3    48  VAL48       0.0023
     56  N         -0.8690   25.3950   35.1450 N.am   49  GLY49      -0.1940
     57  CA         0.5080   25.1880   34.7340 C.3    49  GLY49       0.2014
     58  C          1.3370   25.2630   35.9970 C.2    49  GLY49       0.2640
     59  O          2.2880   26.0350   36.0770 O.2    49  GLY49      -0.2714
     60  N          0.9450   24.4590   36.9850 N.am   50  SER50      -0.1935
     61  CA         1.5940   24.3980   38.2930 C.3    50  SER50       0.2055
     62  C          3.0500   23.9220   38.2710 C.2    50  SER50       0.2644
     63  O          3.7880   24.1070   39.2450 O.2    50  SER50      -0.2714
     64  CB         0.7520   23.5270   39.2430 C.3    50  SER50       0.2130
     65  OG         0.3640   22.2940   38.6500 O.3    50  SER50      -0.2179
     66  N          3.4560   23.3190   37.1570 N.am   51  GLY51      -0.1939
     67  CA         4.8240   22.8470   37.0090 C.3    51  GLY51       0.2014
     68  C          5.2630   21.8330   38.0530 C.2    51  GLY51       0.2639
     69  O          4.7090   20.7320   38.1270 O.2    51  GLY51      -0.2714
     70  N          6.2650   22.2010   38.8530 N.am   52  THR52      -0.1950
     71  CA         6.7750   21.3240   39.9100 C.3    52  THR52       0.1897
     72  C          5.8240   21.3350   41.1040 C.2    52  THR52       0.2313
     73  O          5.9990   20.5650   42.0510 O.2    52  THR52      -0.2863
     74  CB         8.1600   21.7790   40.4410 C.3    52  THR52       0.1794
     75  OG1        8.0140   23.0250   41.1380 O.3    52  THR52      -0.2208
     76  CG2        9.1550   21.9570   39.2980 C.3    52  THR52       0.0378
     77  N          5.4700   23.8670   43.1450 N.3    54  ARG54      -0.1231
     78  CA         6.0220   24.6530   44.2340 C.3    54  ARG54       0.1694
     79  C          5.0210   25.6340   44.8520 C.2    54  ARG54       0.2592
     80  O          4.9480   25.7390   46.0750 O.2    54  ARG54      -0.2718
     81  CB         7.2890   25.3840   43.7760 C.3    54  ARG54       0.0321
     82  CG         7.0840   26.3070   42.6120 C.3    54  ARG54       0.0489
     83  CD         8.3460   27.0820   42.3080 C.3    54  ARG54       0.2205
     84  NE         8.0500   28.0920   41.3050 N.pl3  54  ARG54      -0.0865
     85  CZ         8.4570   29.3510   41.3680 C.cat  54  ARG54       0.5346
     86  NH1        9.1970   29.7640   42.3910 N.pl3  54  ARG54       0.1354
     87  NH2        8.0900   30.2030   40.4220 N.pl3  54  ARG54       0.1354
     88  N          4.2430   26.3450   44.0350 N.am   55  TRP55      -0.1976
     89  CA         3.2550   27.2770   44.5910 C.3    55  TRP55       0.1640
     90  C          1.9910   26.5610   45.0680 C.2    55  TRP55       0.2290
     91  O          1.3200   27.0180   45.9980 O.2    55  TRP55      -0.2864
     92  CB         2.8770   28.3580   43.5740 C.3    55  TRP55       0.0576
     93  CG         3.9100   29.4150   43.4500 C.ar   55  TRP55       0.0006
     94  CD1        4.7870   29.5990   42.4180 C.ar   55  TRP55       0.0946
     95  CD2        4.2050   30.4260   44.4150 C.ar   55  TRP55       0.0152
     96  NE1        5.6160   30.6640   42.6880 N.ar   55  TRP55      -0.2442
     97  CE2        5.2800   31.1890   43.9080 C.ar   55  TRP55       0.0810
     98  CE3        3.6650   30.7590   45.6630 C.ar   55  TRP55       0.0012
     99  CZ2        5.8260   32.2740   44.6070 C.ar   55  TRP55       0.0191
    100  CZ3        4.2070   31.8370   46.3590 C.ar   55  TRP55       0.0001
    101  CH2        5.2780   32.5800   45.8280 C.ar   55  TRP55       0.0015
    102  N         -2.8660   22.0900   37.6710 N.3    69  LEU69      -0.1231
    103  CA        -3.1250   21.6180   36.3080 C.3    69  LEU69       0.1693
    104  C         -1.7750   21.7160   35.6100 C.2    69  LEU69       0.2592
    105  O         -1.2090   22.8090   35.5330 O.2    69  LEU69      -0.2718
    106  CB        -4.1280   22.5290   35.5830 C.3    69  LEU69       0.0284
    107  CG        -4.3340   22.1920   34.0990 C.3    69  LEU69       0.0019
    108  CD1       -5.0850   20.8630   33.9800 C.3    69  LEU69       0.0001
    109  CD2       -5.1110   23.3000   33.3980 C.3    69  LEU69       0.0001
    110  N         -1.2500   20.5930   35.1210 N.am   70  GLU70      -0.1966
    111  CA         0.0460   20.6020   34.4400 C.3    70  GLU70       0.1718
    112  C          0.0960   19.5890   33.2890 C.2    70  GLU70       0.2458
    113  O         -0.1310   18.3980   33.4980 O.2    70  GLU70      -0.2730
    114  CB         1.1620   20.3040   35.4600 C.3    70  GLU70       0.0428
    115  CG         2.5690   20.2030   34.8640 C.3    70  GLU70       0.1163
    116  CD         2.9170   21.3960   34.0000 C.2    70  GLU70       0.3649
    117  OE1        2.8190   22.5390   34.4970 O.co2  70  GLU70      -0.2457
    118  OE2        3.2750   21.1900   32.8230 O.co2  70  GLU70      -0.2457
    119  N          0.3710   20.0570   32.0540 N.am   71  PRO71      -0.2716
    120  CA         0.4480   19.1710   30.8830 C.3    71  PRO71       0.1536
    121  C          1.7540   18.3750   30.7800 C.2    71  PRO71       0.2598
    122  O          1.7630   17.2660   30.2550 O.2    71  PRO71      -0.2715
    123  CB         0.2470   20.1280   29.7030 C.3    71  PRO71       0.0310
    124  CG         0.8350   21.4030   30.1970 C.3    71  PRO71       0.0237
    125  CD         0.3450   21.4710   31.6350 C.3    71  PRO71       0.0939
    126  N          2.8500   18.9330   31.2910 N.am   72  ALA72      -0.1978
    127  CA         4.1490   18.2510   31.2460 C.3    72  ALA72       0.1597
    128  C          4.1280   17.0030   32.1240 C.2    72  ALA72       0.2287
    129  O          4.1480   17.0930   33.3480 O.2    72  ALA72      -0.2864
    130  CB         5.2580   19.1950   31.7100 C.3    72  ALA72       0.0319
    131  N          6.6850   16.6420   34.9280 N.3    75  LEU75      -0.1245
    132  CA         6.4810   17.6350   35.9840 C.3    75  LEU75       0.1561
    133  C          5.3010   17.3280   36.9020 C.2    75  LEU75       0.2260
    134  O          5.4220   17.4130   38.1270 O.2    75  LEU75      -0.2867
    135  CB         6.3180   19.0390   35.3820 C.3    75  LEU75       0.0270
    136  CG         7.5070   19.5570   34.5560 C.3    75  LEU75       0.0019
    137  CD1        7.2750   21.0110   34.1590 C.3    75  LEU75       0.0001
    138  CD2        8.7850   19.4440   35.3660 C.3    75  LEU75       0.0001
    139  N         -3.0400   17.7330   32.4260 N.3    91  GLY91      -0.1210
    140  CA        -3.7740   18.1730   31.2550 C.3    91  GLY91       0.1956
    141  C         -3.4200   19.5880   30.8790 C.2    91  GLY91       0.2613
    142  O         -2.6170   20.2270   31.5600 O.2    91  GLY91      -0.2717
    143  N         -4.0300   20.0760   29.8030 N.am   92  THR92      -0.1938
    144  CA        -3.7870   21.4260   29.3030 C.3    92  THR92       0.2028
    145  C         -4.9800   22.3320   29.5770 C.2    92  THR92       0.2642
    146  O         -6.0500   21.8690   29.9710 O.2    92  THR92      -0.2714
    147  CB        -3.5760   21.4170   27.7830 C.3    92  THR92       0.1808
    148  OG1       -4.7690   20.9250   27.1540 O.3    92  THR92      -0.2208
    149  CG2       -2.4100   20.5140   27.4020 C.3    92  THR92       0.0379
    150  N         -4.7990   23.6270   29.3480 N.am   93  ILE93      -0.1963
    151  CA        -5.8820   24.5790   29.5490 C.3    93  ILE93       0.1727
    152  C         -7.1040   24.2100   28.6990 C.2    93  ILE93       0.2616
    153  O         -8.2320   24.2250   29.1920 O.2    93  ILE93      -0.2715
    154  CB        -5.4170   26.0010   29.1940 C.3    93  ILE93       0.0290
    155  CG1       -4.3830   26.4630   30.2210 C.3    93  ILE93       0.0022
    156  CG2       -6.6150   26.9470   29.1220 C.3    93  ILE93       0.0023
    157  CD1       -3.7660   27.8080   29.9040 C.3    93  ILE93       0.0001
    158  N         -6.8810   23.8650   27.4320 N.am   94  THR94      -0.1951
    159  CA        -7.9890   23.5080   26.5450 C.3    94  THR94       0.1897
    160  C         -8.7500   22.2680   27.0210 C.2    94  THR94       0.2313
    161  O         -9.9550   22.1460   26.7870 O.2    94  THR94      -0.2863
    162  CB        -7.5120   23.2750   25.0890 C.3    94  THR94       0.1794
    163  OG1       -6.6830   22.1130   25.0280 O.3    94  THR94      -0.2208
    164  CG2       -6.7300   24.4740   24.5900 C.3    94  THR94       0.0378
    165  N          0.8060   31.5440   36.9140 N.3   109  TRP109     -0.1227
    166  CA         2.1030   32.1780   37.1520 C.3   109  TRP109      0.1737
    167  C          3.1300   31.7810   36.0960 C.2   109  TRP109      0.2595
    168  O          3.7480   30.7120   36.1750 O.2   109  TRP109     -0.2718
    169  CB         2.6160   31.8040   38.5480 C.3   109  TRP109      0.0564
    170  CG         3.4250   32.8910   39.1880 C.ar  109  TRP109      0.0003
    171  CD1        4.7170   32.8070   39.6310 C.ar  109  TRP109      0.0946
    172  CD2        2.9880   34.2230   39.4740 C.ar  109  TRP109      0.0152
    173  NE1        5.1080   34.0060   40.1770 N.ar  109  TRP109     -0.2442
    174  CE2        4.0670   34.8930   40.0940 C.ar  109  TRP109      0.0810
    175  CE3        1.7870   34.9170   39.2690 C.ar  109  TRP109      0.0012
    176  CZ2        3.9820   36.2280   40.5090 C.ar  109  TRP109      0.0191
    177  CZ3        1.7000   36.2470   39.6830 C.ar  109  TRP109      0.0001
    178  CH2        2.7960   36.8850   40.2980 C.ar  109  TRP109      0.0015
    179  N          3.2920   32.6500   35.1030 N.am  110  TYR110     -0.1962
    180  CA         4.2220   32.4440   33.9930 C.3   110  TYR110      0.1771
    181  C          3.9370   31.1700   33.1980 C.2   110  TYR110      0.2620
    182  O          4.8230   30.6210   32.5440 O.2   110  TYR110     -0.2715
    183  CB         5.6740   32.4490   34.5030 C.3   110  TYR110      0.0574
    184  CG         6.0900   33.7860   35.0930 C.ar  110  TYR110     -0.0198
    185  CD1        6.3970   33.9150   36.4510 C.ar  110  TYR110     -0.0009
    186  CD2        6.1410   34.9350   34.2960 C.ar  110  TYR110     -0.0009
    187  CE1        6.7430   35.1680   37.0000 C.ar  110  TYR110      0.0417
    188  CE2        6.4840   36.1830   34.8350 C.ar  110  TYR110      0.0417
    189  CZ         6.7810   36.2890   36.1800 C.ar  110  TYR110      0.1957
    190  OH         7.1070   37.5220   36.6830 O.3   110  TYR110     -0.2866
    191  N          2.6900   30.7140   33.2350 N.am  111  SER111     -0.1936
    192  CA         2.3040   29.5150   32.5030 C.3   111  SER111      0.2055
    193  C          1.7340   29.8550   31.1280 C.2   111  SER111      0.2643
    194  O          1.5240   28.9680   30.3130 O.2   111  SER111     -0.2714
    195  CB         1.2590   28.7370   33.2910 C.3   111  SER111      0.2130
    196  OG         0.1130   29.5390   33.5000 O.3   111  SER111     -0.2179
    197  N          1.4780   31.1340   30.8720 N.am  112  LEU112     -0.1963
    198  CA         0.9210   31.5400   29.5800 C.3   112  LEU112      0.1728
    199  C          1.9330   32.2610   28.6970 C.2   112  LEU112      0.2616
    200  O          1.5870   32.7480   27.6220 O.2   112  LEU112     -0.2715
    201  CB        -0.2760   32.4550   29.7950 C.3   112  LEU112      0.0311
    202  CG        -1.3940   31.8690   30.6550 C.3   112  LEU112      0.0022
    203  CD1       -2.4000   32.9590   30.9810 C.3   112  LEU112      0.0001
    204  CD2       -2.0540   30.7150   29.9270 C.3   112  LEU112      0.0001
    205  N          3.1820   32.3060   29.1460 N.am  113  ILE113     -0.1963
    206  CA         4.2390   33.0100   28.4330 C.3   113  ILE113      0.1727
    207  C          4.6620   32.4580   27.0710 C.2   113  ILE113      0.2616
    208  O          5.3340   33.1540   26.3090 O.2   113  ILE113     -0.2715
    209  CB         5.4910   33.1280   29.3240 C.3   113  ILE113      0.0290
    210  CG1        6.0390   31.7380   29.6360 C.3   113  ILE113      0.0022
    211  CG2        5.1380   33.8500   30.6220 C.3   113  ILE113      0.0023
    212  CD1        7.3340   31.7650   30.4380 C.3   113  ILE113      0.0001
    213  N          4.2660   31.2290   26.7520 N.am  114  HIS114     -0.1973
    214  CA         4.6460   30.6390   25.4700 C.3   114  HIS114      0.1656
    215  C          3.5280   30.6860   24.4330 C.2   114  HIS114      0.2291
    216  O          3.6110   30.0330   23.3940 O.2   114  HIS114     -0.2864
    217  CB         5.1090   29.1890   25.6720 C.3   114  HIS114      0.0771
    218  CG         6.3090   29.0630   26.5610 C.ar  114  HIS114      0.0820
    219  ND1        6.2330   28.6010   27.8570 N.ar  114  HIS114     -0.2267
    220  CD2        7.6110   29.3670   26.3460 C.ar  114  HIS114      0.1154
    221  CE1        7.4370   28.6220   28.4020 C.ar  114  HIS114      0.1986
    222  NE2        8.2910   29.0810   27.5070 N.ar  114  HIS114     -0.2212
    223  N         -7.0860   30.1650   24.8420 N.3   122  ALA122     -0.1245
    224  CA        -6.7420   29.7190   26.1870 C.3   122  ALA122      0.1562
    225  C         -7.5300   30.5370   27.2020 C.2   122  ALA122      0.2260
    226  O         -8.0570   29.9960   28.1770 O.2   122  ALA122     -0.2867
    227  CB        -5.2460   29.8690   26.4310 C.3   122  ALA122      0.0290
@<TRIPOS>BOND
     1     1     2    1
     2   216   215    2
     3     8     9    1
     4     3     2    1
     5     3     4    2
     6     2     5    1
     7    14    12    1
     8     5     6    1
     9     5     7    1
    10   215   214    1
    11   164   162    1
    12     9    12    1
    13     9    10    1
    14   223   224    1
    15   163   162    1
    16   162   159    1
    17    12    13    1
    18   214   217    1
    19   214   213    1
    20   217   218    1
    21    20    19    1
    22    10    15   am
    23    10    11    2
    24    15    16    1
    25   224   227    1
    26   224   225    1
    27   208   207    2
    28   220   218   ar
    29   220   222   ar
    30   159   160    1
    31   159   158    1
    32   218   219   ar
    33   213   207   am
    34   161   160    2
    35   207   206    1
    36   148   147    1
    37    19    16    1
    38   225   226    2
    39    16    17    1
    40    17    18    2
    41   149   147    1
    42   158   152   am
    43   222   221   ar
    44   200   199    2
    45   147   144    1
    46   219   221   ar
    47   206   205    1
    48   206   209    1
    49    21    22    1
    50   199   205   am
    51   199   198    1
    52   152   153    2
    53   152   151    1
    54   156   154    1
    55   154   151    1
    56   154   155    1
    57   144   145    1
    58   144   143    1
    59   209   210    1
    60   209   211    1
    61   150   151    1
    62   150   145   am
    63    28    30   ar
    64    28    26   ar
    65    30    31   ar
    66   145   146    2
    67   198   201    1
    68   198   197    1
    69   210   212    1
    70   123   124    1
    71   123   120    1
    72   201   202    1
    73   143   141   am
    74   157   155    1
    75   204   202    1
    76    22    25    1
    77    22    23    1
    78   124   125    1
    79   122   121    2
    80   194   193    2
    81    25    26    1
    82    26    27   ar
    83    31    32    1
    84    31    29   ar
    85    23    24    2
    86   202   203    1
    87   121   120    1
    88   121   126   am
    89   197   193   am
    90   141   140    1
    91   141   142    2
    92   120   119    1
    93   193   192    1
    94   127   126    1
    95   127   130    1
    96   127   128    1
    97   140   139    1
    98    27    29   ar
    99   125   119    1
   100   119   112   am
   101   128   129    2
   102   192   191    1
   103   192   195    1
   104   182   181    2
   105   118   116   ar
   106   181   191   am
   107   181   180    1
   108   112   113    2
   109   112   111    1
   110   195   196    1
   111   109   107    1
   112    54    53    1
   113   108   107    1
   114   180   183    1
   115   180   179    1
   116   116   117   ar
   117   116   115    1
   118   107   106    1
   119   137   136    1
   120   186   188   ar
   121   186   184   ar
   122   111   110    1
   123   111   114    1
   124   183   184    1
   125   136   138    1
   126   136   135    1
   127    57    56    1
   128    57    58    1
   129   188   189   ar
   130   115   114    1
   131   131   132    1
   132    53    55    1
   133    53    50    1
   134   184   185   ar
   135   179   167   am
   136   110   104   am
   137    56    51   am
   138    52    51    2
   139   135   132    1
   140    51    50    1
   141   105   104    2
   142   106   103    1
   143   104   103    1
   144    50    49    1
   145   132   133    1
   146    39    38    1
   147    58    59    2
   148    58    60   am
   149   167   168    2
   150   167   166    1
   151   189   190    1
   152   189   187   ar
   153   103   102    1
   154    40    38    1
   155   185   187   ar
   156   133   134    2
   157   165   166    1
   158    38    37    1
   159    60    61    1
   160    67    66    1
   161    67    68    1
   162   166   169    1
   163    66    62   am
   164    49    43   am
   165    68    69    2
   166    68    70   am
   167    44    43    2
   168    62    61    1
   169    62    63    2
   170    61    64    1
   171    43    42    1
   172    37    34    1
   173   169   170    1
   174    33    34    1
   175    65    64    1
   176    70    71    1
   177    34    35    1
   178   170   172   ar
   179   170   171   ar
   180   175   172   ar
   181   175   177   ar
   182    76    74    1
   183   172   174   ar
   184   171   173   ar
   185   177   178   ar
   186    42    41    1
   187    42    45    1
   188    47    46   ar
   189    71    74    1
   190    71    72    1
   191   174   173   ar
   192   174   176   ar
   193   178   176   ar
   194    87    85    1
   195    74    75    1
   196    35    36    2
   197    46    45    1
   198    46    48   ar
   199    72    73    2
   200    84    85    2
   201    84    83    1
   202    85    86    1
   203    83    82    1
   204    94    96   ar
   205    94    93   ar
   206    82    81    1
   207    96    97   ar
   208    77    78    1
   209    93    92    1
   210    93    95   ar
   211    92    89    1
   212    81    78    1
   213    97    95   ar
   214    97    99   ar
   215    88    89    1
   216    88    79   am
   217    78    79    1
   218    95    98   ar
   219    89    90    1
   220    99   101   ar
   221    79    80    2
   222    90    91    2
   223    98   100   ar
   224   101   100   ar
