@<TRIPOS>MOLECULE
tmp/3h2cA00.pdb
 110 98 0 0 0
SMALL
GASTEIGER

@<TRIPOS>ATOM
      1  N        -72.4030   89.0130   99.6870 N.3    56  THR56      -0.1218
      2  CA       -72.5640   89.8140   98.4670 C.3    56  THR56       0.1862
      3  C        -73.6950   90.9040   98.5160 C.2    56  THR56       0.2287
      4  O        -74.5560   90.9390   97.6160 O.2    56  THR56      -0.2866
      5  CB       -72.7530   88.8390   97.1850 C.3    56  THR56       0.1770
      6  OG1      -71.7180   87.8820   97.1660 O.3    56  THR56      -0.2211
      7  CG2      -72.8040   89.5920   95.8950 C.3    56  THR56       0.0375
      8  N        -71.9290   78.5650   95.7790 N.3    84  ASP84      -0.1239
      9  CA       -72.1560   79.8800   95.2110 C.3    84  ASP84       0.1674
     10  C        -70.8710   80.7010   95.3230 C.2    84  ASP84       0.2266
     11  O        -70.6860   81.4520   96.2380 O.2    84  ASP84      -0.2867
     12  CB       -73.3800   80.5210   95.9120 C.3    84  ASP84       0.1410
     13  CG       -73.6320   82.0060   95.5240 C.2    84  ASP84       0.3668
     14  OD1      -74.7130   82.5500   95.9320 O.co2  84  ASP84      -0.2456
     15  OD2      -72.7600   82.6570   94.8770 O.co2  84  ASP84      -0.2456
     16  N        -72.3490   77.5110   90.8000 N.3   103  ASN103     -0.1240
     17  CA       -73.2700   78.5610   90.7910 C.3   103  ASN103      0.1653
     18  C        -72.5090   79.8770   90.7950 C.2   103  ASN103      0.2266
     19  O        -72.1320   80.3500   91.8620 O.2   103  ASN103     -0.2867
     20  CB       -74.1650   78.4620   92.0100 C.3   103  ASN103      0.1155
     21  CG       -75.1730   79.5930   92.0600 C.2   103  ASN103      0.2627
     22  OD1      -75.6670   80.0160   91.0290 O.2   103  ASN103     -0.2716
     23  ND2      -75.4600   80.1110   93.2560 N.am  103  ASN103     -0.0877
     24  N        -71.8500   83.8910   90.0300 N.3   105  ILE105     -0.1245
     25  CA       -72.5060   85.2010   89.8120 C.3   105  ILE105      0.1561
     26  C        -71.7520   86.0670   88.7610 C.2   105  ILE105      0.2260
     27  O        -72.2780   87.0790   88.2410 O.2   105  ILE105     -0.2867
     28  CB       -72.7060   85.9600   91.1470 C.3   105  ILE105      0.0252
     29  CG1      -71.3710   86.0830   91.9030 C.3   105  ILE105      0.0019
     30  CG2      -73.6210   85.1840   92.0460 C.3   105  ILE105      0.0019
     31  CD1      -71.2680   87.3040   92.7990 C.3   105  ILE105      0.0001
     32  N        -74.1430   76.9230   86.8530 N.3   126  ILE126     -0.1245
     33  CA       -75.0560   78.0450   86.6430 C.3   126  ILE126      0.1561
     34  C        -74.1980   79.2520   86.2400 C.2   126  ILE126      0.2260
     35  O        -73.1350   79.4950   86.8540 O.2   126  ILE126     -0.2867
     36  CB       -75.8410   78.3270   87.9100 C.3   126  ILE126      0.0252
     37  CG1      -76.6900   77.0870   88.2530 C.3   126  ILE126      0.0019
     38  CG2      -76.7070   79.5470   87.7500 C.3   126  ILE126      0.0019
     39  CD1      -76.9800   76.8830   89.7350 C.3   126  ILE126      0.0001
     40  N        -74.4580   83.2610   85.4620 N.3   128  MET128     -0.1245
     41  CA       -75.3280   84.3690   85.7300 C.3   128  MET128      0.1570
     42  C        -74.8330   85.5350   84.9240 C.2   128  MET128      0.2261
     43  O        -73.6280   85.7430   84.8140 O.2   128  MET128     -0.2867
     44  CB       -75.3220   84.7120   87.2210 C.3   128  MET128      0.0387
     45  CG       -76.5100   85.4920   87.6640 C.3   128  MET128      0.0595
     46  SD       -76.3820   86.2390   89.3250 S.3   128  MET128     -0.1393
     47  CE       -75.4440   87.7500   89.0700 C.3   128  MET128      0.0692
     48  N        -78.9510   82.0430   84.1460 N.3   167  ASP167     -0.1239
     49  CA       -79.7080   82.8500   85.0960 C.3   167  ASP167      0.1674
     50  C        -79.6530   84.2940   84.6630 C.2   167  ASP167      0.2266
     51  O        -78.5730   84.8140   84.4460 O.2   167  ASP167     -0.2867
     52  CB       -78.9690   82.7240   86.4350 C.3   167  ASP167      0.1410
     53  CG       -79.5860   83.5480   87.5810 C.2   167  ASP167      0.3668
     54  OD1      -79.4150   82.9990   88.7020 O.co2 167  ASP167     -0.2456
     55  OD2      -80.1500   84.6770   87.4250 O.co2 167  ASP167     -0.2456
     56  N        -79.5700   86.9420   86.0470 N.3   169  GLY169     -0.1210
     57  CA       -78.9740   87.8270   87.0420 C.3   169  GLY169      0.1956
     58  C        -79.7940   89.0750   87.3180 C.2   169  GLY169      0.2611
     59  O        -79.2850   90.2170   87.2730 O.2   169  GLY169     -0.2717
     60  N        -81.0670   88.8660   87.6080 N.am  170  ILE170     -0.1979
     61  CA       -81.9230   89.9420   88.0420 C.3   170  ILE170      0.1595
     62  C        -81.2940   90.3910   89.3630 C.2   170  ILE170      0.2287
     63  O        -80.9410   89.5180   90.2230 O.2   170  ILE170     -0.2864
     64  CB       -83.3940   89.3970   88.3300 C.3   170  ILE170      0.0276
     65  CG1      -84.3310   89.5950   87.1520 C.3   170  ILE170      0.0022
     66  CG2      -84.0140   90.1160   89.4860 C.3   170  ILE170      0.0022
     67  CD1      -83.7040   89.5760   85.8530 C.3   170  ILE170      0.0001
     68  N        -78.4990   92.4240   89.3850 N.3   172  PHE172     -0.1241
     69  CA       -77.0810   92.8490   89.1790 C.3   172  PHE172      0.1605
     70  C        -76.8520   93.6540   87.9840 C.2   172  PHE172      0.2264
     71  O        -77.3440   93.3350   86.8840 O.2   172  PHE172     -0.2867
     72  CB       -76.1610   91.6300   89.0800 C.3   172  PHE172      0.0534
     73  CG       -76.2600   90.7450   90.2720 C.ar  172  PHE172     -0.0203
     74  CD1      -77.4290   90.0180   90.5000 C.ar  172  PHE172     -0.0042
     75  CD2      -75.2220   90.6940   91.1970 C.ar  172  PHE172     -0.0042
     76  CE1      -77.5290   89.2060   91.6060 C.ar  172  PHE172     -0.0003
     77  CE2      -75.2890   89.8750   92.3060 C.ar  172  PHE172     -0.0003
     78  CZ       -76.4170   89.1380   92.5230 C.ar  172  PHE172     -0.0000
     79  N        -82.4650   79.3140   85.5140 N.3   197  LEU197     -0.1245
     80  CA       -82.7800   79.5610   86.8990 C.3   197  LEU197      0.1561
     81  C        -83.0500   81.0280   87.1220 C.2   197  LEU197      0.2260
     82  O        -82.2790   81.8680   86.7470 O.2   197  LEU197     -0.2867
     83  CB       -81.5940   79.2310   87.7550 C.3   197  LEU197      0.0270
     84  CG       -81.3700   79.7820   89.2000 C.3   197  LEU197      0.0019
     85  CD1      -82.4760   79.2710   90.0700 C.3   197  LEU197      0.0001
     86  CD2      -80.0130   79.2070   89.7670 C.3   197  LEU197      0.0001
     87  N        -83.4080   84.0470   89.9110 N.3   199  GLY199     -0.1225
     88  CA       -82.9750   84.3110   91.2740 C.3   199  GLY199      0.1811
     89  C        -83.4500   85.6660   91.6520 C.2   199  GLY199      0.2280
     90  O        -82.8320   86.6840   91.2870 O.2   199  GLY199     -0.2866
     91  N        -85.0500   90.6400   96.5180 N.3   203  LYS203     -0.1245
     92  CA       -84.0970   91.5720   96.0060 C.3   203  LYS203      0.1561
     93  C        -84.6110   93.0130   96.1870 C.2   203  LYS203      0.2260
     94  O        -85.7930   93.2610   96.4410 O.2   203  LYS203     -0.2867
     95  CB       -83.8780   91.2750   94.5320 C.3   203  LYS203      0.0271
     96  CG       -83.0260   90.1180   94.2780 C.3   203  LYS203      0.0035
     97  CD       -81.5550   90.5450   94.4320 C.3   203  LYS203      0.0206
     98  CE       -80.6450   89.3520   94.4190 C.3   203  LYS203      0.1093
     99  NZ       -81.0730   88.6360   93.2560 N.3   203  LYS203     -0.1314
    100  N        -84.4090   80.1930   92.7520 N.3   237  ARG237     -0.1245
    101  CA       -83.5320   80.1950   93.8950 C.3   237  ARG237      0.1563
    102  C        -84.0830   81.1300   94.9400 C.2   237  ARG237      0.2260
    103  O        -84.1190   82.3490   94.6550 O.2   237  ARG237     -0.2867
    104  CB       -82.1730   80.7140   93.4400 C.3   237  ARG237      0.0307
    105  CG       -81.0640   80.6390   94.4590 C.3   237  ARG237      0.0489
    106  CD       -79.9890   81.5620   94.0040 C.3   237  ARG237      0.2205
    107  NE       -79.0270   81.9460   95.0380 N.pl3 237  ARG237     -0.0865
    108  CZ       -79.1400   83.0860   95.7010 C.cat 237  ARG237      0.5346
    109  NH1      -80.1780   83.8640   95.4660 N.pl3 237  ARG237      0.1354
    110  NH2      -78.2580   83.4310   96.6010 N.pl3 237  ARG237      0.1354
@<TRIPOS>BOND
     1    48    49    1
     2    51    50    2
     3    50    49    1
     4    43    42    2
     5    42    41    1
     6    49    52    1
     7    40    41    1
     8    79    80    1
     9    41    44    1
    10    67    65    1
    11    56    57    1
    12    34    33    1
    13    34    35    2
    14    52    53    1
    15    33    32    1
    16    33    36    1
    17    82    81    2
    18    71    70    2
    19    80    81    1
    20    80    83    1
    21    57    58    1
    22    65    64    1
    23    44    45    1
    24    59    58    2
    25    58    60   am
    26    55    53   ar
    27    53    54   ar
    28    60    61    1
    29    45    46    1
    30    38    36    1
    31    83    84    1
    32    36    37    1
    33    70    69    1
    34    61    64    1
    35    61    62    1
    36    27    26    2
    37    37    39    1
    38    64    66    1
    39    26    25    1
    40    47    46    1
    41    72    69    1
    42    72    73    1
    43    69    68    1
    44    84    86    1
    45    84    85    1
    46    62    63    2
    47    25    24    1
    48    25    28    1
    49    87    88    1
    50    73    74   ar
    51    73    75   ar
    52    74    76   ar
    53    17    18    1
    54    17    16    1
    55    17    20    1
    56    18    19    2
    57    22    21    2
    58    28    29    1
    59    28    30    1
    60    75    77   ar
    61    88    89    1
    62    90    89    2
    63    76    78   ar
    64    29    31    1
    65    20    21    1
    66    21    23   am
    67    77    78   ar
    68   100   101    1
    69    99    98    1
    70   104   101    1
    71   104   105    1
    72   101   102    1
    73   106   105    1
    74   106   107    1
    75    96    97    1
    76    96    95    1
    77    98    97    1
    78    95    92    1
    79   103   102    2
    80    15    13   ar
    81   107   108    2
    82     9    10    1
    83     9     8    1
    84     9    12    1
    85    10    11    2
    86   109   108    1
    87    13    12    1
    88    13    14   ar
    89   108   110    1
    90     7     5    1
    91    92    93    1
    92    92    91    1
    93    93    94    2
    94     6     5    1
    95     5     2    1
    96     4     3    2
    97     2     3    1
    98     2     1    1
