@<TRIPOS>MOLECULE
tmp/3h2fB00.pdb
 99 88 0 0 0
SMALL
GASTEIGER

@<TRIPOS>ATOM
      1  N        -66.9410   68.4600  135.1220 N.3    90  ASP90      -0.1239
      2  CA       -65.8290   67.6780  135.6530 C.3    90  ASP90       0.1674
      3  C        -64.5920   68.5690  135.6390 C.2    90  ASP90       0.2266
      4  O        -63.9770   68.7630  134.5830 O.2    90  ASP90      -0.2867
      5  CB       -65.6710   66.4220  134.7920 C.3    90  ASP90       0.1410
      6  CG       -64.2520   65.8250  134.8470 C.2    90  ASP90       0.3668
      7  OD1      -63.8880   65.0340  133.9170 O.co2  90  ASP90      -0.2456
      8  OD2      -63.5130   66.1260  135.8100 O.co2  90  ASP90      -0.2456
      9  N        -68.0440   68.5880  139.7080 N.3   109  ASN109     -0.1240
     10  CA       -67.4340   67.2690  139.9690 C.3   109  ASN109      0.1653
     11  C        -65.9080   67.3840  140.0640 C.2   109  ASN109      0.2266
     12  O        -65.2090   67.4500  139.0530 O.2   109  ASN109     -0.2867
     13  CB       -67.8860   66.2950  138.8660 C.3   109  ASN109      0.1155
     14  CG       -67.3850   64.8680  139.0620 C.2   109  ASN109      0.2627
     15  OD1      -67.1100   64.4410  140.1760 O.2   109  ASN109     -0.2716
     16  ND2      -67.3180   64.0950  137.9500 N.am  109  ASN109     -0.0877
     17  N        -62.3350   65.9430  140.9600 N.3   111  ILE111     -0.1245
     18  CA       -61.4530   64.7800  141.2310 C.3   111  ILE111      0.1561
     19  C        -60.3940   64.9560  142.3380 C.2   111  ILE111      0.2260
     20  O        -59.7270   63.9820  142.7080 O.2   111  ILE111     -0.2867
     21  CB       -60.7920   64.1540  139.9770 C.3   111  ILE111      0.0252
     22  CG1      -59.7810   65.1210  139.3160 C.3   111  ILE111      0.0019
     23  CG2      -61.8680   63.6820  139.0070 C.3   111  ILE111      0.0019
     24  CD1      -58.6910   64.4620  138.4020 C.3   111  ILE111      0.0001
     25  N        -69.2310   67.5050  144.2350 N.3   132  ILE132     -0.1245
     26  CA       -68.7670   66.1450  144.4770 C.3   132  ILE132      0.1561
     27  C        -67.2930   66.2310  144.8880 C.2   132  ILE132      0.2260
     28  O        -66.4530   66.7340  144.1450 O.2   132  ILE132     -0.2867
     29  CB       -68.9510   65.2370  143.1920 C.3   132  ILE132      0.0252
     30  CG1      -70.4190   65.1000  142.8140 C.3   132  ILE132      0.0019
     31  CG2      -68.3790   63.8550  143.4370 C.3   132  ILE132      0.0019
     32  CD1      -70.6160   64.9650  141.2610 C.3   132  ILE132      0.0001
     33  N        -64.2280   64.1300  145.4970 N.3   134  MET134     -0.1245
     34  CA       -63.7000   62.7560  145.3150 C.3   134  MET134      0.1570
     35  C        -62.4500   62.5030  146.1460 C.2   134  MET134      0.2261
     36  O        -61.6490   63.4200  146.3560 O.2   134  MET134     -0.2867
     37  CB       -63.4260   62.4520  143.8590 C.3   134  MET134      0.0387
     38  CG       -63.0850   60.9930  143.5670 C.3   134  MET134      0.0595
     39  SD       -62.5650   60.8280  141.8420 S.3   134  MET134     -0.1393
     40  CE       -60.7520   60.9630  142.1250 C.3   134  MET134      0.0692
     41  N        -67.1660   60.7160  147.2060 N.3   173  ASP173     -0.1239
     42  CA       -66.8670   59.7270  146.1780 C.3   173  ASP173      0.1674
     43  C        -65.5640   59.0260  146.6560 C.2   173  ASP173      0.2266
     44  O        -64.5950   59.7170  146.9590 O.2   173  ASP173     -0.2867
     45  CB       -66.7150   60.4540  144.8370 C.3   173  ASP173      0.1410
     46  CG       -66.4480   59.5140  143.6380 C.2   173  ASP173      0.3668
     47  OD1      -66.8820   59.8640  142.5170 O.co2 173  ASP173     -0.2456
     48  OD2      -65.8530   58.4190  143.7900 O.co2 173  ASP173     -0.2456
     49  N        -62.4100   55.4680  143.2420 N.3   176  ILE176     -0.1245
     50  CA       -61.9560   54.1890  142.7290 C.3   176  ILE176      0.1561
     51  C        -61.0600   54.4050  141.4930 C.2   176  ILE176      0.2260
     52  O        -61.4220   55.1410  140.5670 O.2   176  ILE176     -0.2867
     53  CB       -63.1260   53.2950  142.2670 C.3   176  ILE176      0.0252
     54  CG1      -64.0960   52.9600  143.4070 C.3   176  ILE176      0.0019
     55  CG2      -62.5430   51.9780  141.5510 C.3   176  ILE176      0.0019
     56  CD1      -63.4670   52.3330  144.7470 C.3   176  ILE176      0.0001
     57  N        -58.1240   55.8380  141.7790 N.3   178  PHE178     -0.1241
     58  CA       -57.2130   56.9870  141.9920 C.3   178  PHE178      0.1605
     59  C        -56.3870   56.7600  143.2180 C.2   178  PHE178      0.2264
     60  O        -56.9400   56.5120  144.2930 O.2   178  PHE178     -0.2867
     61  CB       -57.9660   58.3210  142.1270 C.3   178  PHE178      0.0534
     62  CG       -58.6530   58.7880  140.8480 C.ar  178  PHE178     -0.0203
     63  CD1      -59.9250   58.3140  140.5070 C.ar  178  PHE178     -0.0042
     64  CD2      -58.0330   59.7520  140.0130 C.ar  178  PHE178     -0.0042
     65  CE1      -60.5680   58.7720  139.3220 C.ar  178  PHE178     -0.0003
     66  CE2      -58.6590   60.2170  138.8370 C.ar  178  PHE178     -0.0003
     67  CZ       -59.9290   59.7210  138.4910 C.ar  178  PHE178     -0.0000
     68  N        -71.3140   59.0680  145.5560 N.3   203  LEU203     -0.1245
     69  CA       -71.2810   58.7510  144.1530 C.3   203  LEU203      0.1561
     70  C        -70.1630   57.7290  143.8650 C.2   203  LEU203      0.2260
     71  O        -69.0620   57.8810  144.3760 O.2   203  LEU203     -0.2867
     72  CB       -71.0390   60.0240  143.3000 C.3   203  LEU203      0.0270
     73  CG       -70.9900   59.8410  141.7850 C.3   203  LEU203      0.0019
     74  CD1      -71.7120   60.9710  141.1140 C.3   203  LEU203      0.0001
     75  CD2      -69.5800   59.9160  141.3740 C.3   203  LEU203      0.0001
     76  N        -67.8140   55.8720  140.9530 N.3   205  GLY205     -0.1225
     77  CA       -67.3760   55.8060  139.5450 C.3   205  GLY205      0.1811
     78  C        -66.3900   54.6960  139.2510 C.2   205  GLY205      0.2280
     79  O        -65.2430   54.7680  139.6530 O.2   205  GLY205     -0.2866
     80  N        -62.9270   50.8090  134.3910 N.3   209  LYS209     -0.1245
     81  CA       -61.6240   51.1910  134.9270 C.3   209  LYS209      0.1561
     82  C        -60.6760   50.0040  134.8840 C.2   209  LYS209      0.2260
     83  O        -61.1150   48.8650  134.6530 O.2   209  LYS209     -0.2867
     84  CB       -61.7430   51.7800  136.3350 C.3   209  LYS209      0.0271
     85  CG       -62.3180   53.1810  136.3040 C.3   209  LYS209      0.0035
     86  CD       -62.1350   53.9330  137.6570 C.3   209  LYS209      0.0206
     87  CE       -62.8970   55.2480  137.4620 C.3   209  LYS209      0.1093
     88  NZ       -62.6930   56.2000  138.5080 N.3   209  LYS209     -0.1314
     89  N        -71.5280   56.7550  138.1560 N.3   243  ARG243     -0.1245
     90  CA       -71.0380   57.4560  136.9830 C.3   243  ARG243      0.1563
     91  C        -70.5550   56.4150  135.9550 C.2   243  ARG243      0.2260
     92  O        -69.5640   55.7050  136.2150 O.2   243  ARG243     -0.2867
     93  CB       -69.8930   58.3770  137.4230 C.3   243  ARG243      0.0307
     94  CG       -69.1850   59.0480  136.2760 C.3   243  ARG243      0.0489
     95  CD       -68.1900   60.0600  136.8290 C.3   243  ARG243      0.2205
     96  NE       -67.4980   60.7710  135.7630 N.pl3 243  ARG243     -0.0865
     97  CZ       -66.5390   60.2940  134.9750 C.cat 243  ARG243      0.5346
     98  NH1      -66.1410   59.0480  135.0560 N.pl3 243  ARG243      0.1354
     99  NH2      -66.0040   61.0870  134.0400 N.pl3 243  ARG243      0.1354
@<TRIPOS>BOND
     1     7     6   ar
     2    99    97    1
     3    80    81    1
     4     4     3    2
     5    83    82    2
     6     5     6    1
     7     5     2    1
     8     6     8   ar
     9    82    81    1
    10    81    84    1
    11    97    98    1
    12    97    96    2
    13     1     2    1
    14     3     2    1
    15    96    95    1
    16    91    92    2
    17    91    90    1
    18    94    95    1
    19    94    93    1
    20    85    84    1
    21    85    86    1
    22    90    93    1
    23    90    89    1
    24    87    86    1
    25    87    88    1
    26    16    14   am
    27    24    22    1
    28    67    66   ar
    29    67    65   ar
    30    66    64   ar
    31    13    14    1
    32    13    10    1
    33    23    21    1
    34    12    11    2
    35    14    15    2
    36    78    77    1
    37    78    79    2
    38    22    21    1
    39    65    63   ar
    40    77    76    1
    41     9    10    1
    42    10    11    1
    43    21    18    1
    44    64    62   ar
    45    63    62   ar
    46    52    51    2
    47    62    61    1
    48    17    18    1
    49    74    73    1
    50    18    19    1
    51    32    30    1
    52    75    73    1
    53    51    50    1
    54    55    53    1
    55    57    58    1
    56    73    72    1
    57    39    40    1
    58    39    38    1
    59    58    61    1
    60    58    59    1
    61    53    50    1
    62    53    54    1
    63    19    20    2
    64    47    46   ar
    65    50    49    1
    66    30    29    1
    67    29    31    1
    68    29    26    1
    69    59    60    2
    70    72    69    1
    71    54    56    1
    72    38    37    1
    73    46    48   ar
    74    46    45    1
    75    37    34    1
    76    70    69    1
    77    70    71    2
    78    28    27    2
    79    69    68    1
    80    25    26    1
    81    26    27    1
    82    45    42    1
    83    34    33    1
    84    34    35    1
    85    35    36    2
    86    42    43    1
    87    42    41    1
    88    43    44    2
