@<TRIPOS>MOLECULE
tmp/3h2kA00.pdb
 194 185 0 0 0
SMALL
GASTEIGER

@<TRIPOS>ATOM
      1  N         19.7980   -3.0250   20.0610 N.3    79  THR79      -0.1218
      2  CA        18.3650   -2.9740   19.8120 C.3    79  THR79       0.1862
      3  C         17.5890   -2.6390   21.0820 C.2    79  THR79       0.2287
      4  O         17.7260   -3.3110   22.1050 O.2    79  THR79      -0.2866
      5  CB        17.8470   -4.3150   19.2750 C.3    79  THR79       0.1770
      6  OG1       18.6050   -4.6870   18.1190 O.3    79  THR79      -0.2211
      7  CG2       16.3720   -4.2040   18.8910 C.3    79  THR79       0.0375
      8  N         14.8060    1.6820   12.9820 N.3   129  TYR129     -0.1227
      9  CA        15.6570    0.5400   13.3000 C.3   129  TYR129      0.1736
     10  C         16.5130    0.1280   12.1070 C.2   129  TYR129      0.2595
     11  O         16.0050   -0.0580   11.0050 O.2   129  TYR129     -0.2718
     12  CB        14.7840   -0.6320   13.7690 C.3   129  TYR129      0.0548
     13  CG        15.5460   -1.8460   14.2630 C.ar  129  TYR129     -0.0200
     14  CD1       16.5480   -1.7260   15.2330 C.ar  129  TYR129     -0.0009
     15  CD2       15.2340   -3.1210   13.7950 C.ar  129  TYR129     -0.0009
     16  CE1       17.2190   -2.8500   15.7220 C.ar  129  TYR129      0.0417
     17  CE2       15.8920   -4.2520   14.2800 C.ar  129  TYR129      0.0417
     18  CZ        16.8810   -4.1100   15.2420 C.ar  129  TYR129      0.1957
     19  OH        17.5080   -5.2280   15.7360 O.3   129  TYR129     -0.2866
     20  N         17.8170    0.0080   12.3460 N.am  130  LEU130     -0.1980
     21  CA        18.7860   -0.3800   11.3270 C.3   130  LEU130      0.1596
     22  C         18.8130    0.5310   10.0950 C.2   130  LEU130      0.2287
     23  O         19.1720    0.0980    9.0030 O.2   130  LEU130     -0.2864
     24  CB        18.5440   -1.8330   10.9080 C.3   130  LEU130      0.0297
     25  CG        18.7210   -2.8360   12.0580 C.3   130  LEU130      0.0022
     26  CD1       18.1680   -4.1950   11.6630 C.3   130  LEU130      0.0001
     27  CD2       20.1980   -2.9320   12.4290 C.3   130  LEU130      0.0001
     28  N         25.8990   -4.9470   18.5400 N.3   167  SER167     -0.1202
     29  CA        24.6730   -5.4600   17.9250 C.3   167  SER167      0.2020
     30  C         24.1390   -4.4260   16.9200 C.2   167  SER167      0.2618
     31  O         24.8070   -4.1330   15.9270 O.2   167  SER167     -0.2717
     32  CB        23.6420   -5.7690   19.0190 C.3   167  SER167      0.2103
     33  OG        22.5840   -6.5650   18.5190 O.3   167  SER167     -0.2182
     34  N         22.9460   -3.8830   17.1430 N.am  168  GLN168     -0.1979
     35  CA        22.4650   -2.8510   16.2220 C.3   168  GLN168      0.1601
     36  C         23.5100   -1.7300   16.2840 C.2   168  GLN168      0.2287
     37  O         23.7500   -1.0260   15.3040 O.2   168  GLN168     -0.2864
     38  CB        21.1110   -2.2890   16.6620 C.3   168  GLN168      0.0394
     39  CG        20.6200   -1.1450   15.7620 C.3   168  GLN168      0.0908
     40  CD        19.4830   -0.3450   16.3760 C.2   168  GLN168      0.2608
     41  OE1       19.0400    0.6550   15.8080 O.2   168  GLN168     -0.2717
     42  NE2       19.0080   -0.7770   17.5370 N.am  168  GLN168     -0.0878
     43  N         25.3670   -6.3430   12.0430 N.3   199  PRO199     -0.2116
     44  CA        24.9480   -6.9430   10.7730 C.3   199  PRO199      0.1372
     45  C         25.3200   -6.0690    9.5730 C.2   199  PRO199      0.2244
     46  O         24.4420   -5.5440    8.8780 O.2   199  PRO199     -0.2868
     47  CB        23.4430   -7.0840   10.9480 C.3   199  PRO199      0.0268
     48  CG        23.1030   -5.8560   11.7120 C.3   199  PRO199      0.0207
     49  CD        24.2090   -5.7820   12.7600 C.3   199  PRO199      0.0892
     50  N         22.3780  -11.1960    6.1780 N.3   205  THR205     -0.1203
     51  CA        22.0660  -11.7110    7.5020 C.3   205  THR205      0.1994
     52  C         20.6360  -12.2590    7.5490 C.2   205  THR205      0.2617
     53  O         20.4080  -13.3760    8.0190 O.2   205  THR205     -0.2717
     54  CB        22.2490  -10.6130    8.5850 C.3   205  THR205      0.1784
     55  OG1       23.6340  -10.2580    8.6680 O.3   205  THR205     -0.2211
     56  CG2       21.7850  -11.1080    9.9510 C.3   205  THR205      0.0376
     57  N         19.6680  -11.4940    7.0560 N.am  206  PHE206     -0.1975
     58  CA        18.2910  -11.9760    7.0890 C.3   206  PHE206      0.1639
     59  C         18.0410  -13.1390    6.1260 C.2   206  PHE206      0.2290
     60  O         17.2870  -14.0610    6.4370 O.2   206  PHE206     -0.2864
     61  CB        17.3070  -10.8280    6.8290 C.3   206  PHE206      0.0560
     62  CG        16.9760  -10.0300    8.0690 C.ar  206  PHE206     -0.0200
     63  CD1       17.6790   -8.8700    8.3800 C.ar  206  PHE206     -0.0042
     64  CD2       15.9890  -10.4740    8.9500 C.ar  206  PHE206     -0.0042
     65  CE1       17.4050   -8.1600    9.5550 C.ar  206  PHE206     -0.0003
     66  CE2       15.7050   -9.7760   10.1310 C.ar  206  PHE206     -0.0003
     67  CZ        16.4140   -8.6170   10.4330 C.ar  206  PHE206     -0.0000
     68  N         19.4430  -16.4310    7.6180 N.3   209  SER209     -0.1202
     69  CA        18.6880  -16.9510    8.7580 C.3   209  SER209      0.2020
     70  C         17.1780  -16.9520    8.5510 C.2   209  SER209      0.2618
     71  O         16.4280  -17.1310    9.5090 O.2   209  SER209     -0.2717
     72  CB        19.0040  -16.1350   10.0210 C.3   209  SER209      0.2103
     73  OG        20.3790  -16.2160   10.3650 O.3   209  SER209     -0.2182
     74  N         16.7250  -16.7770    7.3120 N.am  210  TRP210     -0.1975
     75  CA        15.2890  -16.7140    7.0450 C.3   210  TRP210      0.1640
     76  C         14.4800  -17.9250    7.5070 C.2   210  TRP210      0.2290
     77  O         13.3560  -17.7730    7.9810 O.2   210  TRP210     -0.2864
     78  CB        15.0340  -16.4750    5.5510 C.3   210  TRP210      0.0576
     79  CG        13.6710  -15.9010    5.2550 C.ar  210  TRP210      0.0006
     80  CD1       12.6630  -16.4920    4.5470 C.ar  210  TRP210      0.0946
     81  CD2       13.1870  -14.6030    5.6350 C.ar  210  TRP210      0.0152
     82  NE1       11.5830  -15.6420    4.4590 N.ar  210  TRP210     -0.2442
     83  CE2       11.8800  -14.4760    5.1180 C.ar  210  TRP210      0.0810
     84  CE3       13.7350  -13.5350    6.3590 C.ar  210  TRP210      0.0012
     85  CZ2       11.1090  -13.3200    5.3020 C.ar  210  TRP210      0.0191
     86  CZ3       12.9680  -12.3820    6.5420 C.ar  210  TRP210      0.0001
     87  CH2       11.6680  -12.2870    6.0140 C.ar  210  TRP210      0.0015
     88  N         15.0510  -19.7860   10.0160 N.3   212  GLY212     -0.1225
     89  CA        15.0160  -19.8920   11.4630 C.3   212  GLY212      0.1811
     90  C         16.3860  -20.2310   12.0170 C.2   212  GLY212      0.2280
     91  O         16.6710  -20.0150   13.1970 O.2   212  GLY212     -0.2866
     92  N         18.5650  -18.8860   15.0280 N.3   219  ASN219     -0.1240
     93  CA        18.4720  -17.4550   15.2720 C.3   219  ASN219      0.1653
     94  C         17.2040  -17.2270   16.0780 C.2   219  ASN219      0.2266
     95  O         16.2210  -16.6620   15.6020 O.2   219  ASN219     -0.2867
     96  CB        18.4180  -16.6710   13.9640 C.3   219  ASN219      0.1155
     97  CG        18.8710  -15.2370   14.1460 C.2   219  ASN219      0.2627
     98  OD1       18.4850  -14.5810   15.1160 O.2   219  ASN219     -0.2716
     99  ND2       19.6940  -14.7430   13.2200 N.am  219  ASN219     -0.0877
    100  N         15.1890  -13.9690   16.2660 N.3   222  GLY222     -0.1210
    101  CA        14.8960  -13.4330   14.9450 C.3   222  GLY222      0.1956
    102  C         13.4980  -12.9240   14.6470 C.2   222  GLY222      0.2611
    103  O         13.3350  -11.9890   13.8580 O.2   222  GLY222     -0.2717
    104  N         12.4820  -13.5380   15.2410 N.am  223  ILE223     -0.1979
    105  CA        11.1190  -13.0870   14.9970 C.3   223  ILE223      0.1595
    106  C         10.9410  -11.6970   15.5880 C.2   223  ILE223      0.2287
    107  O         10.2960  -10.8420   14.9850 O.2   223  ILE223     -0.2864
    108  CB        10.0820  -14.0500   15.6130 C.3   223  ILE223      0.0276
    109  CG1       10.1050  -15.3830   14.8620 C.3   223  ILE223      0.0022
    110  CG2        8.6920  -13.4370   15.5450 C.3   223  ILE223      0.0022
    111  CD1        9.7140  -15.2820   13.4060 C.3   223  ILE223      0.0001
    112  N         13.4740   -9.4900   16.2860 N.3   225  LEU225     -0.1231
    113  CA        14.3480   -8.5700   15.5620 C.3   225  LEU225      0.1693
    114  C         13.8640   -8.3160   14.1310 C.2   225  LEU225      0.2592
    115  O         13.8980   -7.1860   13.6570 O.2   225  LEU225     -0.2718
    116  CB        15.7920   -9.0950   15.5740 C.3   225  LEU225      0.0284
    117  CG        16.4110   -9.2340   16.9770 C.3   225  LEU225      0.0019
    118  CD1       17.8650   -9.7300   16.8720 C.3   225  LEU225      0.0001
    119  CD2       16.3680   -7.8890   17.6960 C.3   225  LEU225      0.0001
    120  N         13.3940   -9.3630   13.4590 N.am  226  GLY226     -0.1957
    121  CA        12.8970   -9.2040   12.1010 C.3   226  GLY226      0.1869
    122  C         11.6130   -8.3910   12.0520 C.2   226  GLY226      0.2309
    123  O         11.4020   -7.5990   11.1340 O.2   226  GLY226     -0.2863
    124  N         11.0000   -5.0500    9.9860 N.3   230  ILE230     -0.1245
    125  CA         9.9130   -4.8910    9.0230 C.3   230  ILE230      0.1561
    126  C          9.0760   -3.6450    9.3130 C.2   230  ILE230      0.2260
    127  O          8.8130   -2.8380    8.4190 O.2   230  ILE230     -0.2867
    128  CB         8.9940   -6.1400    9.0190 C.3   230  ILE230      0.0252
    129  CG1        9.7550   -7.3330    8.4290 C.3   230  ILE230      0.0019
    130  CG2        7.7250   -5.8600    8.2230 C.3   230  ILE230      0.0019
    131  CD1        9.0680   -8.6760    8.6600 C.3   230  ILE230      0.0001
    132  N         10.6190  -19.0400   16.6720 N.3   278  ILE278     -0.1245
    133  CA        10.9920  -19.3320   15.2880 C.3   278  ILE278      0.1561
    134  C         10.4830  -20.6400   14.6950 C.2   278  ILE278      0.2260
    135  O         10.3930  -20.7740   13.4760 O.2   278  ILE278     -0.2867
    136  CB        12.5230  -19.2850   15.0920 C.3   278  ILE278      0.0252
    137  CG1       13.2010  -20.3240   15.9820 C.3   278  ILE278      0.0019
    138  CG2       13.0390  -17.8840   15.4000 C.3   278  ILE278      0.0019
    139  CD1       14.6790  -20.4800   15.7030 C.3   278  ILE278      0.0001
    140  N          7.4150  -19.9350   12.6460 N.3   281  VAL281     -0.1245
    141  CA         7.5370  -18.8280   11.7050 C.3   281  VAL281      0.1561
    142  C          6.5280  -18.9160   10.5590 C.2   281  VAL281      0.2260
    143  O          5.9670  -17.9010   10.1440 O.2   281  VAL281     -0.2867
    144  CB         8.9720  -18.7440   11.1240 C.3   281  VAL281      0.0252
    145  CG1        9.2640  -19.9570   10.2480 C.3   281  VAL281      0.0019
    146  CG2        9.1380  -17.4500   10.3490 C.3   281  VAL281      0.0019
    147  N          4.4310  -15.2680    9.6280 N.3   285  PHE285     -0.1241
    148  CA         4.4500  -14.4510    8.4150 C.3   285  PHE285      0.1605
    149  C          3.4680  -14.9820    7.3800 C.2   285  PHE285      0.2264
    150  O          3.2130  -16.1870    7.3220 O.2   285  PHE285     -0.2867
    151  CB         5.8450  -14.4600    7.7850 C.3   285  PHE285      0.0534
    152  CG         6.8790  -13.7180    8.5760 C.ar  285  PHE285     -0.0203
    153  CD1        6.7530  -12.3490    8.7980 C.ar  285  PHE285     -0.0042
    154  CD2        7.9900  -14.3840    9.0820 C.ar  285  PHE285     -0.0042
    155  CE1        7.7230  -11.6520    9.5160 C.ar  285  PHE285     -0.0003
    156  CE2        8.9670  -13.7000    9.8000 C.ar  285  PHE285     -0.0003
    157  CZ         8.8330  -12.3290   10.0170 C.ar  285  PHE285     -0.0000
    158  N          6.5830  -14.5440    3.0710 N.3   290  TYR290     -0.1241
    159  CA         7.6410  -15.4490    3.5090 C.3   290  TYR290      0.1605
    160  C          8.4130  -16.1350    2.3850 C.2   290  TYR290      0.2264
    161  O          9.6100  -16.3760    2.5240 O.2   290  TYR290     -0.2867
    162  CB         7.0840  -16.5050    4.4670 C.3   290  TYR290      0.0534
    163  CG         8.1690  -17.2300    5.2340 C.ar  290  TYR290     -0.0201
    164  CD1        8.9440  -16.5590    6.1830 C.ar  290  TYR290     -0.0009
    165  CD2        8.4330  -18.5820    5.0050 C.ar  290  TYR290     -0.0009
    166  CE1        9.9570  -17.2140    6.8850 C.ar  290  TYR290      0.0417
    167  CE2        9.4470  -19.2510    5.7000 C.ar  290  TYR290      0.0417
    168  CZ        10.2030  -18.5600    6.6370 C.ar  290  TYR290      0.1957
    169  OH        11.2110  -19.2060    7.3200 O.3   290  TYR290     -0.2866
    170  N         10.7990   -5.2650    1.4330 N.3   301  PHE301     -0.1241
    171  CA        11.5360   -5.3380    2.6900 C.3   301  PHE301      0.1605
    172  C         13.0030   -5.6340    2.3890 C.2   301  PHE301      0.2264
    173  O         13.9030   -5.0280    2.9760 O.2   301  PHE301     -0.2867
    174  CB        10.9570   -6.4300    3.5960 C.3   301  PHE301      0.0534
    175  CG        11.7500   -6.6580    4.8590 C.ar  301  PHE301     -0.0203
    176  CD1       12.1060   -5.5870    5.6790 C.ar  301  PHE301     -0.0042
    177  CD2       12.1260   -7.9440    5.2340 C.ar  301  PHE301     -0.0042
    178  CE1       12.8240   -5.7950    6.8550 C.ar  301  PHE301     -0.0003
    179  CE2       12.8470   -8.1690    6.4120 C.ar  301  PHE301     -0.0003
    180  CZ        13.1960   -7.0890    7.2250 C.ar  301  PHE301     -0.0000
    181  N         22.8690  -15.1670   16.4910 N.3   329  THR329     -0.1203
    182  CA        21.9230  -14.0650   16.2870 C.3   329  THR329      0.1994
    183  C         22.4650  -13.1830   15.1580 C.2   329  THR329      0.2617
    184  O         21.7590  -12.8780   14.1920 O.2   329  THR329     -0.2717
    185  CB        21.7730  -13.2250   17.5690 C.3   329  THR329      0.1784
    186  OG1       21.2620  -14.0580   18.6170 O.3   329  THR329     -0.2211
    187  CG2       20.8160  -12.0500   17.3480 C.3   329  THR329      0.0376
    188  N         23.7240  -12.7760   15.2920 N.am  330  VAL330     -0.1979
    189  CA        24.3860  -11.9690   14.2730 C.3   330  VAL330      0.1595
    190  C         25.6910  -12.6780   13.9230 C.2   330  VAL330      0.2287
    191  O         26.7370  -12.4090   14.5210 O.2   330  VAL330     -0.2864
    192  CB        24.6970  -10.5420   14.7790 C.3   330  VAL330      0.0276
    193  CG1       25.4320   -9.7560   13.6890 C.3   330  VAL330      0.0022
    194  CG2       23.4000   -9.8340   15.1730 C.3   330  VAL330      0.0022
@<TRIPOS>BOND
     1   170   171    1
     2   160   161    2
     3   160   159    1
     4   172   171    1
     5   172   173    2
     6   171   174    1
     7   158   159    1
     8   159   162    1
     9   174   175    1
    10    82    80   ar
    11    82    83   ar
    12   162   163    1
    13    80    79   ar
    14   175   177   ar
    15   175   176   ar
    16   165   163   ar
    17   165   167   ar
    18    83    85   ar
    19    83    81   ar
    20   177   179   ar
    21   163   164   ar
    22    79    78    1
    23    79    81   ar
    24    85    87   ar
    25    78    75    1
    26    81    84   ar
    27   176   178   ar
    28   167   168   ar
    29    87    86   ar
    30    59    60    2
    31    59    58    1
    32    50    51    1
    33   164   166   ar
    34    84    86   ar
    35   179   180   ar
    36   168   166   ar
    37   168   169    1
    38    61    58    1
    39    61    62    1
    40   178   180   ar
    41    75    74    1
    42    75    76    1
    43    57    58    1
    44    57    52   am
    45    74    70   am
    46   150   149    2
    47   149   148    1
    48    51    52    1
    49    51    54    1
    50    76    77    2
    51    52    53    2
    52    68    69    1
    53   151   148    1
    54   151   152    1
    55    62    63   ar
    56    62    64   ar
    57   130   128    1
    58    63    65   ar
    59   148   147    1
    60   127   126    2
    61   129   131    1
    62   129   128    1
    63    70    69    1
    64    70    71    2
    65   152   153   ar
    66   152   154   ar
    67    54    55    1
    68    54    56    1
    69    69    72    1
    70   153   155   ar
    71    46    45    2
    72    64    66   ar
    73    23    22    2
    74   128   125    1
    75   125   126    1
    76   125   124    1
    77   154   156   ar
    78   155   157   ar
    79    65    67   ar
    80    45    44    1
    81   156   157   ar
    82    88    89    1
    83    72    73    1
    84    22    21    1
    85    66    67   ar
    86   143   142    2
    87   145   144    1
    88   146   144    1
    89   142   141    1
    90    44    47    1
    91    44    43    1
    92    24    21    1
    93    24    25    1
    94    47    48    1
    95    11    10    2
    96   144   141    1
    97   123   122    2
    98    21    20    1
    99    89    90    1
   100    26    25    1
   101   141   140    1
   102    48    49    1
   103    90    91    2
   104    43    49    1
   105   122   121    1
   106    25    27    1
   107   121   120    1
   108    10    20   am
   109    10     9    1
   110     8     9    1
   111    99    97   am
   112     9    12    1
   113   111   109    1
   114   120   114   am
   115   135   134    2
   116   115   114    2
   117   193   192    1
   118    12    13    1
   119    15    13   ar
   120    15    17   ar
   121   103   102    2
   122   190   189    1
   123   190   191    2
   124    96    97    1
   125    96    93    1
   126   114   113    1
   127    97    98    2
   128   184   183    2
   129    13    14   ar
   130   189   192    1
   131   189   188    1
   132    17    18   ar
   133   102   101    1
   134   102   104   am
   135   134   133    1
   136   192   194    1
   137   109   108    1
   138   101   100    1
   139   107   106    2
   140   105   104    1
   141   105   106    1
   142   105   108    1
   143    92    93    1
   144   136   133    1
   145   136   138    1
   146   136   137    1
   147   183   188   am
   148   183   182    1
   149    14    16   ar
   150    18    16   ar
   151    18    19    1
   152    93    94    1
   153   133   132    1
   154    37    36    2
   155   110   108    1
   156   113   116    1
   157   113   112    1
   158   116   117    1
   159    95    94    2
   160   139   137    1
   161    39    40    1
   162    39    38    1
   163    41    40    2
   164    31    30    2
   165    35    36    1
   166    35    38    1
   167    35    34    1
   168   182   181    1
   169   182   185    1
   170    40    42   am
   171   118   117    1
   172    30    34   am
   173    30    29    1
   174   117   119    1
   175   187   185    1
   176   185   186    1
   177    29    28    1
   178    29    32    1
   179     6     5    1
   180    33    32    1
   181     7     5    1
   182     5     2    1
   183     2     1    1
   184     2     3    1
   185     3     4    2
