@<TRIPOS>MOLECULE
tmp/3h2kA01.pdb
 137 134 0 0 0
SMALL
GASTEIGER

@<TRIPOS>ATOM
      1  N         22.6330   -1.1370   21.5400 N.3    78  PRO78      -0.2102
      2  CA        21.9420   -2.2460   20.8780 C.3    78  PRO78       0.1504
      3  C         20.4360   -2.0470   20.6950 C.2    78  PRO78       0.2576
      4  O         19.8690   -1.0370   21.1150 O.2    78  PRO78      -0.2718
      5  CB        22.2680   -3.4330   21.7840 C.3    78  PRO78       0.0282
      6  CG        22.2810   -2.7890   23.1640 C.3    78  PRO78       0.0208
      7  CD        23.0810   -1.5280   22.8930 C.3    78  PRO78       0.0893
      8  N         19.7980   -3.0250   20.0610 N.am   79  THR79      -0.1953
      9  CA        18.3650   -2.9740   19.8120 C.3    79  THR79       0.1897
     10  C         17.5890   -2.6390   21.0820 C.2    79  THR79       0.2313
     11  O         17.7260   -3.3110   22.1050 O.2    79  THR79      -0.2863
     12  CB        17.8470   -4.3150   19.2750 C.3    79  THR79       0.1794
     13  OG1       18.6050   -4.6870   18.1190 O.3    79  THR79      -0.2208
     14  CG2       16.3720   -4.2040   18.8910 C.3    79  THR79       0.0378
     15  N         27.5980   -2.0550   19.7860 N.3   166  TYR166     -0.1227
     16  CA        27.3160   -3.4800   19.8660 C.3   166  TYR166      0.1736
     17  C         25.9430   -3.8490   19.2990 C.2   166  TYR166      0.2596
     18  O         24.9650   -3.1460   19.5370 O.2   166  TYR166     -0.2718
     19  CB        27.4470   -3.9070   21.3330 C.3   166  TYR166      0.0548
     20  CG        26.5710   -5.0680   21.7460 C.ar  166  TYR166     -0.0200
     21  CD1       26.8470   -6.3660   21.3220 C.ar  166  TYR166     -0.0009
     22  CD2       25.4580   -4.8620   22.5570 C.ar  166  TYR166     -0.0009
     23  CE1       26.0250   -7.4350   21.6990 C.ar  166  TYR166      0.0417
     24  CE2       24.6340   -5.9180   22.9380 C.ar  166  TYR166      0.0417
     25  CZ        24.9220   -7.2000   22.5070 C.ar  166  TYR166      0.1957
     26  OH        24.1100   -8.2440   22.8920 O.3   166  TYR166     -0.2866
     27  N         25.8990   -4.9470   18.5400 N.am  167  SER167     -0.1952
     28  CA        24.6730   -5.4600   17.9250 C.3   167  SER167      0.1924
     29  C         24.1390   -4.4260   16.9200 C.2   167  SER167      0.2314
     30  O         24.8070   -4.1330   15.9270 O.2   167  SER167     -0.2863
     31  CB        23.6420   -5.7690   19.0190 C.3   167  SER167      0.2116
     32  OG        22.5840   -6.5650   18.5190 O.3   167  SER167     -0.2180
     33  N         16.0600  -15.2070   18.4990 N.3   221  PHE221     -0.1241
     34  CA        15.3670  -13.9340   18.6890 C.3   221  PHE221      0.1605
     35  C         14.9670  -13.2670   17.3730 C.2   221  PHE221      0.2264
     36  O         14.4530  -12.1520   17.3690 O.2   221  PHE221     -0.2867
     37  CB        16.2630  -12.9850   19.4970 C.3   221  PHE221      0.0534
     38  CG        16.9370  -13.6470   20.6710 C.ar  221  PHE221     -0.0203
     39  CD1       16.1820  -14.2870   21.6550 C.ar  221  PHE221     -0.0042
     40  CD2       18.3250  -13.6660   20.7730 C.ar  221  PHE221     -0.0042
     41  CE1       16.8040  -14.9440   22.7240 C.ar  221  PHE221     -0.0003
     42  CE2       18.9580  -14.3190   21.8360 C.ar  221  PHE221     -0.0003
     43  CZ        18.1950  -14.9610   22.8140 C.ar  221  PHE221     -0.0000
     44  N         11.5080  -11.4710   16.7710 N.3   224  LEU224     -0.1231
     45  CA        11.4070  -10.1570   17.3970 C.3   224  LEU224      0.1693
     46  C         12.2330   -9.1330   16.6100 C.2   224  LEU224      0.2591
     47  O         11.7560   -8.0380   16.3040 O.2   224  LEU224     -0.2718
     48  CB        11.9210  -10.1750   18.8420 C.3   224  LEU224      0.0284
     49  CG        11.2260  -10.8910   20.0060 C.3   224  LEU224      0.0019
     50  CD1        9.7250  -10.6260   19.9790 C.3   224  LEU224      0.0001
     51  CD2       11.5200  -12.3740   19.9350 C.3   224  LEU224      0.0001
     52  N         13.4740   -9.4900   16.2860 N.am  225  LEU225     -0.1980
     53  CA        14.3480   -8.5700   15.5620 C.3   225  LEU225      0.1596
     54  C         13.8640   -8.3160   14.1310 C.2   225  LEU225      0.2287
     55  O         13.8980   -7.1860   13.6570 O.2   225  LEU225     -0.2864
     56  CB        15.7920   -9.0950   15.5740 C.3   225  LEU225      0.0297
     57  CG        16.4110   -9.2340   16.9770 C.3   225  LEU225      0.0022
     58  CD1       17.8650   -9.7300   16.8720 C.3   225  LEU225      0.0001
     59  CD2       16.3680   -7.8890   17.6960 C.3   225  LEU225      0.0001
     60  N         12.7170   -5.9420   24.7250 N.3   266  LEU266     -0.1231
     61  CA        12.8790   -7.1620   23.9400 C.3   266  LEU266      0.1693
     62  C         12.8220   -8.3770   24.8730 C.2   266  LEU266      0.2592
     63  O         12.2510   -9.4140   24.5310 O.2   266  LEU266     -0.2718
     64  CB        14.2200   -7.1260   23.2060 C.3   266  LEU266      0.0284
     65  CG        14.2230   -7.0920   21.6770 C.3   266  LEU266      0.0019
     66  CD1       13.2020   -6.1070   21.1710 C.3   266  LEU266      0.0001
     67  CD2       15.6200   -6.7360   21.1880 C.3   266  LEU266      0.0001
     68  N         13.4070   -8.2400   26.0580 N.am  267  THR267     -0.1953
     69  CA        13.4150   -9.3330   27.0280 C.3   267  THR267      0.1897
     70  C         11.9990   -9.6690   27.4900 C.2   267  THR267      0.2313
     71  O         11.6390  -10.8450   27.5630 O.2   267  THR267     -0.2863
     72  CB        14.2910   -8.9870   28.2500 C.3   267  THR267      0.1794
     73  OG1       15.6300   -8.7310   27.8100 O.3   267  THR267     -0.2208
     74  CG2       14.3090  -10.1500   29.2520 C.3   267  THR267      0.0378
     75  N         10.3470  -11.6890   24.7390 N.3   270  PHE270     -0.1227
     76  CA        10.8310  -13.0560   24.6080 C.3   270  PHE270      0.1736
     77  C         10.3050  -13.9500   25.7380 C.2   270  PHE270      0.2595
     78  O          9.7960  -15.0460   25.4920 O.2   270  PHE270     -0.2718
     79  CB        12.3610  -13.0820   24.6110 C.3   270  PHE270      0.0547
     80  CG        12.9340  -14.4680   24.5450 C.ar  270  PHE270     -0.0202
     81  CD1       12.7950  -15.2360   23.3930 C.ar  270  PHE270     -0.0042
     82  CD2       13.5590  -15.0290   25.6550 C.ar  270  PHE270     -0.0042
     83  CE1       13.2670  -16.5480   23.3470 C.ar  270  PHE270     -0.0003
     84  CE2       14.0330  -16.3380   25.6220 C.ar  270  PHE270     -0.0003
     85  CZ        13.8860  -17.1010   24.4650 C.ar  270  PHE270     -0.0000
     86  N         10.4350  -13.4740   26.9740 N.am  271  LEU271     -0.1980
     87  CA         9.9940  -14.2240   28.1460 C.3   271  LEU271      0.1596
     88  C          8.4880  -14.5130   28.2020 C.2   271  LEU271      0.2287
     89  O          8.0830  -15.6140   28.5730 O.2   271  LEU271     -0.2864
     90  CB        10.4400  -13.4940   29.4250 C.3   271  LEU271      0.0297
     91  CG        11.8550  -13.8070   29.9490 C.3   271  LEU271      0.0022
     92  CD1       12.8270  -13.8950   28.7970 C.3   271  LEU271      0.0001
     93  CD2       12.3020  -12.7420   30.9390 C.3   271  LEU271      0.0001
     94  N         22.8690  -15.1670   16.4910 N.3   329  THR329     -0.1218
     95  CA        21.9230  -14.0650   16.2870 C.3   329  THR329      0.1862
     96  C         22.4650  -13.1830   15.1580 C.2   329  THR329      0.2287
     97  O         21.7590  -12.8780   14.1920 O.2   329  THR329     -0.2866
     98  CB        21.7730  -13.2250   17.5690 C.3   329  THR329      0.1770
     99  OG1       21.2620  -14.0580   18.6170 O.3   329  THR329     -0.2211
    100  CG2       20.8160  -12.0500   17.3480 C.3   329  THR329      0.0375
    101  N         22.1720  -17.0610   22.1530 N.3   366  PHE366     -0.1241
    102  CA        22.4930  -16.4240   23.4250 C.3   366  PHE366      0.1605
    103  C         23.9400  -15.9700   23.5740 C.2   366  PHE366      0.2264
    104  O         24.2440  -15.1600   24.4430 O.2   366  PHE366     -0.2867
    105  CB        22.1330  -17.3490   24.5970 C.3   366  PHE366      0.0534
    106  CG        20.6540  -17.5050   24.8100 C.ar  366  PHE366     -0.0203
    107  CD1       19.9210  -18.4340   24.0750 C.ar  366  PHE366     -0.0042
    108  CD2       19.9850  -16.6910   25.7190 C.ar  366  PHE366     -0.0042
    109  CE1       18.5380  -18.5470   24.2430 C.ar  366  PHE366     -0.0003
    110  CE2       18.6070  -16.7940   25.8960 C.ar  366  PHE366     -0.0003
    111  CZ        17.8810  -17.7230   25.1570 C.ar  366  PHE366     -0.0000
    112  N         25.3700  -14.1000   21.7070 N.3   368  HIS368     -0.1226
    113  CA        25.3810  -12.7180   21.2290 C.3   368  HIS368      0.1752
    114  C         25.5680  -11.7190   22.3790 C.2   368  HIS368      0.2596
    115  O         26.4000  -10.8160   22.2930 O.2   368  HIS368     -0.2718
    116  CB        24.0710  -12.4210   20.4830 C.3   368  HIS368      0.0759
    117  CG        24.0340  -11.0760   19.8220 C.ar  368  HIS368      0.0818
    118  ND1       24.9040  -10.7170   18.8140 N.ar  368  HIS368     -0.2268
    119  CD2       23.2330  -10.0020   20.0280 C.ar  368  HIS368      0.1154
    120  CE1       24.6400   -9.4800   18.4280 C.ar  368  HIS368      0.1986
    121  NE2       23.6310   -9.0240   19.1490 N.ar  368  HIS368     -0.2212
    122  N         24.8060  -11.8820   23.4570 N.am  369  MET369     -0.1965
    123  CA        24.9090  -10.9700   24.5910 C.3   369  MET369      0.1736
    124  C         26.2660  -11.0170   25.2980 C.2   369  MET369      0.2616
    125  O         26.6210  -10.0850   26.0260 O.2   369  MET369     -0.2715
    126  CB        23.7980  -11.2450   25.6120 C.3   369  MET369      0.0427
    127  CG        22.3860  -10.9040   25.1310 C.3   369  MET369      0.0599
    128  SD        21.7670  -12.0210   23.8460 S.3   369  MET369     -0.1393
    129  CE        20.9720  -13.2930   24.8460 C.3   369  MET369      0.0692
    130  N         27.0230  -12.0890   25.0810 N.am  370  LEU370     -0.1977
    131  CA        28.3330  -12.2320   25.7130 C.3   370  LEU370      0.1596
    132  C         29.4320  -11.4370   25.0120 C.2   370  LEU370      0.2287
    133  O         30.4430  -11.1030   25.6260 O.2   370  LEU370     -0.2864
    134  CB        28.7460  -13.7080   25.7650 C.3   370  LEU370      0.0297
    135  CG        27.8880  -14.6920   26.5710 C.3   370  LEU370      0.0022
    136  CD1       28.4990  -16.0820   26.4700 C.3   370  LEU370      0.0001
    137  CD2       27.8040  -14.2560   28.0300 C.3   370  LEU370      0.0001
@<TRIPOS>BOND
     1    55    54    2
     2    54    53    1
     3    97    96    2
     4    96    95    1
     5    53    56    1
     6    53    52    1
     7    56    57    1
     8    30    29    2
     9    52    46   am
    10    95    94    1
    11    95    98    1
    12    47    46    2
    13    46    45    1
    14    44    45    1
    15    58    57    1
    16    29    28    1
    17    57    59    1
    18   100    98    1
    19    36    35    2
    20    35    34    1
    21    45    48    1
    22    98    99    1
    23    28    27    1
    24    28    31    1
    25    13    12    1
    26   120   118   ar
    27   120   121   ar
    28    33    34    1
    29    32    31    1
    30    27    17   am
    31    34    37    1
    32   118   117   ar
    33    48    49    1
    34    14    12    1
    35   121   119   ar
    36    12     9    1
    37    17    18    2
    38    17    16    1
    39    37    38    1
    40    15    16    1
    41     9     8    1
    42     9    10    1
    43   117   119   ar
    44   117   116    1
    45    16    19    1
    46    51    49    1
    47    50    49    1
    48     8     3   am
    49   116   113    1
    50    38    40   ar
    51    38    39   ar
    52     3     2    1
    53     3     4    2
    54    40    42   ar
    55     2     1    1
    56     2     5    1
    57    10    11    2
    58    66    65    1
    59    67    65    1
    60   113   112    1
    61   113   114    1
    62    21    23   ar
    63    21    20   ar
    64    19    20    1
    65     1     7    1
    66    39    41   ar
    67    65    64    1
    68    23    25   ar
    69    20    22   ar
    70     5     6    1
    71    42    43   ar
    72   101   102    1
    73   115   114    2
    74   114   122   am
    75    25    26    1
    76    25    24   ar
    77    22    24   ar
    78    41    43   ar
    79     7     6    1
    80    64    61    1
    81    83    81   ar
    82    83    85   ar
    83    81    80   ar
    84   102   103    1
    85   102   105    1
    86   122   123    1
    87   103   104    2
    88   128   129    1
    89   128   127    1
    90    61    60    1
    91    61    62    1
    92   107   109   ar
    93   107   106   ar
    94   109   111   ar
    95    85    84   ar
    96    63    62    2
    97    80    79    1
    98    80    82   ar
    99   123   124    1
   100   123   126    1
   101   105   106    1
   102    76    79    1
   103    76    75    1
   104    76    77    1
   105   106   108   ar
   106    62    68   am
   107   132   133    2
   108   132   131    1
   109   130   124   am
   110   130   131    1
   111   127   126    1
   112   111   110   ar
   113   124   125    2
   114    78    77    2
   115    84    82   ar
   116   131   134    1
   117   108   110   ar
   118    77    86   am
   119   134   135    1
   120    68    69    1
   121   136   135    1
   122   135   137    1
   123    86    87    1
   124    69    70    1
   125    69    72    1
   126    70    71    2
   127    73    72    1
   128    87    88    1
   129    87    90    1
   130    88    89    2
   131    72    74    1
   132    92    91    1
   133    90    91    1
   134    91    93    1
