@<TRIPOS>MOLECULE
tmp/3h2lB00.pdb
 193 182 0 0 0
SMALL
GASTEIGER

@<TRIPOS>ATOM
      1  N         45.4590   -4.9610   48.3720 N.3   188  PHE188     -0.1241
      2  CA        46.3360   -3.9650   48.9820 C.3   188  PHE188      0.1605
      3  C         45.5750   -2.8660   49.7120 C.2   188  PHE188      0.2264
      4  O         46.1820   -2.0090   50.3540 O.2   188  PHE188     -0.2867
      5  CB        47.2850   -3.3910   47.9350 C.3   188  PHE188      0.0534
      6  CG        48.3540   -4.3590   47.4790 C.ar  188  PHE188     -0.0203
      7  CD1       49.2990   -4.8600   48.3810 C.ar  188  PHE188     -0.0042
      8  CD2       48.4420   -4.7290   46.1400 C.ar  188  PHE188     -0.0042
      9  CE1       50.3130   -5.7390   47.9530 C.ar  188  PHE188     -0.0003
     10  CE2       49.4420   -5.6040   45.6940 C.ar  188  PHE188     -0.0003
     11  CZ        50.3850   -6.1140   46.6000 C.ar  188  PHE188     -0.0000
     12  N         46.1230   -5.6590   57.9650 N.3   192  PRO192     -0.2116
     13  CA        46.0480   -7.0960   58.3170 C.3   192  PRO192      0.1372
     14  C         44.7140   -7.5190   58.9580 C.2   192  PRO192      0.2244
     15  O         44.2040   -8.6020   58.6450 O.2   192  PRO192     -0.2868
     16  CB        47.2030   -7.2830   59.2990 C.3   192  PRO192      0.0268
     17  CG        48.1370   -6.1290   59.0130 C.3   192  PRO192      0.0207
     18  CD        47.2620   -4.9950   58.6300 C.3   192  PRO192      0.0892
     19  N         42.1210   -7.7850   56.2650 N.3   195  ARG195     -0.1245
     20  CA        42.4080   -8.9130   55.3740 C.3   195  ARG195      0.1563
     21  C         41.9630  -10.2630   55.9430 C.2   195  ARG195      0.2260
     22  O         41.3800  -11.0660   55.2120 O.2   195  ARG195     -0.2867
     23  CB        43.8890   -8.9580   54.9730 C.3   195  ARG195      0.0307
     24  CG        44.1910  -10.0800   53.9810 C.3   195  ARG195      0.0489
     25  CD        45.6670  -10.2290   53.6510 C.3   195  ARG195      0.2205
     26  NE        45.8740  -11.4070   52.8050 N.pl3 195  ARG195     -0.0865
     27  CZ        45.8590  -11.3840   51.4680 C.cat 195  ARG195      0.5346
     28  NH1       45.6650  -10.2440   50.8090 N.pl3 195  ARG195      0.1354
     29  NH2       46.0420  -12.5000   50.7820 N.pl3 195  ARG195      0.1354
     30  N         56.5080  -12.3570   36.5340 N.3   220  ASP220     -0.1239
     31  CA        56.9550  -11.1870   35.7520 C.3   220  ASP220      0.1674
     32  C         57.3800  -11.5870   34.3470 C.2   220  ASP220      0.2266
     33  O         57.1400  -10.8570   33.3890 O.2   220  ASP220     -0.2867
     34  CB        58.1150  -10.4530   36.4310 C.3   220  ASP220      0.1410
     35  CG        57.6750   -9.6190   37.6300 C.2   220  ASP220      0.3668
     36  OD1       56.4590   -9.5130   37.8980 O.co2 220  ASP220     -0.2456
     37  OD2       58.5710   -9.0680   38.3060 O.co2 220  ASP220     -0.2456
     38  N         54.3830   -1.7980   38.2490 N.3   282  THR282     -0.1203
     39  CA        54.6330   -3.2490   38.4890 C.3   282  THR282      0.1994
     40  C         53.5290   -3.9150   39.3110 C.2   282  THR282      0.2618
     41  O         52.9850   -4.9380   38.9040 O.2   282  THR282     -0.2717
     42  CB        56.0120   -3.5130   39.1670 C.3   282  THR282      0.1784
     43  OG1       57.0500   -2.9210   38.3900 O.3   282  THR282     -0.2211
     44  CG2       56.3110   -5.0230   39.2750 C.3   282  THR282      0.0376
     45  N         53.1970   -3.3260   40.4570 N.am  283  SER283     -0.1951
     46  CA        52.1920   -3.8860   41.3580 C.3   283  SER283      0.1924
     47  C         50.7900   -3.8410   40.7550 C.2   283  SER283      0.2314
     48  O         50.1280   -4.8700   40.6710 O.2   283  SER283     -0.2863
     49  CB        52.2050   -3.1560   42.6930 C.3   283  SER283      0.2116
     50  OG        51.1370   -3.5860   43.5230 O.3   283  SER283     -0.2180
     51  N         50.6130   -6.0540   37.5250 N.3   286  ASN286     -0.1240
     52  CA        50.5440   -7.4690   37.8960 C.3   286  ASN286      0.1653
     53  C         49.1810   -7.8490   38.4900 C.2   286  ASN286      0.2266
     54  O         48.6460   -8.9240   38.1860 O.2   286  ASN286     -0.2867
     55  CB        51.6800   -7.8310   38.8620 C.3   286  ASN286      0.1155
     56  CG        52.9810   -8.1290   38.1420 C.2   286  ASN286      0.2627
     57  OD1       53.0150   -8.1730   36.9160 O.2   286  ASN286     -0.2716
     58  ND2       54.0510   -8.3680   38.9010 N.am  286  ASN286     -0.0877
     59  N         46.8220   -9.8230   45.1650 N.3   311  ASN311     -0.1225
     60  CA        47.8440   -8.8520   45.5100 C.3   311  ASN311      0.1785
     61  C         48.9760   -9.0200   44.5160 C.2   311  ASN311      0.2598
     62  O         49.7960   -9.9110   44.6890 O.2   311  ASN311     -0.2718
     63  CB        48.4030   -9.1400   46.9120 C.3   311  ASN311      0.1169
     64  CG        47.3900   -8.9390   48.0060 C.2   311  ASN311      0.2627
     65  OD1       46.4570   -9.7210   48.1530 O.2   311  ASN311     -0.2716
     66  ND2       47.5780   -7.8830   48.7980 N.am  311  ASN311     -0.0877
     67  N         49.0310   -8.1920   43.4750 N.am  312  GLY312     -0.1942
     68  CA        50.0290   -8.3790   42.4050 C.3   312  GLY312      0.2014
     69  C         49.9290   -9.7760   41.8030 C.2   312  GLY312      0.2639
     70  O         48.8610  -10.1850   41.3620 O.2   312  GLY312     -0.2714
     71  N         51.0300  -10.5160   41.8260 N.am  313  ASP313     -0.1957
     72  CA        51.0630  -11.9090   41.3330 C.3   313  ASP313      0.1840
     73  C         50.5280  -12.9390   42.3330 C.2   313  ASP313      0.2622
     74  O         50.5160  -14.1430   42.0570 O.2   313  ASP313     -0.2715
     75  CB        52.4900  -12.2880   40.9310 C.3   313  ASP313      0.1450
     76  CG        53.5190  -12.0280   42.0310 C.2   313  ASP313      0.3671
     77  OD1       53.1620  -11.6910   43.1880 O.co2 313  ASP313     -0.2456
     78  OD2       54.7170  -12.1640   41.7210 O.co2 313  ASP313     -0.2456
     79  N         50.0980  -12.4640   43.5000 N.am  314  ASP314     -0.1971
     80  CA        49.6450  -13.3410   44.5660 C.3   314  ASP314      0.1709
     81  C         48.1360  -13.5280   44.4890 C.2   314  ASP314      0.2293
     82  O         47.3700  -12.5540   44.5260 O.2   314  ASP314     -0.2864
     83  CB        50.0750  -12.7880   45.9270 C.3   314  ASP314      0.1436
     84  CG        49.9380  -13.8030   47.0320 C.2   314  ASP314      0.3671
     85  OD1       48.7950  -14.0920   47.4580 O.co2 314  ASP314     -0.2456
     86  OD2       50.9880  -14.3040   47.4860 O.co2 314  ASP314     -0.2456
     87  N         49.7850  -14.3330   50.1280 N.3   361  CYS361     -0.1221
     88  CA        50.7050  -13.2960   50.5980 C.3   361  CYS361      0.1808
     89  C         51.5930  -13.8760   51.6920 C.2   361  CYS361      0.2602
     90  O         51.7130  -13.2910   52.7750 O.2   361  CYS361     -0.2717
     91  CB        49.9510  -12.0660   51.1230 C.3   361  CYS361      0.0970
     92  SG        49.3530  -10.9860   49.8430 S.3   361  CYS361     -0.0800
     93  N         52.1740  -15.0490   51.4130 N.am  362  SER362     -0.1938
     94  CA        53.1150  -15.7240   52.3190 C.3   362  SER362      0.2055
     95  C         52.5520  -15.9930   53.7220 C.2   362  SER362      0.2643
     96  O         53.3030  -16.3090   54.6510 O.2   362  SER362     -0.2714
     97  CB        54.4180  -14.9170   52.4270 C.3   362  SER362      0.2130
     98  OG        54.9490  -14.6170   51.1440 O.3   362  SER362     -0.2179
     99  N         51.2360  -15.8830   53.8690 N.am  363  SER363     -0.1949
    100  CA        50.6000  -15.9480   55.1770 C.3   363  SER363      0.1924
    101  C         49.4490  -16.9370   55.1990 C.2   363  SER363      0.2314
    102  O         48.9040  -17.2800   54.1520 O.2   363  SER363     -0.2863
    103  CB        50.0660  -14.5700   55.5610 C.3   363  SER363      0.2116
    104  OG        51.0630  -13.5730   55.4130 O.3   363  SER363     -0.2180
    105  N         46.5740  -13.4090   60.9340 N.3   379  LEU379     -0.1245
    106  CA        47.5060  -13.9310   59.9340 C.3   379  LEU379      0.1561
    107  C         48.9030  -14.1540   60.4810 C.2   379  LEU379      0.2260
    108  O         49.4580  -13.3020   61.2000 O.2   379  LEU379     -0.2867
    109  CB        47.5800  -13.0210   58.7040 C.3   379  LEU379      0.0270
    110  CG        46.2870  -12.8830   57.8960 C.3   379  LEU379      0.0019
    111  CD1       46.2900  -11.5930   57.0800 C.3   379  LEU379      0.0001
    112  CD2       46.0410  -14.1020   57.0180 C.3   379  LEU379      0.0001
    113  N         63.5360   -5.2520   57.9400 N.3   402  SER402     -0.1217
    114  CA        62.4960   -6.2900   57.8340 C.3   402  SER402      0.1889
    115  C         61.8290   -6.5920   59.1800 C.2   402  SER402      0.2288
    116  O         60.6170   -6.8120   59.2340 O.2   402  SER402     -0.2866
    117  CB        63.0230   -7.5820   57.1920 C.3   402  SER402      0.2089
    118  OG        63.7750   -8.3530   58.1150 O.3   402  SER402     -0.2183
    119  N         58.9170   -4.1750   59.9360 N.3   405  GLY405     -0.1210
    120  CA        57.7630   -4.5130   59.1030 C.3   405  GLY405      0.1956
    121  C         57.0950   -5.8140   59.5350 C.2   405  GLY405      0.2611
    122  O         55.8690   -5.9320   59.5030 O.2   405  GLY405     -0.2717
    123  N         57.8930   -6.7870   59.9670 N.am  406  ASN406     -0.1974
    124  CA        57.3290   -8.0600   60.4320 C.3   406  ASN406      0.1688
    125  C         56.5540   -7.9470   61.7420 C.2   406  ASN406      0.2292
    126  O         55.4870   -8.5550   61.8840 O.2   406  ASN406     -0.2864
    127  CB        58.3850   -9.1640   60.5090 C.3   406  ASN406      0.1181
    128  CG        58.6390   -9.8250   59.1630 C.2   406  ASN406      0.2629
    129  OD1       57.7050  -10.2070   58.4470 O.2   406  ASN406     -0.2716
    130  ND2       59.9070   -9.9530   58.8060 N.am  406  ASN406     -0.0877
    131  N         53.1950   -6.1770   60.7650 N.3   409  MET409     -0.1230
    132  CA        52.2460   -6.9630   59.9920 C.3   409  MET409      0.1702
    133  C         51.8610   -8.2830   60.6690 C.2   409  MET409      0.2592
    134  O         50.7580   -8.7850   60.4380 O.2   409  MET409     -0.2718
    135  CB        52.7480   -7.1580   58.5550 C.3   409  MET409      0.0401
    136  CG        52.8670   -5.8110   57.7550 C.3   409  MET409      0.0596
    137  SD        51.3300   -4.8470   57.4980 S.3   409  MET409     -0.1393
    138  CE        50.8400   -5.4170   55.8790 C.3   409  MET409      0.0692
    139  N         52.7410   -8.8030   61.5290 N.am  410  TYR410     -0.1976
    140  CA        52.4980  -10.0800   62.2340 C.3   410  TYR410      0.1639
    141  C         52.4390   -9.9590   63.7580 C.2   410  TYR410      0.2290
    142  O         52.6890  -10.9290   64.4860 O.2   410  TYR410     -0.2864
    143  CB        53.5490  -11.1190   61.8450 C.3   410  TYR410      0.0560
    144  CG        53.4920  -11.5290   60.3940 C.ar  410  TYR410     -0.0198
    145  CD1       52.4300  -12.3100   59.9100 C.ar  410  TYR410     -0.0009
    146  CD2       54.4980  -11.1530   59.5070 C.ar  410  TYR410     -0.0009
    147  CE1       52.3720  -12.6910   58.5870 C.ar  410  TYR410      0.0417
    148  CE2       54.4540  -11.5290   58.1720 C.ar  410  TYR410      0.0417
    149  CZ        53.3870  -12.3020   57.7190 C.ar  410  TYR410      0.1957
    150  OH        53.3410  -12.6870   56.4040 O.3   410  TYR410     -0.2866
    151  N         59.3000   -1.1520   54.6960 N.3   441  GLN441     -0.1231
    152  CA        58.4140   -1.2750   53.5420 C.3   441  GLN441      0.1698
    153  C         57.1340   -2.0180   53.8900 C.2   441  GLN441      0.2592
    154  O         57.1720   -3.1630   54.3540 O.2   441  GLN441     -0.2718
    155  CB        59.1180   -1.9770   52.3800 C.3   441  GLN441      0.0381
    156  CG        60.1670   -1.1340   51.6850 C.3   441  GLN441      0.0905
    157  CD        60.8300   -1.8500   50.5220 C.2   441  GLN441      0.2608
    158  OE1       61.2420   -1.2120   49.5580 O.2   441  GLN441     -0.2717
    159  NE2       60.9490   -3.1760   50.6100 N.am  441  GLN441     -0.0878
    160  N         56.0090   -1.3430   53.6710 N.am  442  ILE442     -0.1966
    161  CA        54.6860   -1.9200   53.8200 C.3   442  ILE442      0.1727
    162  C         54.0220   -1.8560   52.4560 C.2   442  ILE442      0.2616
    163  O         53.8420   -0.7760   51.8870 O.2   442  ILE442     -0.2715
    164  CB        53.8480   -1.1510   54.8650 C.3   442  ILE442      0.0290
    165  CG1       54.5050   -1.2630   56.2440 C.3   442  ILE442      0.0022
    166  CG2       52.4030   -1.6490   54.8950 C.3   442  ILE442      0.0023
    167  CD1       54.1730   -0.1050   57.1500 C.3   442  ILE442      0.0001
    168  N         53.6710   -3.0170   51.9220 N.am  443  TYR443     -0.1960
    169  CA        53.1030   -3.1180   50.5690 C.3   443  TYR443      0.1771
    170  C         53.9660   -2.4180   49.5010 C.2   443  TYR443      0.2620
    171  O         53.4430   -1.8490   48.5300 O.2   443  TYR443     -0.2715
    172  CB        51.6390   -2.6430   50.5260 C.3   443  TYR443      0.0574
    173  CG        50.6380   -3.5170   51.2820 C.ar  443  TYR443     -0.0198
    174  CD1       50.9440   -4.8290   51.6590 C.ar  443  TYR443     -0.0009
    175  CD2       49.3590   -3.0380   51.5610 C.ar  443  TYR443     -0.0009
    176  CE1       50.0080   -5.6180   52.3320 C.ar  443  TYR443      0.0417
    177  CE2       48.4180   -3.8180   52.2200 C.ar  443  TYR443      0.0417
    178  CZ        48.7520   -5.1020   52.6070 C.ar  443  TYR443      0.1957
    179  OH        47.8140   -5.8520   53.2670 O.3   443  TYR443     -0.2866
    180  N         55.2860   -2.4620   49.6940 N.am  444  GLY444     -0.1954
    181  CA        56.2460   -1.9780   48.7040 C.3   444  GLY444      0.1869
    182  C         56.6120   -0.5060   48.8070 C.2   444  GLY444      0.2309
    183  O         57.5930   -0.0670   48.1930 O.2   444  GLY444     -0.2863
    184  N         49.4210   -1.2130   46.3670 N.3   549  GLY549     -0.1225
    185  CA        50.7500   -1.8030   46.3890 C.3   549  GLY549      0.1811
    186  C         51.6790   -1.0210   45.4760 C.2   549  GLY549      0.2280
    187  O         51.2510   -0.5020   44.4420 O.2   549  GLY549     -0.2866
    188  N         55.2780   -2.2510   45.0230 N.3   551  SER551     -0.1217
    189  CA        56.5080   -3.0120   44.9250 C.3   551  SER551      0.1889
    190  C         57.3110   -2.5820   43.6950 C.2   551  SER551      0.2288
    191  O         56.7730   -2.5050   42.5780 O.2   551  SER551     -0.2866
    192  CB        56.2020   -4.5110   44.8910 C.3   551  SER551      0.2089
    193  OG        57.3870   -5.2550   44.6920 O.3   551  SER551     -0.2183
@<TRIPOS>BOND
     1    33    32    2
     2    32    31    1
     3    31    34    1
     4    31    30    1
     5    34    35    1
     6    57    56    2
     7    51    52    1
     8    35    36   ar
     9    35    37   ar
    10    52    53    1
    11    52    55    1
    12    56    55    1
    13    56    58   am
    14    54    53    2
    15    38    39    1
    16    43    42    1
    17    39    42    1
    18    39    40    1
    19    41    40    2
    20    42    44    1
    21    40    45   am
    22    45    46    1
    23    48    47    2
    24    47    46    1
    25    75    72    1
    26    75    76    1
    27    72    71    1
    28    72    73    1
    29    46    49    1
    30    70    69    2
    31    78    76   ar
    32    69    71   am
    33    69    68    1
    34    76    77   ar
    35    74    73    2
    36    73    79   am
    37    68    67    1
    38   191   190    2
    39    49    50    1
    40    67    61   am
    41    79    80    1
    42   190   189    1
    43   187   186    2
    44    81    82    2
    45    81    80    1
    46    61    62    2
    47    61    60    1
    48    80    83    1
    49   193   192    1
    50   192   189    1
    51   189   188    1
    52    59    60    1
    53   186   185    1
    54    60    63    1
    55    10     8   ar
    56    10    11   ar
    57    83    84    1
    58     8     6   ar
    59   184   185    1
    60    11     9   ar
    61    63    64    1
    62    84    85   ar
    63    84    86   ar
    64     6     5    1
    65     6     7   ar
    66     5     2    1
    67     9     7   ar
    68    64    65    2
    69    64    66   am
    70   183   182    2
    71     1     2    1
    72   171   170    2
    73   181   182    1
    74   181   180    1
    75     2     3    1
    76   170   180   am
    77   170   169    1
    78   158   157    2
    79     3     4    2
    80    92    91    1
    81    87    88    1
    82   157   159   am
    83   157   156    1
    84   172   169    1
    85   172   173    1
    86   169   168    1
    87    88    91    1
    88    88    89    1
    89    29    27    1
    90    28    27    1
    91    98    97    1
    92   173   175   ar
    93   173   174   ar
    94    93    89   am
    95    93    94    1
    96    27    26    2
    97   175   177   ar
    98   174   176   ar
    99   156   155    1
   100    89    90    2
   101   163   162    2
   102   168   162   am
   103   177   178   ar
   104    94    97    1
   105    94    95    1
   106   176   178   ar
   107   155   152    1
   108   162   161    1
   109   178   179    1
   110    26    25    1
   111   152   153    1
   112   152   151    1
   113    25    24    1
   114   160   161    1
   115   160   153   am
   116    95    99   am
   117    95    96    2
   118   161   164    1
   119    99   100    1
   120   153   154    2
   121    24    23    1
   122   102   101    2
   123   164   166    1
   124   164   165    1
   125    23    20    1
   126   100   101    1
   127   100   103    1
   128    22    21    2
   129    20    21    1
   130    20    19    1
   131   104   103    1
   132   138   137    1
   133   165   167    1
   134   150   149    1
   135   112   110    1
   136   111   110    1
   137   117   114    1
   138   117   118    1
   139   137   136    1
   140   149   148   ar
   141   149   147   ar
   142   136   135    1
   143   114   113    1
   144   114   115    1
   145   110   109    1
   146    12    13    1
   147    12    18    1
   148   148   146   ar
   149    13    14    1
   150    13    16    1
   151   129   128    2
   152   135   132    1
   153   147   145   ar
   154    18    17    1
   155    15    14    2
   156   109   106    1
   157   130   128   am
   158    17    16    1
   159   120   121    1
   160   120   119    1
   161   128   127    1
   162   115   116    2
   163   122   121    2
   164   146   144   ar
   165   121   123   am
   166   145   144   ar
   167   106   107    1
   168   106   105    1
   169   123   124    1
   170   132   133    1
   171   132   131    1
   172   144   143    1
   173   124   127    1
   174   124   125    1
   175   134   133    2
   176   107   108    2
   177   133   139   am
   178   139   140    1
   179   125   126    2
   180   143   140    1
   181   140   141    1
   182   141   142    2
