@<TRIPOS>MOLECULE
tmp/3h2mA00.pdb
 140 127 0 0 0
SMALL
GASTEIGER

@<TRIPOS>ATOM
      1  N        -83.1560   80.3010   99.1500 N.3    25  ILE25      -0.1245
      2  CA       -81.9910   81.0960   99.5040 C.3    25  ILE25       0.1561
      3  C        -81.5800   80.8560  100.9320 C.2    25  ILE25       0.2260
      4  O        -82.2970   81.2300  101.9000 O.2    25  ILE25      -0.2867
      5  CB       -82.1780   82.6240   99.2360 C.3    25  ILE25       0.0252
      6  CG1      -82.7010   82.8640   97.8010 C.3    25  ILE25       0.0019
      7  CG2      -80.8580   83.3730   99.4750 C.3    25  ILE25       0.0019
      8  CD1      -83.1690   84.3130   97.6340 C.3    25  ILE25       0.0001
      9  N        -72.9540   87.9060  101.2840 N.3    66  SER66      -0.1217
     10  CA       -74.2600   88.5670  100.9910 C.3    66  SER66       0.1889
     11  C        -74.2440   90.0520  101.3480 C.2    66  SER66       0.2288
     12  O        -74.1110   90.8910  100.4620 O.2    66  SER66      -0.2866
     13  CB       -75.4760   87.8340  101.6800 C.3    66  SER66       0.2089
     14  OG       -75.3860   87.8000  103.0880 O.3    66  SER66      -0.2183
     15  N        -73.2210   80.0720   95.2170 N.3    97  ASP97      -0.1239
     16  CA       -73.4210   81.4330   94.7460 C.3    97  ASP97       0.1674
     17  C        -72.0680   82.1260   94.7910 C.2    97  ASP97       0.2266
     18  O        -71.6890   82.6470   95.7960 O.2    97  ASP97      -0.2867
     19  CB       -74.4730   82.1030   95.6560 C.3    97  ASP97       0.1410
     20  CG       -74.3730   83.6420   95.7050 C.2    97  ASP97       0.3668
     21  OD1      -74.8460   84.2840   96.6960 O.co2  97  ASP97      -0.2456
     22  OD2      -73.8340   84.2360   94.7640 O.co2  97  ASP97      -0.2456
     23  N        -73.7090   79.0710   90.6610 N.3   116  ASN116     -0.1240
     24  CA       -74.5710   80.2000   90.4100 C.3   116  ASN116      0.1653
     25  C        -73.7630   81.5190   90.2930 C.2   116  ASN116      0.2266
     26  O        -73.4480   82.1500   91.3040 O.2   116  ASN116     -0.2867
     27  CB       -75.6020   80.3010   91.5660 C.3   116  ASN116      0.1155
     28  CG       -76.5790   81.4870   91.3930 C.2   116  ASN116      0.2627
     29  OD1      -76.7750   81.9680   90.2850 O.2   116  ASN116     -0.2716
     30  ND2      -77.1980   81.9370   92.4960 N.am  116  ASN116     -0.0877
     31  N        -73.3210   85.4050   89.4220 N.3   118  ILE118     -0.1245
     32  CA       -73.9770   86.7160   89.2170 C.3   118  ILE118      0.1561
     33  C        -73.2550   87.5620   88.1840 C.2   118  ILE118      0.2260
     34  O        -73.7610   88.6530   87.7680 O.2   118  ILE118     -0.2867
     35  CB       -74.1300   87.5360   90.5130 C.3   118  ILE118      0.0252
     36  CG1      -72.7800   87.7360   91.2460 C.3   118  ILE118      0.0019
     37  CG2      -75.0470   86.8550   91.4480 C.3   118  ILE118      0.0019
     38  CD1      -72.7700   88.8640   92.2420 C.3   118  ILE118      0.0001
     39  N        -75.3120   78.6440   86.2370 N.3   139  ILE139     -0.1245
     40  CA       -76.2400   79.7460   85.9310 C.3   139  ILE139      0.1561
     41  C        -75.4720   80.9980   85.5800 C.2   139  ILE139      0.2260
     42  O        -74.6850   81.4430   86.3870 O.2   139  ILE139     -0.2867
     43  CB       -77.1150   80.0170   87.1740 C.3   139  ILE139      0.0252
     44  CG1      -77.9240   78.7390   87.5310 C.3   139  ILE139      0.0019
     45  CG2      -77.9130   81.2480   86.9970 C.3   139  ILE139      0.0019
     46  CD1      -78.1770   78.5710   89.0520 C.3   139  ILE139      0.0001
     47  N        -75.8110   84.8430   84.9300 N.3   141  MET141     -0.1245
     48  CA       -76.8010   85.8290   85.2150 C.3   141  MET141      0.1570
     49  C        -76.3950   87.0860   84.4430 C.2   141  MET141      0.2261
     50  O        -75.1780   87.3410   84.2420 O.2   141  MET141     -0.2867
     51  CB       -76.8880   86.0900   86.7120 C.3   141  MET141      0.0387
     52  CG       -77.9430   87.0810   87.0690 C.3   141  MET141      0.0595
     53  SD       -77.9550   87.6220   88.7430 S.3   141  MET141     -0.1393
     54  CE       -76.7400   88.9290   88.5240 C.3   141  MET141      0.0692
     55  N        -80.2420   83.7440   83.3570 N.3   180  ASP180     -0.1239
     56  CA       -80.9570   84.4960   84.3560 C.3   180  ASP180      0.1674
     57  C        -80.9720   85.9970   83.9460 C.2   180  ASP180      0.2266
     58  O        -79.9590   86.5770   83.6500 O.2   180  ASP180     -0.2867
     59  CB       -80.3340   84.1740   85.7550 C.3   180  ASP180      0.1410
     60  CG       -80.9370   84.9590   86.8820 C.2   180  ASP180      0.3668
     61  OD1      -80.9770   84.4660   88.0070 O.co2 180  ASP180     -0.2456
     62  OD2      -81.4090   86.0900   86.6870 O.co2 180  ASP180     -0.2456
     63  N        -82.3140   90.3800   87.3520 N.3   183  ILE183     -0.1245
     64  CA       -83.2470   91.4190   87.8110 C.3   183  ILE183      0.1561
     65  C        -82.6650   92.0390   89.0410 C.2   183  ILE183      0.2260
     66  O        -82.3230   91.3070   89.9580 O.2   183  ILE183     -0.2867
     67  CB       -84.6180   90.8150   88.2690 C.3   183  ILE183      0.0252
     68  CG1      -85.4420   90.1920   87.1140 C.3   183  ILE183      0.0019
     69  CG2      -85.4510   91.8290   89.0800 C.3   183  ILE183      0.0019
     70  CD1      -85.5740   90.9450   85.8200 C.3   183  ILE183      0.0001
     71  N        -79.9620   93.9130   88.9700 N.3   185  PHE185     -0.1241
     72  CA       -78.5430   94.1920   88.6560 C.3   185  PHE185      0.1605
     73  C        -78.3820   95.0520   87.4180 C.2   185  PHE185      0.2264
     74  O        -78.8830   94.6910   86.3610 O.2   185  PHE185     -0.2867
     75  CB       -77.7460   92.9100   88.4550 C.3   185  PHE185      0.0534
     76  CG       -77.6320   92.0970   89.6980 C.ar  185  PHE185     -0.0203
     77  CD1      -78.7070   91.3130   90.1390 C.ar  185  PHE185     -0.0042
     78  CD2      -76.4700   92.1080   90.4350 C.ar  185  PHE185     -0.0042
     79  CE1      -78.6100   90.5520   91.2600 C.ar  185  PHE185     -0.0003
     80  CE2      -76.3680   91.3600   91.5760 C.ar  185  PHE185     -0.0003
     81  CZ       -77.4400   90.5730   91.9900 C.ar  185  PHE185     -0.0000
     82  N        -83.6900   80.8810   84.9840 N.3   210  LEU210     -0.1245
     83  CA       -83.9390   81.1250   86.3750 C.3   210  LEU210      0.1561
     84  C        -84.2590   82.6290   86.6710 C.2   210  LEU210      0.2260
     85  O        -83.5690   83.5090   86.1940 O.2   210  LEU210     -0.2867
     86  CB       -82.7360   80.6550   87.1990 C.3   210  LEU210      0.0270
     87  CG       -82.9140   80.8200   88.7180 C.3   210  LEU210      0.0019
     88  CD1      -82.4500   79.5660   89.3530 C.3   210  LEU210      0.0001
     89  CD2      -82.1320   81.9300   89.2380 C.3   210  LEU210      0.0001
     90  N        -84.7530   85.5900   89.6570 N.3   212  GLY212     -0.1225
     91  CA       -84.5520   85.9050   91.0410 C.3   212  GLY212      0.1811
     92  C        -85.0680   87.2880   91.3630 C.2   212  GLY212      0.2280
     93  O        -84.4230   88.2850   91.1010 O.2   212  GLY212     -0.2866
     94  N        -86.9550   87.9820   94.4360 N.3   214  SER214     -0.1202
     95  CA       -87.4610   87.8810   95.7990 C.3   214  SER214      0.2020
     96  C        -87.0560   89.0540   96.6730 C.2   214  SER214      0.2619
     97  O        -85.8690   89.2530   96.9030 O.2   214  SER214     -0.2717
     98  CB       -86.9490   86.5440   96.3730 C.3   214  SER214      0.2103
     99  OG       -87.2680   86.3430   97.7220 O.3   214  SER214     -0.2182
    100  N        -88.0370   89.8260   97.1400 N.am  215  ARG215     -0.1965
    101  CA       -87.8180   90.9250   98.1120 C.3   215  ARG215      0.1729
    102  C        -86.9990   92.1020   97.5700 C.2   215  ARG215      0.2616
    103  O        -86.6460   92.9990   98.3090 O.2   215  ARG215     -0.2715
    104  CB       -87.1780   90.4090   99.4000 C.3   215  ARG215      0.0348
    105  CG       -88.0380   89.4290  100.1640 C.3   215  ARG215      0.0492
    106  CD       -87.2840   88.8760  101.3770 C.3   215  ARG215      0.2205
    107  NE       -88.0250   87.8240  102.0690 N.pl3 215  ARG215     -0.0865
    108  CZ       -87.6260   87.2810  103.2200 C.cat 215  ARG215      0.5346
    109  NH1      -86.5000   87.6800  103.8080 N.pl3 215  ARG215      0.1354
    110  NH2      -88.3710   86.3620  103.8030 N.pl3 215  ARG215      0.1354
    111  N        -86.7530   92.1230   96.2650 N.am  216  LYS216     -0.1977
    112  CA       -85.8180   93.0890   95.7040 C.3   216  LYS216      0.1596
    113  C        -86.3980   94.4780   95.7160 C.2   216  LYS216      0.2287
    114  O        -87.6340   94.6610   95.7970 O.2   216  LYS216     -0.2864
    115  CB       -85.3790   92.6430   94.3050 C.3   216  LYS216      0.0298
    116  CG       -84.2760   91.5960   94.4030 C.3   216  LYS216      0.0038
    117  CD       -83.7170   91.2080   93.1200 C.3   216  LYS216      0.0206
    118  CE       -82.7600   90.0710   93.3530 C.3   216  LYS216      0.1093
    119  NZ       -82.2180   89.4950   92.0780 N.3   216  LYS216     -0.1314
    120  N        -85.8350   81.8330   92.3730 N.3   250  ARG250     -0.1245
    121  CA       -84.9280   81.9070   93.5090 C.3   250  ARG250      0.1563
    122  C        -85.5250   82.8600   94.5470 C.2   250  ARG250      0.2260
    123  O        -85.5900   84.0950   94.3300 O.2   250  ARG250     -0.2867
    124  CB       -83.5540   82.3450   93.0440 C.3   250  ARG250      0.0307
    125  CG       -82.5660   82.6320   94.2080 C.3   250  ARG250      0.0489
    126  CD       -81.2760   83.1940   93.6520 C.3   250  ARG250      0.2205
    127  NE       -80.2860   83.4130   94.7110 N.pl3 250  ARG250     -0.0865
    128  CZ       -80.2690   84.4750   95.4940 C.cat 250  ARG250      0.5346
    129  NH1      -81.2310   85.3870   95.3820 N.pl3 250  ARG250      0.1354
    130  NH2      -79.3110   84.6370   96.3930 N.pl3 250  ARG250      0.1354
    131  N        -86.8110   83.6860   98.9450 N.3   252  HIS252     -0.1241
    132  CA       -86.5920   83.4920  100.3770 C.3   252  HIS252      0.1621
    133  C        -87.8010   82.8030  101.0030 C.2   252  HIS252      0.2264
    134  O        -87.6560   81.9290  101.8300 O.2   252  HIS252     -0.2867
    135  CB       -86.3920   84.7850  101.1150 C.3   252  HIS252      0.0745
    136  CG       -85.3010   85.6560  100.5970 C.ar  252  HIS252      0.0817
    137  ND1      -85.4600   86.4760   99.4960 N.ar  252  HIS252     -0.2268
    138  CD2      -84.0850   85.9470  101.1080 C.ar  252  HIS252      0.1154
    139  CE1      -84.3560   87.1700   99.3010 C.ar  252  HIS252      0.1986
    140  NE2      -83.5030   86.8650  100.2630 N.ar  252  HIS252     -0.2212
@<TRIPOS>BOND
     1    55    56    1
     2    58    57    2
     3    57    56    1
     4    50    49    2
     5    56    59    1
     6    49    48    1
     7    47    48    1
     8    82    83    1
     9    48    51    1
    10    41    40    1
    11    41    42    2
    12    59    60    1
    13    70    68    1
    14    40    39    1
    15    40    43    1
    16    85    84    2
    17    74    73    2
    18    83    84    1
    19    83    86    1
    20    62    60   ar
    21    51    52    1
    22    60    61   ar
    23    45    43    1
    24    52    53    1
    25    68    67    1
    26    43    44    1
    27    86    87    1
    28    63    64    1
    29    73    72    1
    30    44    46    1
    31    34    33    2
    32    64    67    1
    33    64    65    1
    34    33    32    1
    35    67    69    1
    36    75    72    1
    37    75    76    1
    38    54    53    1
    39    72    71    1
    40    87    89    1
    41    87    88    1
    42    65    66    2
    43    32    31    1
    44    32    35    1
    45    90    91    1
    46    76    77   ar
    47    76    78   ar
    48    77    79   ar
    49    29    28    2
    50    25    24    1
    51    25    26    2
    52    24    23    1
    53    24    27    1
    54    78    80   ar
    55    35    36    1
    56    35    37    1
    57    91    92    1
    58    93    92    2
    59    36    38    1
    60    79    81   ar
    61    28    27    1
    62    28    30   am
    63    80    81   ar
    64   119   118    1
    65   120   121    1
    66   124   121    1
    67   124   125    1
    68   117   118    1
    69   117   116    1
    70   121   122    1
    71   126   125    1
    72   126   127    1
    73   115   116    1
    74   115   112    1
    75   123   122    2
    76    94    95    1
    77   127   128    2
    78    16    17    1
    79    16    15    1
    80    16    19    1
    81    22    20   ar
    82    17    18    2
    83   129   128    1
    84   128   130    1
    85    19    20    1
    86   112   113    1
    87   112   111    1
    88    20    21   ar
    89   113   114    2
    90    95    98    1
    91    95    96    1
    92   111   102   am
    93    98    99    1
    94    96    97    2
    95    96   100   am
    96   100   101    1
    97   102   101    1
    98   102   103    2
    99     8     6    1
   100     6     5    1
   101   101   104    1
   102   131   132    1
   103     1     2    1
   104     5     7    1
   105     5     2    1
   106   139   137   ar
   107   139   140   ar
   108   104   105    1
   109   137   136   ar
   110     2     3    1
   111   105   106    1
   112   140   138   ar
   113   132   133    1
   114   132   135    1
   115    12    11    2
   116   136   138   ar
   117   136   135    1
   118     3     4    2
   119    10     9    1
   120    10    11    1
   121    10    13    1
   122   133   134    2
   123   106   107    1
   124    13    14    1
   125   107   108    2
   126   108   110    1
   127   108   109    1
