@<TRIPOS>MOLECULE
tmp/3h2nA00.pdb
 106 94 0 0 0
SMALL
GASTEIGER

@<TRIPOS>ATOM
      1  N        -73.2240   90.0160   99.1820 N.3    63  THR63      -0.1218
      2  CA       -73.3790   91.4570   98.7670 C.3    63  THR63       0.1862
      3  C        -74.4630   92.3290   99.5170 C.2    63  THR63       0.2287
      4  O        -75.6490   91.9670   99.5670 O.2    63  THR63      -0.2866
      5  CB       -73.6190   91.5230   97.2210 C.3    63  THR63       0.1770
      6  OG1      -74.8020   90.7980   96.9210 O.3    63  THR63      -0.2211
      7  CG2      -72.4420   90.9730   96.4390 C.3    63  THR63       0.0375
      8  N        -72.5000   79.2460   95.5780 N.3    92  ASP92      -0.1239
      9  CA       -72.6820   80.5830   95.0370 C.3    92  ASP92       0.1674
     10  C        -71.3700   81.3250   95.1090 C.2    92  ASP92       0.2266
     11  O        -71.1710   82.0930   96.0230 O.2    92  ASP92      -0.2867
     12  CB       -73.7710   81.2690   95.8540 C.3    92  ASP92       0.1410
     13  CG       -74.1300   82.6880   95.3670 C.2    92  ASP92       0.3668
     14  OD1      -75.2200   83.1170   95.7840 O.co2  92  ASP92      -0.2456
     15  OD2      -73.3760   83.4100   94.6510 O.co2  92  ASP92      -0.2456
     16  N        -72.9100   78.1430   90.9230 N.3   111  ASN111     -0.1240
     17  CA       -73.7450   79.2990   90.7640 C.3   111  ASN111      0.1653
     18  C        -72.9350   80.6200   90.6340 C.2   111  ASN111      0.2266
     19  O        -72.5830   81.2650   91.6460 O.2   111  ASN111     -0.2867
     20  CB       -74.7790   79.3760   91.8960 C.3   111  ASN111      0.1155
     21  CG       -75.7210   80.5760   91.7250 C.2   111  ASN111      0.2627
     22  OD1      -75.8170   81.1450   90.6170 O.2   111  ASN111     -0.2716
     23  ND2      -76.4230   80.9650   92.7850 N.am  111  ASN111     -0.0877
     24  N        -72.4100   84.4180   89.6730 N.3   113  ILE113     -0.1245
     25  CA       -73.1030   85.6790   89.4420 C.3   113  ILE113      0.1561
     26  C        -72.3810   86.5710   88.3870 C.2   113  ILE113      0.2260
     27  O        -72.9030   87.6400   87.9200 O.2   113  ILE113     -0.2867
     28  CB       -73.3780   86.4270   90.7230 C.3   113  ILE113      0.0252
     29  CG1      -72.1200   86.5820   91.5920 C.3   113  ILE113      0.0019
     30  CG2      -74.4230   85.6900   91.5690 C.3   113  ILE113      0.0019
     31  CD1      -72.1580   87.8490   92.3660 C.3   113  ILE113      0.0001
     32  N        -74.5620   77.6640   86.5790 N.3   134  ILE134     -0.1245
     33  CA       -75.4560   78.7970   86.3020 C.3   134  ILE134      0.1561
     34  C        -74.6420   80.0150   85.8800 C.2   134  ILE134      0.2260
     35  O        -73.7630   80.4610   86.6120 O.2   134  ILE134     -0.2867
     36  CB       -76.3470   79.1220   87.5070 C.3   134  ILE134      0.0252
     37  CG1      -77.1850   77.9080   87.8660 C.3   134  ILE134      0.0019
     38  CG2      -77.1770   80.3750   87.3420 C.3   134  ILE134      0.0019
     39  CD1      -77.3730   77.8280   89.4320 C.3   134  ILE134      0.0001
     40  N        -75.0200   83.8470   85.1690 N.3   136  MET136     -0.1245
     41  CA       -75.9530   84.9150   85.4680 C.3   136  MET136      0.1570
     42  C        -75.5340   86.1330   84.6840 C.2   136  MET136      0.2261
     43  O        -74.3400   86.3740   84.5220 O.2   136  MET136     -0.2867
     44  CB       -75.9680   85.2510   86.9690 C.3   136  MET136      0.0387
     45  CG       -77.1600   86.0810   87.3610 C.3   136  MET136      0.0595
     46  SD       -77.0440   86.8490   88.9610 S.3   136  MET136     -0.1393
     47  CE       -75.7930   88.0550   88.7530 C.3   136  MET136      0.0692
     48  N        -79.4210   82.8330   83.6760 N.3   175  ASP175     -0.1239
     49  CA       -80.1230   83.5790   84.7250 C.3   175  ASP175      0.1674
     50  C        -80.0700   85.0300   84.2870 C.2   175  ASP175      0.2266
     51  O        -79.0080   85.5360   83.9690 O.2   175  ASP175     -0.2867
     52  CB       -79.4170   83.3460   86.0640 C.3   175  ASP175      0.1410
     53  CG       -80.0700   84.0590   87.2270 C.2   175  ASP175      0.3668
     54  OD1      -79.9310   83.5560   88.3280 O.co2 175  ASP175     -0.2456
     55  OD2      -80.7270   85.1090   87.1160 O.co2 175  ASP175     -0.2456
     56  N        -81.5040   89.4220   87.7380 N.3   178  ILE178     -0.1245
     57  CA       -82.3930   90.4820   88.2530 C.3   178  ILE178      0.1561
     58  C        -81.7500   91.1180   89.5180 C.2   178  ILE178      0.2260
     59  O        -81.2350   90.4150   90.3910 O.2   178  ILE178     -0.2867
     60  CB       -83.7820   89.8850   88.6260 C.3   178  ILE178      0.0252
     61  CG1      -84.5120   89.2650   87.4110 C.3   178  ILE178      0.0019
     62  CG2      -84.6760   90.9090   89.4210 C.3   178  ILE178      0.0019
     63  CD1      -84.6430   90.1220   86.0690 C.3   178  ILE178      0.0001
     64  N        -79.0470   93.0420   89.3350 N.3   180  PHE180     -0.1241
     65  CA       -77.6320   93.3390   89.0200 C.3   180  PHE180      0.1605
     66  C        -77.5040   94.1340   87.7630 C.2   180  PHE180      0.2264
     67  O        -78.1060   93.7700   86.7670 O.2   180  PHE180     -0.2867
     68  CB       -76.8440   92.0690   88.8120 C.3   180  PHE180      0.0534
     69  CG       -76.7660   91.2020   90.0300 C.ar  180  PHE180     -0.0203
     70  CD1      -77.8140   90.3250   90.3460 C.ar  180  PHE180     -0.0042
     71  CD2      -75.6620   91.2400   90.8370 C.ar  180  PHE180     -0.0042
     72  CE1      -77.7380   89.4860   91.4290 C.ar  180  PHE180     -0.0003
     73  CE2      -75.5900   90.4230   91.9570 C.ar  180  PHE180     -0.0003
     74  CZ       -76.6200   89.5390   92.2470 C.ar  180  PHE180     -0.0000
     75  N        -82.9340   79.9890   85.3130 N.3   205  LEU205     -0.1245
     76  CA       -83.1780   80.1900   86.7600 C.3   205  LEU205      0.1561
     77  C        -83.4860   81.6570   87.0270 C.2   205  LEU205      0.2260
     78  O        -82.7710   82.5130   86.5500 O.2   205  LEU205     -0.2867
     79  CB       -81.9270   79.7880   87.5760 C.3   205  LEU205      0.0270
     80  CG       -81.9670   80.0290   89.1140 C.3   205  LEU205      0.0019
     81  CD1      -81.5550   78.7980   89.7430 C.3   205  LEU205      0.0001
     82  CD2      -81.0660   81.0960   89.5930 C.3   205  LEU205      0.0001
     83  N        -83.8130   84.6250   89.9800 N.3   207  GLY207     -0.1225
     84  CA       -83.6230   85.0460   91.3660 C.3   207  GLY207      0.1811
     85  C        -84.1230   86.4410   91.6980 C.2   207  GLY207      0.2280
     86  O        -83.4500   87.4300   91.4790 O.2   207  GLY207     -0.2866
     87  N        -85.7940   91.3390   96.5550 N.3   211  LYS211     -0.1245
     88  CA       -84.8220   92.2460   96.0460 C.3   211  LYS211      0.1561
     89  C        -85.3540   93.6810   96.1310 C.2   211  LYS211      0.2260
     90  O        -86.5750   93.9470   96.1810 O.2   211  LYS211     -0.2867
     91  CB       -84.3690   91.7910   94.6340 C.3   211  LYS211      0.0271
     92  CG       -83.2610   90.7480   94.7530 C.3   211  LYS211      0.0035
     93  CD       -82.9140   90.0110   93.5100 C.3   211  LYS211      0.0206
     94  CE       -81.4530   89.6920   93.4770 C.3   211  LYS211      0.1093
     95  NZ       -81.2030   88.6650   92.4180 N.3   211  LYS211     -0.1314
     96  N        -85.0170   80.9540   92.6530 N.3   245  ARG245     -0.1245
     97  CA       -84.1500   81.0550   93.8200 C.3   245  ARG245      0.1563
     98  C        -84.7590   81.9940   94.8510 C.2   245  ARG245      0.2260
     99  O        -84.7080   83.2110   94.6860 O.2   245  ARG245     -0.2867
    100  CB       -82.8350   81.6390   93.3950 C.3   245  ARG245      0.0307
    101  CG       -81.9160   81.8280   94.5120 C.3   245  ARG245      0.0489
    102  CD       -80.6740   82.4240   93.9710 C.3   245  ARG245      0.2205
    103  NE       -79.6000   82.4130   94.9390 N.pl3 245  ARG245     -0.0865
    104  CZ       -79.3660   83.4020   95.7980 C.cat 245  ARG245      0.5346
    105  NH1      -80.1650   84.4570   95.8370 N.pl3 245  ARG245      0.1354
    106  NH2      -78.3560   83.3170   96.6870 N.pl3 245  ARG245      0.1354
@<TRIPOS>BOND
     1    48    49    1
     2    51    50    2
     3    50    49    1
     4    43    42    2
     5    42    41    1
     6    49    52    1
     7    40    41    1
     8    75    76    1
     9    41    44    1
    10    34    33    1
    11    34    35    2
    12    52    53    1
    13    63    61    1
    14    33    32    1
    15    33    36    1
    16    78    77    2
    17    76    77    1
    18    76    79    1
    19    67    66    2
    20    44    45    1
    21    55    53   ar
    22    53    54   ar
    23    38    36    1
    24    45    46    1
    25    61    60    1
    26    36    37    1
    27    79    80    1
    28    56    57    1
    29    66    65    1
    30    37    39    1
    31    27    26    2
    32    57    60    1
    33    57    58    1
    34    26    25    1
    35    60    62    1
    36    47    46    1
    37    68    65    1
    38    68    69    1
    39    65    64    1
    40    80    82    1
    41    80    81    1
    42    25    24    1
    43    25    28    1
    44    58    59    2
    45    83    84    1
    46    69    70   ar
    47    69    71   ar
    48    70    72   ar
    49    22    21    2
    50    18    17    1
    51    18    19    2
    52    28    30    1
    53    28    29    1
    54    17    16    1
    55    17    20    1
    56    71    73   ar
    57    84    85    1
    58    72    74   ar
    59    86    85    2
    60    29    31    1
    61    21    20    1
    62    21    23   am
    63    73    74   ar
    64    95    94    1
    65    96    97    1
    66   100    97    1
    67   100   101    1
    68    94    93    1
    69    93    92    1
    70    97    98    1
    71   102   101    1
    72   102   103    1
    73    91    92    1
    74    91    88    1
    75    15    13   ar
    76    99    98    2
    77   103   104    2
    78     9    10    1
    79     9     8    1
    80     9    12    1
    81    10    11    2
    82    13    14   ar
    83    13    12    1
    84   104   105    1
    85   104   106    1
    86    88    89    1
    87    88    87    1
    88    89    90    2
    89     7     5    1
    90     6     5    1
    91     5     2    1
    92     2     1    1
    93     2     3    1
    94     3     4    2
