@<TRIPOS>MOLECULE
tmp/3h2oA00.pdb
 142 132 0 0 0
SMALL
GASTEIGER

@<TRIPOS>ATOM
      1  N        -73.1140   80.2880   95.7270 N.3    91  ASP91      -0.1239
      2  CA       -73.3020   81.6210   95.1920 C.3    91  ASP91       0.1674
      3  C        -72.0000   82.4450   95.0810 C.2    91  ASP91       0.2266
      4  O        -71.8190   83.4700   95.7530 O.2    91  ASP91      -0.2867
      5  CB       -74.3920   82.3530   95.9820 C.3    91  ASP91       0.1410
      6  CG       -74.9940   83.5220   95.2120 C.2    91  ASP91       0.3668
      7  OD1      -75.9310   84.1330   95.7570 O.co2  91  ASP91      -0.2456
      8  OD2      -74.5510   83.8410   94.0840 O.co2  91  ASP91      -0.2456
      9  N        -73.9740   78.9030   91.0860 N.3   110  ASN110     -0.1240
     10  CA       -74.6530   80.1240   90.8120 C.3   110  ASN110      0.1653
     11  C        -73.7550   81.3610   90.7130 C.2   110  ASN110      0.2266
     12  O        -73.2860   81.9010   91.6940 O.2   110  ASN110     -0.2867
     13  CB       -75.7470   80.3240   91.8600 C.3   110  ASN110      0.1155
     14  CG       -76.6890   81.5300   91.5480 C.2   110  ASN110      0.2627
     15  OD1      -76.8480   81.9150   90.3940 O.2   110  ASN110     -0.2716
     16  ND2      -77.3490   82.0630   92.5890 N.am  110  ASN110     -0.0877
     17  N        -73.1660   85.4540   89.6950 N.3   112  ILE112     -0.1245
     18  CA       -73.7880   86.7650   89.5090 C.3   112  ILE112      0.1561
     19  C        -73.0080   87.6460   88.5270 C.2   112  ILE112      0.2260
     20  O        -73.4110   88.7910   88.2490 O.2   112  ILE112     -0.2867
     21  CB       -73.9750   87.4890   90.8670 C.3   112  ILE112      0.0252
     22  CG1      -72.6350   87.7630   91.5330 C.3   112  ILE112      0.0019
     23  CG2      -74.7970   86.6310   91.8080 C.3   112  ILE112      0.0019
     24  CD1      -72.6640   88.9680   92.4230 C.3   112  ILE112      0.0001
     25  N        -75.2960   78.6260   86.6040 N.3   133  ILE133     -0.1245
     26  CA       -76.3110   79.6500   86.3170 C.3   133  ILE133      0.1561
     27  C        -75.5940   80.9170   85.8590 C.2   133  ILE133      0.2260
     28  O        -74.7000   81.3770   86.5560 O.2   133  ILE133     -0.2867
     29  CB       -77.1390   79.9830   87.5670 C.3   133  ILE133      0.0252
     30  CG1      -77.7850   78.7370   88.0930 C.3   133  ILE133      0.0019
     31  CG2      -78.2650   80.8630   87.2300 C.3   133  ILE133      0.0019
     32  CD1      -77.9400   78.7930   89.5930 C.3   133  ILE133      0.0001
     33  N        -75.7540   84.9850   85.0260 N.3   135  MET135     -0.1245
     34  CA       -76.6220   86.1040   85.3090 C.3   135  MET135      0.1570
     35  C        -76.2170   87.3040   84.5500 C.2   135  MET135      0.2261
     36  O        -75.0150   87.5690   84.3630 O.2   135  MET135     -0.2867
     37  CB       -76.5870   86.4700   86.7910 C.3   135  MET135      0.0387
     38  CG       -77.8340   87.1920   87.2810 C.3   135  MET135      0.0595
     39  SD       -77.6460   87.6650   88.9940 S.3   135  MET135     -0.1393
     40  CE       -76.4490   89.0030   88.9090 C.3   135  MET135      0.0692
     41  N        -80.1670   83.5880   84.0370 N.3   174  ASP174     -0.1239
     42  CA       -80.8090   84.4650   84.9750 C.3   174  ASP174      0.1674
     43  C        -80.7110   85.9110   84.4720 C.2   174  ASP174      0.2266
     44  O        -79.6270   86.4100   84.2410 O.2   174  ASP174     -0.2867
     45  CB       -80.1420   84.3090   86.3360 C.3   174  ASP174      0.1410
     46  CG       -80.9120   84.9850   87.4660 C.2   174  ASP174      0.3668
     47  OD1      -80.9120   84.3940   88.5680 O.co2 174  ASP174     -0.2456
     48  OD2      -81.4770   86.0940   87.2970 O.co2 174  ASP174     -0.2456
     49  N        -82.2250   90.3680   88.1700 N.3   177  ILE177     -0.1231
     50  CA       -82.9930   91.4390   88.7230 C.3   177  ILE177      0.1692
     51  C        -82.2400   92.1680   89.8320 C.2   177  ILE177      0.2593
     52  O        -81.5370   91.5460   90.6710 O.2   177  ILE177     -0.2718
     53  CB       -84.3010   90.9370   89.3020 C.3   177  ILE177      0.0266
     54  CG1      -85.1330   90.2250   88.2310 C.3   177  ILE177      0.0019
     55  CG2      -85.0680   92.1110   90.0130 C.3   177  ILE177      0.0020
     56  CD1      -85.0590   90.7850   86.7810 C.3   177  ILE177      0.0001
     57  N        -82.4440   93.4920   89.8020 N.am  178  GLY178     -0.1942
     58  CA       -81.7920   94.4670   90.6640 C.3   178  GLY178      0.2014
     59  C        -80.3040   94.6340   90.4370 C.2   178  GLY178      0.2638
     60  O        -79.6140   95.2210   91.2570 O.2   178  GLY178     -0.2714
     61  N        -79.7930   94.1060   89.3380 N.am  179  PHE179     -0.1973
     62  CA       -78.3960   94.3340   88.9960 C.3   179  PHE179      0.1639
     63  C        -78.1980   95.2010   87.7750 C.2   179  PHE179      0.2290
     64  O        -78.5710   94.8550   86.6590 O.2   179  PHE179     -0.2864
     65  CB       -77.6980   93.0340   88.7200 C.3   179  PHE179      0.0560
     66  CG       -77.5830   92.1470   89.8920 C.ar  179  PHE179     -0.0200
     67  CD1      -78.5360   91.1760   90.1340 C.ar  179  PHE179     -0.0042
     68  CD2      -76.4780   92.2210   90.7200 C.ar  179  PHE179     -0.0042
     69  CE1      -78.3690   90.2810   91.2090 C.ar  179  PHE179     -0.0003
     70  CE2      -76.3290   91.3590   91.7850 C.ar  179  PHE179     -0.0003
     71  CZ       -77.2630   90.3890   92.0230 C.ar  179  PHE179     -0.0000
     72  N        -84.0950   81.0910   85.4510 N.3   204  LEU204     -0.1245
     73  CA       -84.2890   81.1960   86.8960 C.3   204  LEU204      0.1561
     74  C        -84.4120   82.6400   87.1350 C.2   204  LEU204      0.2260
     75  O        -83.6460   83.4150   86.5660 O.2   204  LEU204     -0.2867
     76  CB       -83.0070   80.7760   87.5610 C.3   204  LEU204      0.0270
     77  CG       -82.9320   80.6180   89.0660 C.3   204  LEU204      0.0019
     78  CD1      -81.6630   79.8640   89.2220 C.3   204  LEU204      0.0001
     79  CD2      -82.8040   81.9600   89.7460 C.3   204  LEU204      0.0001
     80  N        -84.8100   85.6690   89.9690 N.3   206  GLY206     -0.1225
     81  CA       -84.5940   85.8930   91.4060 C.3   206  GLY206      0.1811
     82  C        -85.1930   87.2060   91.8520 C.2   206  GLY206      0.2280
     83  O        -84.6290   88.2710   91.5720 O.2   206  GLY206     -0.2866
     84  N        -88.0120   89.6710   97.8420 N.3   209  ARG209     -0.1231
     85  CA       -87.8060   90.9220   98.6190 C.3   209  ARG209      0.1694
     86  C        -86.9340   92.0210   97.9750 C.2   209  ARG209      0.2592
     87  O        -86.2020   92.7460   98.6640 O.2   209  ARG209     -0.2718
     88  CB       -87.2570   90.5820   99.9950 C.3   209  ARG209      0.0321
     89  CG       -87.9320   89.4250  100.6270 C.3   209  ARG209      0.0489
     90  CD       -87.6740   89.4350  102.0930 C.3   209  ARG209      0.2205
     91  NE       -87.8400   88.0830  102.6000 N.pl3 209  ARG209     -0.0865
     92  CZ       -87.4240   87.6750  103.7880 C.cat 209  ARG209      0.5346
     93  NH1      -86.8180   88.5220  104.6260 N.pl3 209  ARG209      0.1354
     94  NH2      -87.6190   86.4150  104.1310 N.pl3 209  ARG209      0.1354
     95  N        -87.0280   92.1650   96.6720 N.am  210  LYS210     -0.1966
     96  CA       -86.1130   93.0110   96.0730 C.3   210  LYS210      0.1728
     97  C        -86.6160   94.4960   96.1000 C.2   210  LYS210      0.2617
     98  O        -87.8320   94.7880   96.0900 O.2   210  LYS210     -0.2715
     99  CB       -85.7340   92.4450   94.7040 C.3   210  LYS210      0.0311
    100  CG       -84.7690   91.2440   94.8080 C.3   210  LYS210      0.0038
    101  CD       -83.6090   91.2940   93.8500 C.3   210  LYS210      0.0206
    102  CE       -82.6920   90.0730   94.0030 C.3   210  LYS210      0.1093
    103  NZ       -83.0390   88.9050   93.0800 N.3   210  LYS210     -0.1314
    104  N        -85.6640   95.4220   96.1390 N.am  211  SER211     -0.1936
    105  CA       -85.9480   96.8230   96.3440 C.3   211  SER211      0.2055
    106  C        -86.8790   97.5080   95.3250 C.2   211  SER211      0.2643
    107  O        -87.4330   98.5950   95.6320 O.2   211  SER211     -0.2714
    108  CB       -84.6350   97.6020   96.4610 C.3   211  SER211      0.2130
    109  OG       -84.0120   97.7540   95.1870 O.3   211  SER211     -0.2179
    110  N        -87.0370   96.9130   94.1290 N.am  212  PHE212     -0.1973
    111  CA       -88.0110   97.4570   93.1750 C.3   212  PHE212      0.1639
    112  C        -89.4670   97.1880   93.6020 C.2   212  PHE212      0.2290
    113  O        -90.3540   98.0590   93.4350 O.2   212  PHE212     -0.2864
    114  CB       -87.7580   96.9840   91.7680 C.3   212  PHE212      0.0560
    115  CG       -88.1790   95.5580   91.5010 C.ar  212  PHE212     -0.0200
    116  CD1      -89.1930   95.2770   90.5760 C.ar  212  PHE212     -0.0042
    117  CD2      -87.5290   94.4780   92.1110 C.ar  212  PHE212     -0.0042
    118  CE1      -89.5380   93.9350   90.2610 C.ar  212  PHE212     -0.0003
    119  CE2      -87.9030   93.1290   91.8030 C.ar  212  PHE212     -0.0003
    120  CZ       -88.9000   92.8730   90.8900 C.ar  212  PHE212     -0.0000
    121  N        -92.9240   92.3140  102.0030 N.3   224  ARG224     -0.1245
    122  CA       -92.6920   92.3110  100.5710 C.3   224  ARG224      0.1563
    123  C        -93.0360   91.0100  100.0000 C.2   224  ARG224      0.2260
    124  O        -92.5160   90.6230   98.9670 O.2   224  ARG224     -0.2867
    125  CB       -91.2370   92.5660  100.2870 C.3   224  ARG224      0.0307
    126  CG       -91.0130   94.0090   99.9080 C.3   224  ARG224      0.0489
    127  CD       -89.5480   94.2880   99.6220 C.3   224  ARG224      0.2205
    128  NE       -89.2260   95.7060   99.8340 N.pl3 224  ARG224     -0.0865
    129  CZ       -88.0000   96.1750   99.6780 C.cat 224  ARG224      0.5346
    130  NH1      -87.0410   95.3070   99.3180 N.pl3 224  ARG224      0.1354
    131  NH2      -87.7250   97.4730   99.8680 N.pl3 224  ARG224      0.1354
    132  N        -85.9940   81.8720   92.7150 N.3   244  ARG244     -0.1245
    133  CA       -85.0980   81.8510   93.8750 C.3   244  ARG244      0.1563
    134  C        -85.6140   82.8110   94.9250 C.2   244  ARG244      0.2260
    135  O        -85.3870   84.0080   94.8340 O.2   244  ARG244     -0.2867
    136  CB       -83.6590   82.2030   93.4600 C.3   244  ARG244      0.0307
    137  CG       -82.7080   82.5280   94.6150 C.3   244  ARG244      0.0489
    138  CD       -81.2950   82.9730   94.1520 C.3   244  ARG244      0.2205
    139  NE       -80.4530   83.3900   95.2840 N.pl3 244  ARG244     -0.0865
    140  CZ       -80.5180   84.5890   95.8730 C.cat 244  ARG244      0.5346
    141  NH1      -81.3750   85.5140   95.4190 N.pl3 244  ARG244      0.1354
    142  NH2      -79.7290   84.8580   96.9180 N.pl3 244  ARG244      0.1354
@<TRIPOS>BOND
     1    41    42    1
     2    44    43    2
     3    36    35    2
     4    43    42    1
     5    35    34    1
     6    42    45    1
     7    33    34    1
     8    34    37    1
     9    72    73    1
    10    27    26    1
    11    27    28    2
    12    26    25    1
    13    26    29    1
    14    45    46    1
    15    75    74    2
    16    64    63    2
    17    56    54    1
    18    37    38    1
    19    73    74    1
    20    73    76    1
    21    31    29    1
    22    38    39    1
    23    48    46   ar
    24    46    47   ar
    25    76    77    1
    26    29    30    1
    27    63    62    1
    28    30    32    1
    29    49    50    1
    30    54    53    1
    31    20    19    2
    32    19    18    1
    33    65    62    1
    34    65    66    1
    35    50    53    1
    36    50    51    1
    37    40    39    1
    38    62    61    1
    39    77    78    1
    40    77    79    1
    41    53    55    1
    42    61    59   am
    43    18    17    1
    44    18    21    1
    45    57    51   am
    46    57    58    1
    47    51    52    2
    48    66    67   ar
    49    66    68   ar
    50    80    81    1
    51    67    69   ar
    52   118   116   ar
    53   118   120   ar
    54    15    14    2
    55    59    58    1
    56    59    60    2
    57   116   115   ar
    58    11    10    1
    59    11    12    2
    60    68    70   ar
    61    10     9    1
    62    10    13    1
    63    21    22    1
    64    21    23    1
    65   120   119   ar
    66    69    71   ar
    67    81    82    1
    68   115   114    1
    69   115   117   ar
    70    22    24    1
    71    14    13    1
    72    14    16   am
    73    83    82    2
    74   114   111    1
    75    70    71   ar
    76   119   117   ar
    77   132   133    1
    78   103   102    1
    79   111   112    1
    80   111   110    1
    81   113   112    2
    82   136   133    1
    83   136   137    1
    84   101   102    1
    85   101   100    1
    86   133   134    1
    87     8     6   ar
    88   110   106   am
    89   138   137    1
    90   138   139    1
    91    99   100    1
    92    99    96    1
    93   135   134    2
    94     3     2    1
    95     3     4    2
    96   109   108    1
    97     2     1    1
    98     2     5    1
    99     6     7   ar
   100     6     5    1
   101   139   140    2
   102   106   107    2
   103   106   105    1
   104   141   140    1
   105   140   142    1
   106    96    97    1
   107    96    95    1
   108    98    97    2
   109    97   104   am
   110   104   105    1
   111   105   108    1
   112    95    86   am
   113    84    85    1
   114    86    85    1
   115    86    87    2
   116    85    88    1
   117   124   123    2
   118   130   129    1
   119   127   128    1
   120   127   126    1
   121   129   128    2
   122   129   131    1
   123   126   125    1
   124    88    89    1
   125   123   122    1
   126   125   122    1
   127   122   121    1
   128    89    90    1
   129    90    91    1
   130    91    92    2
   131    92    94    1
   132    92    93    1
