@<TRIPOS>MOLECULE
tmp/3h2pB00.pdb
 92 90 0 0 0
SMALL
GASTEIGER

@<TRIPOS>ATOM
      1  N         13.5960    0.7940   38.1300 N.3    46  HIS46      -0.1241
      2  CA        15.0000    1.1880   38.2740 C.3    46  HIS46       0.1621
      3  C         15.1910    2.6840   38.4130 C.2    46  HIS46       0.2264
      4  O         14.4760    3.4630   37.7960 O.2    46  HIS46      -0.2867
      5  CB        15.8050    0.8090   37.0240 C.3    46  HIS46       0.0745
      6  CG        15.8150   -0.6520   36.7020 C.ar   46  HIS46       0.0817
      7  ND1       16.0790   -1.1230   35.4350 N.ar   46  HIS46      -0.2268
      8  CD2       15.6020   -1.7450   37.4720 C.ar   46  HIS46       0.1154
      9  CE1       16.0360   -2.4430   35.4370 C.ar   46  HIS46       0.1986
     10  NE2       15.7460   -2.8450   36.6610 N.ar   46  HIS46      -0.2212
     11  N         17.6210    5.4140   37.0540 N.3    48  HIS48      -0.1241
     12  CA        18.6070    5.6350   36.0090 C.3    48  HIS48       0.1621
     13  C         19.4090    6.8920   36.3000 C.2    48  HIS48       0.2264
     14  O         18.9790    7.7500   37.0720 O.2    48  HIS48      -0.2867
     15  CB        17.9450    5.6670   34.6240 C.3    48  HIS48       0.0745
     16  CG        17.6510    4.3030   34.0880 C.ar   48  HIS48       0.0817
     17  ND1       18.1970    3.8260   32.9160 N.ar   48  HIS48      -0.2268
     18  CD2       16.9120    3.2910   34.5980 C.ar   48  HIS48       0.1154
     19  CE1       17.7860    2.5870   32.7140 C.ar   48  HIS48       0.1986
     20  NE2       17.0040    2.2400   33.7200 N.ar   48  HIS48      -0.2212
     21  N         22.0440    5.3320   31.6210 N.3    62  PRO62      -0.2102
     22  CA        22.0660    3.9240   32.0200 C.3    62  PRO62       0.1504
     23  C         21.4710    3.7130   33.4050 C.2    62  PRO62       0.2575
     24  O         21.2510    4.6640   34.1470 O.2    62  PRO62      -0.2718
     25  CB        23.5630    3.5990   32.0410 C.3    62  PRO62       0.0282
     26  CG        24.2060    4.9070   32.3190 C.3    62  PRO62       0.0208
     27  CD        23.3990    5.8990   31.5450 C.3    62  PRO62       0.0893
     28  N         21.2000    2.4560   33.7240 N.am   63  HIS63      -0.1976
     29  CA        20.8430    2.0270   35.0640 C.3    63  HIS63       0.1656
     30  C         21.8640    2.6240   36.0360 C.2    63  HIS63       0.2291
     31  O         23.0650    2.4860   35.8230 O.2    63  HIS63      -0.2864
     32  CB        20.9570    0.5050   35.0780 C.3    63  HIS63       0.0771
     33  CG        20.1550   -0.1670   36.1410 C.ar   63  HIS63       0.0820
     34  ND1       19.6600   -1.4440   35.9910 N.ar   63  HIS63      -0.2267
     35  CD2       19.7660    0.2480   37.3690 C.ar   63  HIS63       0.1154
     36  CE1       19.0020   -1.7890   37.0840 C.ar   63  HIS63       0.1986
     37  NE2       19.0510   -0.7800   37.9350 N.ar   63  HIS63      -0.2212
     38  N         22.8890   -3.5560   40.6090 N.3    70  HIS70      -0.1241
     39  CA        23.0870   -2.1250   40.4230 C.3    70  HIS70       0.1621
     40  C         22.4630   -1.3670   41.5990 C.2    70  HIS70       0.2264
     41  O         21.4200   -1.7680   42.1240 O.2    70  HIS70      -0.2867
     42  CB        22.4300   -1.6640   39.1180 C.3    70  HIS70       0.0745
     43  CG        23.0840   -2.1970   37.8810 C.ar   70  HIS70       0.0817
     44  ND1       23.1260   -1.4880   36.6980 N.ar   70  HIS70      -0.2268
     45  CD2       23.7300   -3.3630   37.6420 C.ar   70  HIS70       0.1154
     46  CE1       23.7610   -2.1980   35.7830 C.ar   70  HIS70       0.1986
     47  NE2       24.1400   -3.3390   36.3310 N.ar   70  HIS70      -0.2212
     48  N          9.8220   -0.2930   33.4050 N.3   110  HIS110     -0.1241
     49  CA        10.1260   -0.9470   32.1370 C.3   110  HIS110      0.1621
     50  C          8.9920   -1.7980   31.5800 C.2   110  HIS110      0.2264
     51  O          8.0620   -2.1690   32.2890 O.2   110  HIS110     -0.2867
     52  CB        11.3720   -1.8230   32.2870 C.3   110  HIS110      0.0745
     53  CG        12.6530   -1.0560   32.2910 C.ar  110  HIS110      0.0817
     54  ND1       13.3110   -0.7010   31.1350 N.ar  110  HIS110     -0.2268
     55  CD2       13.4060   -0.5900   33.3140 C.ar  110  HIS110      0.1154
     56  CE1       14.4190   -0.0520   31.4440 C.ar  110  HIS110      0.1986
     57  NE2       14.4990    0.0320   32.7590 N.ar  110  HIS110     -0.2212
     58  N         13.1260   -7.9510   34.6890 N.3   114  VAL114     -0.1245
     59  CA        14.5610   -8.0710   34.4780 C.3   114  VAL114      0.1561
     60  C         15.0360   -9.5150   34.5820 C.2   114  VAL114      0.2260
     61  O         15.8730   -9.9580   33.7950 O.2   114  VAL114     -0.2867
     62  CB        15.3300   -7.2090   35.4830 C.3   114  VAL114      0.0252
     63  CG1       14.9180   -5.7550   35.3270 C.3   114  VAL114      0.0019
     64  CG2       15.0700   -7.6990   36.9000 C.3   114  VAL114      0.0019
     65  N         17.2820   -6.9210   29.3490 N.3   115  ASN115     -0.1225
     66  CA        16.1070   -7.7700   29.1930 C.3   115  ASN115      0.1785
     67  C         14.8100   -7.0820   29.6120 C.2   115  ASN115      0.2597
     68  O         13.7260   -7.5900   29.3390 O.2   115  ASN115     -0.2718
     69  CB        16.2770   -9.0810   29.9670 C.3   115  ASN115      0.1169
     70  CG        17.5600   -9.8100   29.6080 C.2   115  ASN115      0.2627
     71  OD1       18.6620   -9.3040   29.8390 O.2   115  ASN115     -0.2716
     72  ND2       17.4230  -11.0090   29.0480 N.am  115  ASN115     -0.0877
     73  N         14.9170   -5.9250   30.2640 N.am  116  ALA116     -0.1966
     74  CA        13.7300   -5.2150   30.7480 C.3   116  ALA116      0.1728
     75  C         12.9750   -4.4790   29.6410 C.2   116  ALA116      0.2616
     76  O         11.8770   -3.9710   29.8590 O.2   116  ALA116     -0.2715
     77  CB        14.0930   -4.2560   31.8670 C.3   116  ALA116      0.0334
     78  N         13.5710   -4.4160   28.4560 N.am  117  GLY117     -0.1955
     79  CA        12.9110   -3.8070   27.3170 C.3   117  GLY117      0.1869
     80  C         12.7510   -2.3050   27.4430 C.2   117  GLY117      0.2309
     81  O         13.5420   -1.6370   28.1150 O.2   117  GLY117     -0.2863
     82  N         11.5100    1.6520   28.0710 N.3   119  ARG119     -0.1245
     83  CA        11.1800    2.4600   29.2320 C.3   119  ARG119      0.1563
     84  C          9.7990    3.0570   29.0160 C.2   119  ARG119      0.2260
     85  O          9.6310    3.9710   28.2050 O.2   119  ARG119     -0.2867
     86  CB        12.2250    3.5520   29.4120 C.3   119  ARG119      0.0307
     87  CG        13.6240    2.9980   29.4810 C.3   119  ARG119      0.0489
     88  CD        14.6680    4.0790   29.3520 C.3   119  ARG119      0.2205
     89  NE        15.9970    3.4870   29.3970 N.pl3 119  ARG119     -0.0865
     90  CZ        17.1230    4.1460   29.1760 C.cat 119  ARG119      0.5346
     91  NH1       17.0940    5.4370   28.8790 N.pl3 119  ARG119      0.1354
     92  NH2       18.2760    3.5050   29.2470 N.pl3 119  ARG119      0.1354
@<TRIPOS>BOND
     1    79    80    1
     2    79    78    1
     3    80    81    2
     4    82    83    1
     5    85    84    2
     6    78    75   am
     7    91    90    1
     8    84    83    1
     9    72    70   am
    10    90    92    1
    11    90    89    2
    12    66    65    1
    13    66    67    1
    14    66    69    1
    15    83    86    1
    16    68    67    2
    17    88    89    1
    18    88    87    1
    19    86    87    1
    20    70    71    2
    21    70    69    1
    22    67    73   am
    23    75    76    2
    24    75    74    1
    25    73    74    1
    26    74    77    1
    27    54    56   ar
    28    54    53   ar
    29    56    57   ar
    30    27    21    1
    31    27    26    1
    32    50    49    1
    33    50    51    2
    34    21    22    1
    35    22    25    1
    36    22    23    1
    37    25    26    1
    38    49    52    1
    39    49    48    1
    40    52    53    1
    41    53    55   ar
    42    19    17   ar
    43    19    20   ar
    44    57    55   ar
    45    17    16   ar
    46    23    28   am
    47    23    24    2
    48    20    18   ar
    49    28    29    1
    50    61    60    2
    51    16    18   ar
    52    16    15    1
    53    59    60    1
    54    59    58    1
    55    59    62    1
    56    15    12    1
    57    29    32    1
    58    29    30    1
    59    32    33    1
    60    63    62    1
    61     7     9   ar
    62     7     6   ar
    63     9    10   ar
    64    62    64    1
    65    46    47   ar
    66    46    44   ar
    67    31    30    2
    68    34    33   ar
    69    34    36   ar
    70    12    13    1
    71    12    11    1
    72    33    35   ar
    73    13    14    2
    74    47    45   ar
    75    10     8   ar
    76    44    43   ar
    77     6     5    1
    78     6     8   ar
    79     5     2    1
    80    36    37   ar
    81    35    37   ar
    82    45    43   ar
    83     4     3    2
    84    43    42    1
    85     1     2    1
    86     2     3    1
    87    42    39    1
    88    39    38    1
    89    39    40    1
    90    40    41    2
