@<TRIPOS>MOLECULE
tmp/3h2yA00.pdb
 117 113 0 0 0
SMALL
GASTEIGER

@<TRIPOS>ATOM
      1  N        -15.1910   -7.6890   14.4480 N.3    49  ASN49      -0.1225
      2  CA       -13.9480   -8.2720   14.9620 C.3    49  ASN49       0.1785
      3  C        -13.6430   -7.8440   16.3900 C.2    49  ASN49       0.2597
      4  O        -14.1940   -6.8550   16.8710 O.2    49  ASN49      -0.2718
      5  CB       -12.7830   -7.8850   14.0570 C.3    49  ASN49       0.1169
      6  CG       -11.5380   -8.7060   14.3290 C.2    49  ASN49       0.2627
      7  OD1      -11.6190   -9.8600   14.7290 O.2    49  ASN49      -0.2716
      8  ND2      -10.3750   -8.1090   14.1080 N.am   49  ASN49      -0.0877
      9  N        -12.7360   -8.5800   17.0320 N.am   50  LYS50      -0.1980
     10  CA       -12.2540   -8.3230   18.3980 C.3    50  LYS50       0.1596
     11  C        -13.2410   -8.8000   19.4630 C.2    50  LYS50       0.2287
     12  O        -13.3170   -8.2340   20.5580 O.2    50  LYS50      -0.2864
     13  CB       -11.8490   -6.8470   18.6010 C.3    50  LYS50       0.0298
     14  CG       -10.9440   -6.3010   17.4890 C.3    50  LYS50       0.0038
     15  CD       -10.3470   -4.9460   17.8170 C.3    50  LYS50       0.0206
     16  CE        -9.5060   -4.4560   16.6340 C.3    50  LYS50       0.1093
     17  NZ        -8.9860   -3.0770   16.8460 N.3    50  LYS50      -0.1314
     18  N        -12.9860  -11.2940   21.3640 N.3    52  ASP52      -0.1225
     19  CA       -12.2740  -11.7370   22.5710 C.3    52  ASP52       0.1805
     20  C        -12.2870  -10.7030   23.6960 C.2    52  ASP52       0.2597
     21  O        -12.1040  -11.0530   24.8550 O.2    52  ASP52      -0.2718
     22  CB       -10.8200  -12.1010   22.2570 C.3    52  ASP52       0.1424
     23  CG       -10.0690  -10.9600   21.5800 C.2    52  ASP52       0.3668
     24  OD1      -10.3750  -10.6630   20.4120 O.co2  52  ASP52      -0.2456
     25  OD2       -9.1600  -10.3790   22.2130 O.co2  52  ASP52      -0.2456
     26  N        -12.4890   -9.4350   23.3470 N.am   53  LEU53      -0.1979
     27  CA       -12.4770   -8.3480   24.3330 C.3    53  LEU53       0.1596
     28  C        -13.8260   -8.1200   25.0280 C.2    53  LEU53       0.2287
     29  O        -13.8870   -7.4470   26.0630 O.2    53  LEU53      -0.2864
     30  CB       -11.9870   -7.0460   23.6890 C.3    53  LEU53       0.0297
     31  CG       -10.6010   -6.9770   23.0450 C.3    53  LEU53       0.0022
     32  CD1      -10.4410   -5.6310   22.3580 C.3    53  LEU53       0.0001
     33  CD2       -9.4850   -7.2180   24.0540 C.3    53  LEU53       0.0001
     34  N        -12.9430  -13.2590   16.5670 N.3    84  SER84      -0.1202
     35  CA       -11.6900  -12.7370   17.0700 C.3    84  SER84       0.2020
     36  C        -10.6510  -13.2150   16.0710 C.2    84  SER84       0.2619
     37  O        -10.2630  -14.3850   16.0800 O.2    84  SER84      -0.2717
     38  CB       -11.3590  -13.2580   18.4660 C.3    84  SER84       0.2103
     39  OG       -10.0290  -12.8770   18.8130 O.3    84  SER84      -0.2182
     40  N        -10.2370  -12.3330   15.1700 N.am   85  ALA85      -0.1965
     41  CA        -9.1880  -12.6920   14.2220 C.3    85  ALA85       0.1728
     42  C         -7.8960  -13.0540   14.9700 C.2    85  ALA85       0.2616
     43  O         -7.1410  -13.9270   14.5340 O.2    85  ALA85      -0.2715
     44  CB        -8.9520  -11.5560   13.2220 C.3    85  ALA85       0.0334
     45  N         -7.6620  -12.4120   16.1120 N.am   86  ALA86      -0.1977
     46  CA        -6.4480  -12.6680   16.9060 C.3    86  ALA86       0.1597
     47  C         -6.4350  -14.0440   17.5550 C.2    86  ALA86       0.2287
     48  O         -5.4200  -14.7400   17.5230 O.2    86  ALA86      -0.2864
     49  CB        -6.2750  -11.6060   17.9740 C.3    86  ALA86       0.0319
     50  N        -11.9220   -0.4960    7.5260 N.3   112  CYS112     -0.1221
     51  CA       -11.2060    0.6810    7.9970 C.3   112  CYS112      0.1808
     52  C         -9.8890    0.2180    8.6150 C.2   112  CYS112      0.2602
     53  O         -9.8040   -0.9070    9.0970 O.2   112  CYS112     -0.2717
     54  CB       -12.0620    1.3780    9.0570 C.3   112  CYS112      0.0970
     55  SG       -11.3640    2.8710    9.7800 S.3   112  CYS112     -0.0800
     56  N         -8.8670    1.0750    8.6130 N.am  113  THR113     -0.1939
     57  CA        -7.5870    0.7220    9.2310 C.3   113  THR113      0.2028
     58  C         -7.7780    0.4070   10.7240 C.2   113  THR113      0.2642
     59  O         -8.6350    0.9940   11.3970 O.2   113  THR113     -0.2714
     60  CB        -6.5110    1.8090    9.0030 C.3   113  THR113      0.1808
     61  OG1       -5.3170    1.4560    9.7080 O.3   113  THR113     -0.2208
     62  CG2       -6.9860    3.1580    9.4810 C.3   113  THR113      0.0379
     63  N         -7.0050   -0.5600   11.2070 N.am  114  ASN114     -0.1957
     64  CA        -7.0080   -0.9860   12.6090 C.3   114  ASN114      0.1819
     65  C         -8.2410   -1.7810   13.0700 C.2   114  ASN114      0.2621
     66  O         -8.4150   -2.0080   14.2660 O.2   114  ASN114     -0.2715
     67  CB        -6.7180    0.1930   13.5620 C.3   114  ASN114      0.1195
     68  CG        -6.0430   -0.2570   14.8520 C.2   114  ASN114      0.2630
     69  OD1       -4.9780   -0.8790   14.8210 O.2   114  ASN114     -0.2716
     70  ND2       -6.6490    0.0660   15.9840 N.am  114  ASN114     -0.0877
     71  N         -9.0830   -2.2250   12.1370 N.am  115  VAL115     -0.1963
     72  CA       -10.2160   -3.0850   12.5210 C.3   115  VAL115      0.1727
     73  C         -9.7630   -4.5300   12.6860 C.2   115  VAL115      0.2617
     74  O        -10.4270   -5.3270   13.3580 O.2   115  VAL115     -0.2715
     75  CB       -11.3800   -3.0830   11.5080 C.3   115  VAL115      0.0290
     76  CG1      -12.0050   -1.7020   11.3900 C.3   115  VAL115      0.0023
     77  CG2      -10.9470   -3.6570   10.1430 C.3   115  VAL115      0.0023
     78  N         -8.6320   -4.8590   12.0700 N.am  116  GLY116     -0.1940
     79  CA        -8.0820   -6.2110   12.1320 C.3   116  GLY116      0.2014
     80  C         -8.1500   -6.9230   10.7940 C.2   116  GLY116      0.2639
     81  O         -8.1580   -8.1510   10.7440 O.2   116  GLY116     -0.2714
     82  N         -8.1930   -6.1690    9.6990 N.am  117  LYS117     -0.1963
     83  CA        -8.2740   -6.8080    8.3860 C.3   117  LYS117      0.1728
     84  C         -7.0550   -7.6710    8.0300 C.2   117  LYS117      0.2617
     85  O         -7.2270   -8.7620    7.5160 O.2   117  LYS117     -0.2715
     86  CB        -8.6140   -5.8080    7.2800 C.3   117  LYS117      0.0311
     87  CG        -8.9410   -6.4620    5.9340 C.3   117  LYS117      0.0038
     88  CD        -9.4870   -5.4580    4.9250 C.3   117  LYS117      0.0206
     89  CE        -8.5620   -4.2650    4.6790 C.3   117  LYS117      0.1093
     90  NZ        -7.2230   -4.6730    4.1500 N.3   117  LYS117     -0.1314
     91  N         -5.8350   -7.1850    8.2880 N.am  118  SER118     -0.1936
     92  CA        -4.6320   -8.0030    8.0400 C.3   118  SER118      0.2055
     93  C         -4.6640   -9.3080    8.8400 C.2   118  SER118      0.2643
     94  O         -4.3650  -10.3850    8.3170 O.2   118  SER118     -0.2714
     95  CB        -3.3560   -7.2070    8.3590 C.3   118  SER118      0.2130
     96  OG        -2.2190   -8.0500    8.3170 O.3   118  SER118     -0.2179
     97  N         -5.0270   -9.2100   10.1190 N.am  119  THR119     -0.1950
     98  CA        -5.1080  -10.3800   10.9900 C.3   119  THR119      0.1897
     99  C         -6.1560  -11.3720   10.4620 C.2   119  THR119      0.2313
    100  O         -5.9450  -12.5930   10.4830 O.2   119  THR119     -0.2863
    101  CB        -5.4020   -9.9510   12.4510 C.3   119  THR119      0.1794
    102  OG1       -4.4150   -8.9910   12.8680 O.3   119  THR119     -0.2208
    103  CG2       -5.3620  -11.1380   13.3930 C.3   119  THR119      0.0378
    104  N         -7.9710   -2.1800   24.8740 N.3   179  PRO179     -0.2102
    105  CA        -7.8740   -3.2620   25.8550 C.3   179  PRO179      0.1504
    106  C         -7.0170   -4.3980   25.3180 C.2   179  PRO179      0.2576
    107  O         -7.1270   -4.7470   24.1410 O.2   179  PRO179     -0.2718
    108  CB        -9.3270   -3.7300   26.0190 C.3   179  PRO179      0.0282
    109  CG       -10.1720   -2.6560   25.4060 C.3   179  PRO179      0.0208
    110  CD        -9.3350   -2.0560   24.3320 C.3   179  PRO179      0.0893
    111  N         -6.1610   -4.9500   26.1730 N.am  180  THR180     -0.1953
    112  CA        -5.2860   -6.0570   25.7910 C.3   180  THR180      0.1897
    113  C         -5.9660   -7.3960   26.0580 C.2   180  THR180      0.2313
    114  O         -5.6310   -8.4110   25.4420 O.2   180  THR180     -0.2863
    115  CB        -3.9390   -6.0130   26.5490 C.3   180  THR180      0.1794
    116  OG1       -4.1760   -6.0720   27.9610 O.3   180  THR180     -0.2208
    117  CG2       -3.1690   -4.7380   26.2180 C.3   180  THR180      0.0378
@<TRIPOS>BOND
     1    90    89    1
     2    89    88    1
     3    88    87    1
     4    87    86    1
     5    86    83    1
     6    85    84    2
     7    50    51    1
     8    51    52    1
     9    51    54    1
    10    84    91   am
    11    84    83    1
    12    92    91    1
    13    92    95    1
    14    92    93    1
    15    96    95    1
    16    94    93    2
    17    83    82    1
    18    56    52   am
    19    56    57    1
    20    52    53    2
    21    93    97   am
    22    60    57    1
    23    60    62    1
    24    60    61    1
    25    54    55    1
    26    57    58    1
    27    82    80   am
    28    97    98    1
    29    77    75    1
    30    99   100    2
    31    99    98    1
    32    58    63   am
    33    58    59    2
    34    81    80    2
    35    80    79    1
    36    98   101    1
    37    63    64    1
    38    76    75    1
    39    75    72    1
    40    78    79    1
    41    78    73   am
    42    71    72    1
    43    71    65   am
    44   101   102    1
    45   101   103    1
    46    72    73    1
    47    64    65    1
    48    64    67    1
    49    73    74    2
    50    65    66    2
    51    44    41    1
    52    67    68    1
    53     5     6    1
    54     5     2    1
    55     8     6   am
    56    41    42    1
    57    41    40    1
    58     6     7    2
    59     1     2    1
    60    43    42    2
    61    69    68    2
    62    68    70   am
    63     2     3    1
    64    42    45   am
    65    40    36   am
    66    36    37    2
    67    36    35    1
    68    45    46    1
    69     3     4    2
    70     3     9   am
    71    34    35    1
    72    16    17    1
    73    16    15    1
    74    46    47    1
    75    46    49    1
    76     9    10    1
    77    35    38    1
    78    14    15    1
    79    14    13    1
    80    48    47    2
    81    10    13    1
    82    10    11    1
    83    38    39    1
    84    11    12    2
    85    24    23   ar
    86    18    19    1
    87    23    25   ar
    88    23    22    1
    89    22    19    1
    90    32    31    1
    91    19    20    1
    92    31    30    1
    93    31    33    1
    94    26    20   am
    95    26    27    1
    96    30    27    1
    97    20    21    2
    98   107   106    2
    99   110   104    1
   100   110   109    1
   101    27    28    1
   102   104   105    1
   103    28    29    2
   104   106   105    1
   105   106   111   am
   106   109   108    1
   107   114   113    2
   108   112   113    1
   109   112   111    1
   110   112   115    1
   111   105   108    1
   112   117   115    1
   113   115   116    1
