@<TRIPOS>MOLECULE
tmp/3h30A01.pdb
 104 100 0 0 0
SMALL
GASTEIGER

@<TRIPOS>ATOM
      1  N          7.9000  -16.5800   -5.2910 N.3    35  GLN35      -0.1231
      2  CA         7.9220  -16.3290   -3.8430 C.3    35  GLN35       0.1698
      3  C          8.2390  -17.5880   -3.0330 C.2    35  GLN35       0.2592
      4  O          8.9440  -17.5170   -2.0180 O.2    35  GLN35      -0.2718
      5  CB         6.5950  -15.7160   -3.3670 C.3    35  GLN35       0.0381
      6  CG         5.3750  -16.6320   -3.4990 C.3    35  GLN35       0.0905
      7  CD         4.0470  -15.9110   -3.2710 C.2    35  GLN35       0.2608
      8  OE1        2.9790  -16.4280   -3.6150 O.2    35  GLN35      -0.2717
      9  NE2        4.1070  -14.7200   -2.6880 N.am   35  GLN35      -0.0878
     10  N          7.7120  -18.7280   -3.4770 N.am   36  ASP36      -0.1974
     11  CA         7.9250  -20.0160   -2.8170 C.3    36  ASP36       0.1709
     12  C          9.3800  -20.4800   -2.7910 C.2    36  ASP36       0.2293
     13  O          9.7280  -21.3470   -1.9850 O.2    36  ASP36      -0.2864
     14  CB         7.0630  -21.1120   -3.4700 C.3    36  ASP36       0.1436
     15  CG         5.6300  -21.1120   -2.9690 C.2    36  ASP36       0.3671
     16  OD1        5.1080  -20.0290   -2.6200 O.co2  36  ASP36      -0.2456
     17  OD2        5.0250  -22.2040   -2.9320 O.co2  36  ASP36      -0.2456
     18  N         11.7320  -18.6160   -1.8180 N.3    38  TYR38      -0.1227
     19  CA        12.2680  -17.9950   -0.6090 C.3    38  TYR38       0.1736
     20  C         11.4650  -18.2600    0.6630 C.2    38  TYR38       0.2595
     21  O         10.2280  -18.3320    0.6600 O.2    38  TYR38      -0.2718
     22  CB        12.4060  -16.4900   -0.8180 C.3    38  TYR38       0.0548
     23  CG        13.1710  -16.1600   -2.0660 C.ar   38  TYR38      -0.0200
     24  CD1       14.5510  -16.3210   -2.1090 C.ar   38  TYR38      -0.0009
     25  CD2       12.5120  -15.7270   -3.2200 C.ar   38  TYR38      -0.0009
     26  CE1       15.2630  -16.0340   -3.2570 C.ar   38  TYR38       0.0417
     27  CE2       13.2270  -15.4290   -4.3760 C.ar   38  TYR38       0.0417
     28  CZ        14.5940  -15.5980   -4.3800 C.ar   38  TYR38       0.1957
     29  OH        15.3020  -15.3250   -5.5110 O.3    38  TYR38      -0.2866
     30  N         12.2020  -18.3890    1.7560 N.am   39  GLN39      -0.1965
     31  CA        11.6080  -18.4980    3.0750 C.3    39  GLN39       0.1733
     32  C         12.3210  -17.5300    4.0110 C.2    39  GLN39       0.2616
     33  O         13.5630  -17.4650    4.0260 O.2    39  GLN39      -0.2715
     34  CB        11.7050  -19.9310    3.5770 C.3    39  GLN39       0.0408
     35  CG        11.0860  -20.9450    2.6040 C.3    39  GLN39       0.0908
     36  CD        10.7780  -22.2850    3.2380 C.2    39  GLN39       0.2608
     37  OE1       11.4250  -22.6850    4.1960 O.2    39  GLN39      -0.2717
     38  NE2        9.8000  -22.9930    2.6870 N.am   39  GLN39      -0.0878
     39  N         11.5290  -16.7560    4.7460 N.am   40  LEU40      -0.1977
     40  CA        12.0460  -15.7840    5.6860 C.3    40  LEU40       0.1596
     41  C         12.5150  -16.4780    6.9570 C.2    40  LEU40       0.2287
     42  O         11.8450  -17.3740    7.4480 O.2    40  LEU40      -0.2864
     43  CB        10.9810  -14.7260    6.0060 C.3    40  LEU40       0.0297
     44  CG        10.3060  -14.0230    4.8090 C.3    40  LEU40       0.0022
     45  CD1        9.5610  -12.7880    5.2620 C.3    40  LEU40       0.0001
     46  CD2       11.2720  -13.6500    3.6890 C.3    40  LEU40       0.0001
     47  N         15.5600   -9.9140    2.3250 N.3    66  VAL66      -0.1245
     48  CA        14.3000   -9.6580    1.6240 C.3    66  VAL66       0.1561
     49  C         13.6590   -8.4110    2.1940 C.2    66  VAL66       0.2260
     50  O         13.4340   -8.3210    3.3920 O.2    66  VAL66      -0.2867
     51  CB        13.3160  -10.8500    1.7390 C.3    66  VAL66       0.0252
     52  CG1       11.9560  -10.4880    1.1610 C.3    66  VAL66       0.0019
     53  CG2       13.8960  -12.0800    1.0420 C.3    66  VAL66       0.0019
     54  N         10.3130   -6.3050    2.0310 N.3    68  ILE68      -0.1245
     55  CA         8.9070   -6.3040    1.6250 C.3    68  ILE68       0.1561
     56  C          8.3970   -4.8790    1.6650 C.2    68  ILE68       0.2260
     57  O          8.3760   -4.2530    2.7230 O.2    68  ILE68      -0.2867
     58  CB         8.0490   -7.1630    2.5610 C.3    68  ILE68       0.0252
     59  CG1        8.6040   -8.5830    2.6270 C.3    68  ILE68       0.0019
     60  CG2        6.6030   -7.1850    2.0870 C.3    68  ILE68       0.0019
     61  CD1        7.7430   -9.5280    3.4510 C.3    68  ILE68       0.0001
     62  N          9.9050  -10.8190   -5.8250 N.3   100  VAL100     -0.1231
     63  CA         8.7560  -11.6950   -5.6390 C.3   100  VAL100      0.1692
     64  C          7.5810  -10.9260   -5.0530 C.2   100  VAL100      0.2592
     65  O          7.7100   -9.7650   -4.7020 O.2   100  VAL100     -0.2718
     66  CB         9.1030  -12.9260   -4.7880 C.3   100  VAL100      0.0266
     67  CG1       10.2170  -13.7300   -5.4680 C.3   100  VAL100      0.0020
     68  CG2        9.4980  -12.5250   -3.3920 C.3   100  VAL100      0.0020
     69  N          6.4140  -11.5590   -5.0230 N.am  101  LYS101     -0.1966
     70  CA         5.2240  -10.9380   -4.4420 C.3   101  LYS101      0.1728
     71  C          4.9860  -11.4400   -3.0160 C.2   101  LYS101      0.2616
     72  O          5.2490  -12.6040   -2.7010 O.2   101  LYS101     -0.2715
     73  CB         3.9890  -11.2090   -5.3060 C.3   101  LYS101      0.0311
     74  CG         4.0520  -10.6080   -6.7040 C.3   101  LYS101      0.0038
     75  CD         2.6570  -10.2800   -7.2610 C.3   101  LYS101      0.0206
     76  CE         1.8020  -11.5210   -7.4880 C.3   101  LYS101      0.1093
     77  NZ         0.3830  -11.1660   -7.7610 N.3   101  LYS101     -0.1314
     78  N          4.4850  -10.5500   -2.1590 N.am  102  ASP102     -0.1958
     79  CA         4.1930  -10.8870   -0.7730 C.3   102  ASP102      0.1825
     80  C          2.9690  -11.8000   -0.7680 C.2   102  ASP102      0.2464
     81  O          1.9350  -11.4320   -1.3220 O.2   102  ASP102     -0.2730
     82  CB         3.9110   -9.6160    0.0390 C.3   102  ASP102      0.1450
     83  CG         3.6480   -9.9010    1.5130 C.2   102  ASP102      0.3671
     84  OD1        4.4480  -10.6190    2.1480 O.co2 102  ASP102     -0.2456
     85  OD2        2.6390   -9.3900    2.0420 O.co2 102  ASP102     -0.2456
     86  N          3.0810  -12.9960   -0.1630 N.am  103  PRO103     -0.2715
     87  CA         1.9400  -13.9130   -0.1230 C.3   103  PRO103      0.1536
     88  C          0.6540  -13.2470    0.3610 C.2   103  PRO103      0.2598
     89  O         -0.4150  -13.4950   -0.2050 O.2   103  PRO103     -0.2715
     90  CB         2.3970  -14.9890    0.8630 C.3   103  PRO103      0.0310
     91  CG         3.8740  -15.0290    0.6940 C.3   103  PRO103      0.0237
     92  CD         4.2870  -13.6040    0.4250 C.3   103  PRO103      0.0939
     93  N          0.7720  -12.3990    1.3820 N.am  104  VAL104     -0.1978
     94  CA        -0.3810  -11.7250    1.9810 C.3   104  VAL104      0.1596
     95  C         -0.8990  -10.5830    1.0970 C.2   104  VAL104      0.2287
     96  O         -1.8840  -10.7580    0.3800 O.2   104  VAL104     -0.2864
     97  CB        -0.0540  -11.2120    3.4130 C.3   104  VAL104      0.0276
     98  CG1       -1.2080  -10.3880    3.9840 C.3   104  VAL104      0.0022
     99  CG2        0.2760  -12.3860    4.3330 C.3   104  VAL104      0.0022
    100  N          8.2370   -7.7340   -3.0650 N.3   109  ALA109     -0.1245
    101  CA         9.2930   -8.0660   -2.1240 C.3   109  ALA109      0.1562
    102  C         10.6020   -8.1550   -2.8860 C.2   109  ALA109      0.2260
    103  O         10.7590   -9.0030   -3.7720 O.2   109  ALA109     -0.2867
    104  CB         8.9960   -9.3690   -1.4280 C.3   109  ALA109      0.0290
@<TRIPOS>BOND
     1    77    76    1
     2    76    75    1
     3    75    74    1
     4    74    73    1
     5    62    63    1
     6    63    64    1
     7    63    66    1
     8    29    28    1
     9    67    66    1
    10    73    70    1
    11     1     2    1
    12    64    69   am
    13    64    65    2
    14    69    70    1
    15    66    68    1
    16    70    71    1
    17    28    27   ar
    18    28    26   ar
    19    27    25   ar
    20     2     5    1
    21     2     3    1
    22   103   102    2
    23     8     7    2
    24     6     5    1
    25     6     7    1
    26    10     3   am
    27    10    11    1
    28    14    15    1
    29    14    11    1
    30     7     9   am
    31    26    24   ar
    32    25    23   ar
    33   100   101    1
    34     3     4    2
    35    71    72    2
    36    71    78   am
    37    15    17   ar
    38    15    16   ar
    39   102   101    1
    40    11    12    1
    41    12    13    2
    42    78    79    1
    43   101   104    1
    44    24    23   ar
    45    23    22    1
    46    18    19    1
    47    81    80    2
    48    22    19    1
    49    79    80    1
    50    79    82    1
    51    80    86   am
    52    19    20    1
    53    89    88    2
    54    86    87    1
    55    86    92    1
    56    87    88    1
    57    87    90    1
    58    82    83    1
    59    88    93   am
    60    96    95    2
    61    92    91    1
    62    21    20    2
    63    20    30   am
    64    91    90    1
    65    53    51    1
    66    95    94    1
    67    52    51    1
    68    93    94    1
    69    83    85   ar
    70    83    84   ar
    71    48    51    1
    72    48    49    1
    73    48    47    1
    74    55    56    1
    75    55    54    1
    76    55    58    1
    77    56    57    2
    78    30    31    1
    79    94    97    1
    80    60    58    1
    81    49    50    2
    82    58    59    1
    83    35    36    1
    84    35    34    1
    85    59    61    1
    86    38    36   am
    87    31    34    1
    88    31    32    1
    89    36    37    2
    90    97    98    1
    91    97    99    1
    92    46    44    1
    93    32    33    2
    94    32    39   am
    95    39    40    1
    96    44    45    1
    97    44    43    1
    98    40    43    1
    99    40    41    1
   100    41    42    2
