@<TRIPOS>MOLECULE
tmp/3h30A00.pdb
 149 138 0 0 0
SMALL
GASTEIGER

@<TRIPOS>ATOM
      1  N         14.8240   -8.3660   10.6050 N.3    44  LEU44      -0.1231
      2  CA        15.9500   -7.4620   10.8460 C.3    44  LEU44       0.1696
      3  C         15.4210   -6.1080   11.3220 C.2    44  LEU44       0.2632
      4  O         15.9310   -5.5310   12.2890 O.2    44  LEU44      -0.2714
      5  CB        16.7920   -7.3240    9.5760 C.3    44  LEU44       0.0284
      6  CG        17.3220   -8.6530    9.0250 C.3    44  LEU44       0.0019
      7  CD1       18.0280   -8.4720    7.6910 C.3    44  LEU44       0.0001
      8  CD2       18.2420   -9.3180   10.0530 C.3    44  LEU44       0.0001
      9  N         14.3870   -5.6080   10.6540 N.am   45  GLY45      -0.1718
     10  CA        13.7140   -4.3950   11.1060 C.2    45  GLY45       0.1480
     11  C         12.5110   -3.9780   10.2800 C.2    45  GLY45       0.2820
     12  O         12.2370   -4.5460    9.2240 O.2    45  GLY45      -0.2669
     13  N         11.7900   -2.9800   10.7830 N.am   46  ARG46      -0.1929
     14  CA        10.7130   -2.3370   10.0320 C.3    46  ARG46       0.1732
     15  C         10.8710   -0.8210   10.0840 C.2    46  ARG46       0.2616
     16  O         11.1430   -0.2540   11.1440 O.2    46  ARG46      -0.2715
     17  CB         9.3370   -2.7630   10.5630 C.3    46  ARG46       0.0348
     18  CG         9.1110   -2.5380   12.0470 C.3    46  ARG46       0.0492
     19  CD         7.6770   -2.8730   12.4180 C.3    46  ARG46       0.2205
     20  NE         7.3970   -2.6770   13.8400 N.pl3  46  ARG46      -0.0865
     21  CZ         6.2000   -2.8310   14.4050 C.cat  46  ARG46       0.5346
     22  NH1        5.1430   -3.1830   13.6740 N.pl3  46  ARG46       0.1354
     23  NH2        6.0550   -2.6310   15.7120 N.pl3  46  ARG46       0.1354
     24  N         10.7040   -0.1760    8.9310 N.am   47  GLY47      -0.1955
     25  CA        10.9220    1.2650    8.7950 C.3    47  GLY47       0.1869
     26  C          9.7010    1.9920    8.2610 C.2    47  GLY47       0.2309
     27  O          8.5710    1.6870    8.6500 O.2    47  GLY47      -0.2863
     28  N          8.7030   -0.1390    4.5280 N.3    50  SER50      -0.1217
     29  CA         9.2160   -1.5040    4.3990 C.3    50  SER50       0.1889
     30  C          9.3710   -2.2800    5.7070 C.2    50  SER50       0.2288
     31  O          9.3550   -1.7130    6.8000 O.2    50  SER50      -0.2866
     32  CB        10.5730   -1.4690    3.6890 C.3    50  SER50       0.2089
     33  OG        11.5020   -0.6990    4.4330 O.3    50  SER50      -0.2183
     34  N         12.2920   -5.4180    6.5730 N.3    52  VAL52      -0.1245
     35  CA        13.4330   -6.1640    6.0370 C.3    52  VAL52       0.1561
     36  C         13.6540   -7.4200    6.8910 C.2    52  VAL52       0.2260
     37  O         13.6130   -7.3610    8.1300 O.2    52  VAL52      -0.2867
     38  CB        14.7230   -5.2940    5.9890 C.3    52  VAL52       0.0252
     39  CG1       15.8830   -6.0510    5.3540 C.3    52  VAL52       0.0019
     40  CG2       14.4680   -3.9880    5.2210 C.3    52  VAL52       0.0019
     41  N         18.6920  -11.3170    1.7160 N.3    65  VAL65      -0.1245
     42  CA        17.9480  -10.3330    2.4930 C.3    65  VAL65       0.1561
     43  C         16.7200   -9.9510    1.6820 C.2    65  VAL65       0.2260
     44  O         16.8060   -9.7290    0.4750 O.2    65  VAL65      -0.2867
     45  CB        18.8400   -9.1060    2.8520 C.3    65  VAL65       0.0252
     46  CG1       18.0450   -8.0270    3.5820 C.3    65  VAL65       0.0019
     47  CG2       20.0040   -9.5720    3.6850 C.3    65  VAL65       0.0019
     48  N         13.3990   -7.4360    1.3240 N.3    67  LYS67      -0.1245
     49  CA        12.7130   -6.2080    1.7190 C.3    67  LYS67       0.1561
     50  C         11.2970   -6.2170    1.1450 C.2    67  LYS67       0.2260
     51  O         11.1030   -6.1580   -0.0770 O.2    67  LYS67      -0.2867
     52  CB        13.4640   -4.9720    1.2000 C.3    67  LYS67       0.0271
     53  CG        13.0290   -3.6880    1.9000 C.3    67  LYS67       0.0035
     54  CD        13.9370   -2.5020    1.5960 C.3    67  LYS67       0.0206
     55  CE        13.6840   -1.9320    0.1900 C.3    67  LYS67       0.1093
     56  NZ        14.4980   -0.6980   -0.1390 N.3    67  LYS67      -0.1314
     57  N         23.9950   -2.2830   -3.2800 N.3    94  ILE94      -0.1245
     58  CA        23.2600   -3.4940   -2.9480 C.3    94  ILE94       0.1561
     59  C         22.7620   -4.1600   -4.2250 C.2    94  ILE94       0.2260
     60  O         22.3740   -3.4910   -5.1880 O.2    94  ILE94      -0.2867
     61  CB        22.0960   -3.1820   -1.9780 C.3    94  ILE94       0.0252
     62  CG1       21.5510   -4.4690   -1.3530 C.3    94  ILE94       0.0019
     63  CG2       21.0040   -2.4060   -2.6830 C.3    94  ILE94       0.0019
     64  CD1       22.4750   -5.0810   -0.3170 C.3    94  ILE94       0.0001
     65  N         17.5650   -9.3220   -2.1260 N.3   112  PHE112     -0.1241
     66  CA        18.9560   -8.8610   -2.2460 C.3   112  PHE112      0.1605
     67  C         19.9500   -9.9360   -1.8260 C.2   112  PHE112      0.2264
     68  O         19.6520  -10.7930   -0.9760 O.2   112  PHE112     -0.2867
     69  CB        19.2060   -7.6110   -1.3910 C.3   112  PHE112      0.0534
     70  CG        18.3670   -6.4260   -1.7780 C.ar  112  PHE112     -0.0203
     71  CD1       18.7070   -5.6520   -2.8780 C.ar  112  PHE112     -0.0042
     72  CD2       17.2330   -6.0790   -1.0480 C.ar  112  PHE112     -0.0042
     73  CE1       17.9590   -4.5500   -3.2370 C.ar  112  PHE112     -0.0003
     74  CE2       16.4710   -4.9690   -1.4060 C.ar  112  PHE112     -0.0003
     75  CZ        16.8380   -4.2090   -2.5080 C.ar  112  PHE112     -0.0000
     76  N         23.5320   -9.3160    3.2340 N.3   115  VAL115     -0.1231
     77  CA        24.4410   -8.3900    3.8830 C.3   115  VAL115      0.1692
     78  C         24.1270   -8.3980    5.3690 C.2   115  VAL115      0.2592
     79  O         22.9680   -8.5160    5.7660 O.2   115  VAL115     -0.2718
     80  CB        24.3110   -6.9600    3.3040 C.3   115  VAL115      0.0266
     81  CG1       25.1580   -5.9680    4.0990 C.3   115  VAL115      0.0020
     82  CG2       24.7380   -6.9450    1.8510 C.3   115  VAL115      0.0020
     83  N         25.1890   -8.3100    6.1640 N.am  116  ASN116     -0.1960
     84  CA        25.1310   -8.2020    7.6190 C.3   116  ASN116      0.1819
     85  C         24.3010   -7.0010    8.0650 C.2   116  ASN116      0.2621
     86  O         24.3930   -5.9200    7.4840 O.2   116  ASN116     -0.2715
     87  CB        26.5630   -8.0850    8.1600 C.3   116  ASN116      0.1195
     88  CG        26.6220   -7.7000    9.6220 C.2   116  ASN116      0.2630
     89  OD1       25.8890   -8.2360   10.4550 O.2   116  ASN116     -0.2716
     90  ND2       27.5190   -6.7780    9.9460 N.am  116  ASN116     -0.0877
     91  N         23.5450   -7.1950    9.1420 N.am  117  ASN117     -0.1972
     92  CA        22.5290   -6.2480    9.6040 C.3   117  ASN117      0.1688
     93  C         23.0600   -5.1130   10.5010 C.2   117  ASN117      0.2292
     94  O         22.4290   -4.7710   11.5050 O.2   117  ASN117     -0.2864
     95  CB        21.4500   -7.0480   10.3580 C.3   117  ASN117      0.1181
     96  CG        20.2440   -6.2090   10.7640 C.2   117  ASN117      0.2629
     97  OD1       19.8740   -5.2480   10.0900 O.2   117  ASN117     -0.2716
     98  ND2       19.6110   -6.5950   11.8660 N.am  117  ASN117     -0.0877
     99  N         24.2970   -1.0800   10.3300 N.3   119  ASP119     -0.1239
    100  CA        24.4160    0.1470    9.5360 C.3   119  ASP119      0.1674
    101  C         25.5200    1.0470   10.0920 C.2   119  ASP119      0.2266
    102  O         25.9230    0.9340   11.2530 O.2   119  ASP119     -0.2867
    103  CB        23.0540    0.8520    9.2550 C.3   119  ASP119      0.1410
    104  CG        22.5630    1.7500   10.3840 C.2   119  ASP119      0.3668
    105  OD1       23.2920    2.6760   10.7770 O.co2 119  ASP119     -0.2456
    106  OD2       21.4000    1.5910   10.8070 O.co2 119  ASP119     -0.2456
    107  N         25.7840    2.9190   13.4840 N.3   122  GLN122     -0.1245
    108  CA        26.1000    2.1520   14.6860 C.3   122  GLN122      0.1566
    109  C         27.6010    2.0950   15.0010 C.2   122  GLN122      0.2260
    110  O         27.9890    1.8590   16.1690 O.2   122  GLN122     -0.2867
    111  CB        25.5450    0.7210   14.5480 C.3   122  GLN122      0.0367
    112  CG        24.0170    0.6490   14.4770 C.3   122  GLN122      0.0905
    113  CD        23.5050   -0.6920   13.9720 C.2   122  GLN122      0.2608
    114  OE1       23.5510   -0.9740   12.7700 O.2   122  GLN122     -0.2717
    115  NE2       23.0090   -1.5230   14.8860 N.am  122  GLN122     -0.0878
    116  N         22.2920    5.8660    8.2260 N.3   159  HIS159     -0.1241
    117  CA        21.3600    4.7250    8.2840 C.3   159  HIS159      0.1621
    118  C         21.2460    4.0080    6.9410 C.2   159  HIS159      0.2264
    119  O         20.7970    2.8530    6.9000 O.2   159  HIS159     -0.2867
    120  CB        19.9590    5.1620    8.7510 C.3   159  HIS159      0.0745
    121  CG        19.7000    4.9630   10.2160 C.ar  159  HIS159      0.0817
    122  ND1       20.1240    3.8470   10.9060 N.ar  159  HIS159     -0.2268
    123  CD2       19.0050    5.7110   11.1080 C.ar  159  HIS159      0.1154
    124  CE1       19.7330    3.9330   12.1660 C.ar  159  HIS159      0.1986
    125  NE2       19.0480    5.0530   12.3140 N.ar  159  HIS159     -0.2212
    126  N         25.1690    0.1840    4.8650 N.3   162  MET162     -0.1245
    127  CA        25.3610   -1.0280    5.6470 C.3   162  MET162      0.1570
    128  C         26.8300   -1.4130    5.6080 C.2   162  MET162      0.2261
    129  O         27.5260   -1.2000    4.6160 O.2   162  MET162     -0.2867
    130  CB        24.4800   -2.1690    5.1540 C.3   162  MET162      0.0387
    131  CG        22.9880   -1.9110    5.2980 C.3   162  MET162      0.0595
    132  SD        22.3970   -1.7680    6.9870 S.3   162  MET162     -0.1393
    133  CE        22.5650   -3.4540    7.5380 C.3   162  MET162      0.0692
    134  N         22.5340    1.4130    0.4610 N.3   173  ILE173     -0.1231
    135  CA        21.1960    0.8290    0.3690 C.3   173  ILE173      0.1692
    136  C         20.1520    1.9390    0.3030 C.2   173  ILE173      0.2592
    137  O         20.4890    3.1330    0.2450 O.2   173  ILE173     -0.2718
    138  CB        20.8950   -0.1360    1.5460 C.3   173  ILE173      0.0266
    139  CG1       20.9430    0.5890    2.8890 C.3   173  ILE173      0.0019
    140  CG2       21.8450   -1.3350    1.5170 C.3   173  ILE173      0.0020
    141  CD1       20.1450   -0.1250    3.9280 C.3   173  ILE173      0.0001
    142  N         18.8900    1.5340    0.2510 N.am  174  ASP174     -0.1974
    143  CA        17.7360    2.4360    0.3950 C.3   174  ASP174      0.1709
    144  C         17.6460    3.3940   -0.7960 C.2   174  ASP174      0.2293
    145  O         17.7550    4.6210   -0.6480 O.2   174  ASP174     -0.2864
    146  CB        17.8050    3.1840    1.7320 C.3   174  ASP174      0.1436
    147  CG        16.4310    3.4720    2.3180 C.2   174  ASP174      0.3671
    148  OD1       15.4910    2.6710    2.0910 O.co2 174  ASP174     -0.2456
    149  OD2       16.2980    4.4880    3.0280 O.co2 174  ASP174     -0.2456
@<TRIPOS>BOND
     1    60    59    2
     2    59    58    1
     3    57    58    1
     4    73    71   ar
     5    73    75   ar
     6    58    61    1
     7    71    70   ar
     8    63    61    1
     9    75    74   ar
    10    66    65    1
    11    66    67    1
    12    66    69    1
    13    61    62    1
    14    67    68    2
    15    70    69    1
    16    70    72   ar
    17    74    72   ar
    18    62    64    1
    19   144   145    2
    20   144   143    1
    21    56    55    1
    22    51    50    2
    23    55    54    1
    24   137   136    2
    25   142   136   am
    26   142   143    1
    27   136   135    1
    28   135   134    1
    29   135   138    1
    30   143   146    1
    31    44    43    2
    32    50    49    1
    33    52    49    1
    34    52    53    1
    35    48    49    1
    36   140   138    1
    37   138   139    1
    38    54    53    1
    39    43    42    1
    40    41    42    1
    41   146   147    1
    42    82    80    1
    43   148   147   ar
    44   147   149   ar
    45    42    45    1
    46    45    46    1
    47    45    47    1
    48   139   141    1
    49    76    77    1
    50    80    77    1
    51    80    81    1
    52    32    29    1
    53    32    33    1
    54    77    78    1
    55    29    28    1
    56    29    30    1
    57   129   128    2
    58   126   127    1
    59   130   131    1
    60   130   127    1
    61    40    38    1
    62   131   132    1
    63    39    38    1
    64    78    79    2
    65    78    83   am
    66   128   127    1
    67    30    31    2
    68    38    35    1
    69    35    34    1
    70    35    36    1
    71    83    84    1
    72    36    37    2
    73   119   118    2
    74   118   117    1
    75   132   133    1
    76    86    85    2
    77    84    85    1
    78    84    87    1
    79     7     6    1
    80    85    91   am
    81    87    88    1
    82   116   117    1
    83    26    27    2
    84    26    25    1
    85   117   120    1
    86   120   121    1
    87    25    24    1
    88    24    15   am
    89     6     5    1
    90     6     8    1
    91    91    92    1
    92    12    11    2
    93   103   100    1
    94   103   104    1
    95   100   101    1
    96   100    99    1
    97     5     2    1
    98    92    95    1
    99    92    93    1
   100    88    90   am
   101    88    89    2
   102    14    15    1
   103    14    17    1
   104    14    13    1
   105    15    16    2
   106    97    96    2
   107   101   102    2
   108   121   122   ar
   109   121   123   ar
   110    11    13   am
   111    11    10    1
   112    95    96    1
   113   104   105   ar
   114   104   106   ar
   115    93    94    2
   116    17    18    1
   117     1     2    1
   118     9    10    2
   119     9     3    1
   120    96    98   am
   121     2     3    1
   122   122   124   ar
   123   123   125   ar
   124     3     4    2
   125    18    19    1
   126   124   125   ar
   127    19    20    1
   128   114   113    2
   129   107   108    1
   130    22    21    1
   131    20    21    2
   132   113   112    1
   133   113   115   am
   134    21    23    1
   135   112   111    1
   136   111   108    1
   137   108   109    1
   138   109   110    2
