@<TRIPOS>MOLECULE
tmp/3h32E00.pdb
 135 129 0 0 0
SMALL
GASTEIGER

@<TRIPOS>ATOM
      1  N        127.3080   59.6080   86.5880 N.3   210  LEU210     -0.1245
      2  CA       127.2010   58.6570   87.6940 C.3   210  LEU210      0.1561
      3  C        128.1890   59.0450   88.7930 C.2   210  LEU210      0.2260
      4  O        128.9750   59.9820   88.6330 O.2   210  LEU210     -0.2867
      5  CB       127.5120   57.2320   87.2220 C.3   210  LEU210      0.0270
      6  CG       126.5740   56.5000   86.2620 C.3   210  LEU210      0.0019
      7  CD1      126.6870   57.0700   84.8610 C.3   210  LEU210      0.0001
      8  CD2      126.9400   55.0230   86.2520 C.3   210  LEU210      0.0001
      9  N        130.4670   53.7720   93.3380 N.3   213  GLU213     -0.1231
     10  CA       130.2700   52.4280   92.7880 C.3   213  GLU213      0.1699
     11  C        129.5420   52.3430   91.4380 C.2   213  GLU213      0.2592
     12  O        129.7610   51.4120   90.6680 O.2   213  GLU213     -0.2718
     13  CB       129.5460   51.5340   93.7990 C.3   213  GLU213      0.0402
     14  CG       128.2290   52.0720   94.3300 C.3   213  GLU213      0.1161
     15  CD       127.4160   50.9830   95.0190 C.2   213  GLU213      0.3649
     16  OE1      127.0720   49.9810   94.3440 O.co2 213  GLU213     -0.2457
     17  OE2      127.1250   51.1210   96.2300 O.co2 213  GLU213     -0.2457
     18  N        128.6730   53.3010   91.1540 N.am  214  ASN214     -0.1974
     19  CA       127.9540   53.2930   89.8980 C.3   214  ASN214      0.1688
     20  C        128.8650   53.6610   88.7460 C.2   214  ASN214      0.2292
     21  O        128.8500   53.0340   87.6920 O.2   214  ASN214     -0.2864
     22  CB       126.7940   54.2800   89.9460 C.3   214  ASN214      0.1181
     23  CG       125.5130   53.6400   90.4080 C.2   214  ASN214      0.2629
     24  OD1      125.0690   52.6670   89.8050 O.2   214  ASN214     -0.2716
     25  ND2      124.9320   54.1800   91.4790 N.am  214  ASN214     -0.0877
     26  N        132.2570   51.5050   87.9540 N.3   217  MET217     -0.1230
     27  CA       132.0610   50.1760   87.4570 C.3   217  MET217      0.1702
     28  C        131.8660   50.2820   85.9540 C.2   217  MET217      0.2593
     29  O        131.4610   49.3230   85.3130 O.2   217  MET217     -0.2718
     30  CB       130.8520   49.5140   88.1240 C.3   217  MET217      0.0401
     31  CG       129.5290   49.7830   87.4350 C.3   217  MET217      0.0596
     32  SD       128.1710   48.7710   88.0790 S.3   217  MET217     -0.1393
     33  CE       127.1960   50.0110   88.9140 C.3   217  MET217      0.0692
     34  N        132.1610   51.4480   85.3850 N.am  218  THR218     -0.1953
     35  CA       131.9940   51.6260   83.9430 C.3   218  THR218      0.1897
     36  C        133.2820   52.0500   83.2370 C.2   218  THR218      0.2313
     37  O        133.2540   52.7360   82.2160 O.2   218  THR218     -0.2863
     38  CB       130.8890   52.6540   83.6220 C.3   218  THR218      0.1794
     39  OG1      131.3960   53.9830   83.8050 O.3   218  THR218     -0.2208
     40  CG2      129.6870   52.4380   84.5310 C.3   218  THR218      0.0378
     41  N        130.5450   41.9680   84.6190 N.3   235  TRP235     -0.1227
     42  CA       129.2370   41.6680   85.1910 C.3   235  TRP235      0.1737
     43  C        129.1890   40.2210   85.6070 C.2   235  TRP235      0.2595
     44  O        129.0090   39.3240   84.7810 O.2   235  TRP235     -0.2718
     45  CB       128.1290   41.9080   84.1750 C.3   235  TRP235      0.0564
     46  CG       126.7420   41.8560   84.7450 C.ar  235  TRP235      0.0003
     47  CD1      126.3780   41.5650   86.0280 C.ar  235  TRP235      0.0946
     48  CD2      125.5380   42.1480   84.0410 C.ar  235  TRP235      0.0152
     49  NE1      125.0140   41.6630   86.1640 N.ar  235  TRP235     -0.2442
     50  CE2      124.4750   42.0210   84.9560 C.ar  235  TRP235      0.0810
     51  CE3      125.2540   42.5070   82.7190 C.ar  235  TRP235      0.0012
     52  CZ2      123.1430   42.2440   84.5880 C.ar  235  TRP235      0.0191
     53  CZ3      123.9370   42.7280   82.3550 C.ar  235  TRP235      0.0001
     54  CH2      122.8950   42.5960   83.2880 C.ar  235  TRP235      0.0015
     55  N        129.3440   40.0020   86.9000 N.am  236  LEU236     -0.1980
     56  CA       129.3190   38.6590   87.4260 C.3   236  LEU236      0.1596
     57  C        127.9070   38.2310   87.8160 C.2   236  LEU236      0.2287
     58  O        127.3250   38.7100   88.7860 O.2   236  LEU236     -0.2864
     59  CB       130.2530   38.5530   88.6200 C.3   236  LEU236      0.0297
     60  CG       130.1160   39.6310   89.6810 C.3   236  LEU236      0.0022
     61  CD1      130.7550   39.1010   90.9300 C.3   236  LEU236      0.0001
     62  CD2      130.7530   40.9540   89.2430 C.3   236  LEU236      0.0001
     63  N        123.0200   42.3850   75.8600 N.3   247  GLU247     -0.1231
     64  CA       122.1730   43.5270   76.1560 C.3   247  GLU247      0.1699
     65  C        122.2790   44.5220   74.9990 C.2   247  GLU247      0.2592
     66  O        121.3430   44.7220   74.2200 O.2   247  GLU247     -0.2718
     67  CB       122.6580   44.1880   77.4600 C.3   247  GLU247      0.0402
     68  CG       123.0500   43.2180   78.5940 C.3   247  GLU247      0.1161
     69  CD       121.8600   42.6330   79.3630 C.2   247  GLU247      0.3649
     70  OE1      121.2410   43.3610   80.1840 O.co2 247  GLU247     -0.2457
     71  OE2      121.5420   41.4380   79.1460 O.co2 247  GLU247     -0.2457
     72  N        123.4670   45.1120   74.9090 N.am  248  ASP248     -0.1974
     73  CA       123.8480   46.1190   73.9220 C.3   248  ASP248      0.1709
     74  C        124.5150   45.4870   72.7040 C.2   248  ASP248      0.2293
     75  O        125.6880   45.7420   72.4300 O.2   248  ASP248     -0.2864
     76  CB       124.7940   47.0900   74.6180 C.3   248  ASP248      0.1436
     77  CG       124.4310   47.2730   76.1050 C.2   248  ASP248      0.3671
     78  OD1      123.2940   47.7070   76.3960 O.co2 248  ASP248     -0.2456
     79  OD2      125.2610   46.9610   76.9830 O.co2 248  ASP248     -0.2456
     80  N        130.1290   45.7010   82.7210 N.3   256  ARG256     -0.1231
     81  CA       128.9060   46.0090   83.4970 C.3   256  ARG256      0.1694
     82  C        128.3180   47.4380   83.5220 C.2   256  ARG256      0.2592
     83  O        128.0160   47.9640   84.5970 O.2   256  ARG256     -0.2718
     84  CB       129.0960   45.5360   84.9500 C.3   256  ARG256      0.0321
     85  CG       127.8010   45.4590   85.7890 C.3   256  ARG256      0.0489
     86  CD       128.0590   44.7670   87.1350 C.3   256  ARG256      0.2205
     87  NE       126.8580   44.3900   87.8860 N.pl3 256  ARG256     -0.0865
     88  CZ       126.8860   43.7120   89.0350 C.cat 256  ARG256      0.5346
     89  NH1      125.7610   43.3950   89.6730 N.pl3 256  ARG256      0.1354
     90  NH2      128.0530   43.3480   89.5520 N.pl3 256  ARG256      0.1354
     91  N        128.1530   48.0640   82.3570 N.am  257  CYS257     -0.1956
     92  CA       128.5170   47.4690   81.0770 C.3   257  CYS257      0.1843
     93  C        129.3290   48.3760   80.1780 C.2   257  CYS257      0.2625
     94  O        130.1660   47.8990   79.4210 O.2   257  CYS257     -0.2714
     95  CB       127.2840   46.9900   80.3120 C.3   257  CYS257      0.0997
     96  SG       126.7460   45.3170   80.7720 S.3   257  CYS257     -0.0797
     97  N        129.0770   49.6760   80.2190 N.am  258  HIS258     -0.1973
     98  CA       129.8690   50.5830   79.3970 C.3   258  HIS258      0.1656
     99  C        129.6230   52.0070   79.7890 C.2   258  HIS258      0.2291
    100  O        128.6660   52.3290   80.4940 O.2   258  HIS258     -0.2864
    101  CB       129.5690   50.4240   77.9060 C.3   258  HIS258      0.0771
    102  CG       128.2020   50.8750   77.5180 C.ar  258  HIS258      0.0820
    103  ND1      127.1060   50.0450   77.5730 N.ar  258  HIS258     -0.2267
    104  CD2      127.7380   52.0870   77.1380 C.ar  258  HIS258      0.1154
    105  CE1      126.0230   50.7260   77.2480 C.ar  258  HIS258      0.1986
    106  NE2      126.3780   51.9680   76.9810 N.ar  258  HIS258     -0.2212
    107  N        117.6090   47.8410   77.2830 N.3   281  THR281     -0.1203
    108  CA       118.7380   48.4990   77.9280 C.3   281  THR281      0.1994
    109  C        118.9940   49.8120   77.2030 C.2   281  THR281      0.2617
    110  O        118.0770   50.5960   76.9800 O.2   281  THR281     -0.2717
    111  CB       119.9710   47.6550   77.7680 C.3   281  THR281      0.1784
    112  OG1      120.3750   47.6950   76.3960 O.3   281  THR281     -0.2211
    113  CG2      119.6640   46.2160   78.1280 C.3   281  THR281      0.0376
    114  N        120.2430   50.0400   76.8160 N.am  282  ASP282     -0.1973
    115  CA       120.6000   51.2550   76.0970 C.3   282  ASP282      0.1709
    116  C        121.7190   50.9950   75.1000 C.2   282  ASP282      0.2293
    117  O        122.7130   51.7290   75.0540 O.2   282  ASP282     -0.2864
    118  CB       121.0430   52.3300   77.0750 C.3   282  ASP282      0.1436
    119  CG       122.2980   51.9430   77.8130 C.2   282  ASP282      0.3671
    120  OD1      123.0070   52.8560   78.2860 O.co2 282  ASP282     -0.2456
    121  OD2      122.5650   50.7210   77.9170 O.co2 282  ASP282     -0.2456
    122  N        127.5650   58.7850   75.6210 N.3   288  MET288     -0.1196
    123  CA       126.9260   59.1240   76.8800 C.3   288  MET288      0.1786
    124  C        127.5720   60.3620   77.5250 C.2   288  MET288      0.2306
    125  O        126.8820   61.3430   77.7990 O.2   288  MET288     -0.2863
    126  CB       127.0010   57.8980   77.8110 C.2   288  MET288      0.0070
    127  CG       126.0310   57.9200   78.9840 C.2   288  MET288      0.0282
    128  SD       125.7030   56.2820   79.7570 S.3   288  MET288     -0.1125
    129  CE       127.3070   55.7750   80.2640 C.3   288  MET288      0.0742
    130  N        123.1910   58.5020   77.7130 N.3   293  SER293     -0.1217
    131  CA       122.8510   57.1160   77.4240 C.3   293  SER293      0.1889
    132  C        121.8150   56.8900   76.3220 C.2   293  SER293      0.2288
    133  O        121.7290   55.7900   75.7830 O.2   293  SER293     -0.2866
    134  CB       122.4240   56.3980   78.7160 C.3   293  SER293      0.2089
    135  OG       121.5250   57.1640   79.4980 O.3   293  SER293     -0.2183
@<TRIPOS>BOND
     1    75    74    2
     2    74    73    1
     3    73    76    1
     4    73    72    1
     5    66    65    2
     6    76    77    1
     7    72    65   am
     8    65    64    1
     9   117   116    2
    10   116   115    1
    11   122   123    1
    12   133   132    2
    13    63    64    1
    14   115   114    1
    15   115   118    1
    16    77    78   ar
    17    77    79   ar
    18    64    67    1
    19   132   131    1
    20   112   111    1
    21   114   109   am
    22   123   124    1
    23   123   126    1
    24   110   109    2
    25   106   104   ar
    26   106   105   ar
    27   118   119    1
    28   104   102   ar
    29   109   108    1
    30   105   103   ar
    31   107   108    1
    32   131   130    1
    33   131   134    1
    34    67    68    1
    35   102   103   ar
    36   102   101    1
    37   124   125    2
    38   111   108    1
    39   111   113    1
    40   126   127    2
    41   119   121   ar
    42   119   120   ar
    43   101    98    1
    44    68    69    1
    45   134   135    1
    46   127   128    1
    47    71    69   ar
    48    69    70   ar
    49    98    99    1
    50    98    97    1
    51    94    93    2
    52   128   129    1
    53    99   100    2
    54    93    97   am
    55    93    92    1
    56    95    96    1
    57    95    92    1
    58    92    91    1
    59    37    36    2
    60    53    51   ar
    61    53    54   ar
    62    91    82   am
    63    51    48   ar
    64    80    81    1
    65    36    35    1
    66    54    52   ar
    67    81    82    1
    68    81    84    1
    69    82    83    2
    70    38    39    1
    71    38    35    1
    72    38    40    1
    73    35    34    1
    74    48    46   ar
    75    48    50   ar
    76    45    46    1
    77    45    42    1
    78    52    50   ar
    79    41    42    1
    80    46    47   ar
    81    44    43    2
    82     7     6    1
    83    84    85    1
    84    50    49   ar
    85    42    43    1
    86    29    28    2
    87    34    28   am
    88    43    55   am
    89    85    86    1
    90    28    27    1
    91    47    49   ar
    92     8     6    1
    93     6     5    1
    94     1     2    1
    95    55    56    1
    96    86    87    1
    97     5     2    1
    98    56    57    1
    99    56    59    1
   100    31    32    1
   101    31    30    1
   102    27    26    1
   103    27    30    1
   104    21    20    2
   105     2     3    1
   106    57    58    2
   107    87    88    2
   108    32    33    1
   109    59    60    1
   110     4     3    2
   111    20    19    1
   112    88    90    1
   113    88    89    1
   114    62    60    1
   115    60    61    1
   116    24    23    2
   117    19    22    1
   118    19    18    1
   119    22    23    1
   120    23    25   am
   121    12    11    2
   122    18    11   am
   123    11    10    1
   124    10     9    1
   125    10    13    1
   126    13    14    1
   127    14    15    1
   128    16    15   ar
   129    15    17   ar
