@<TRIPOS>MOLECULE
tmp/3h33A02.pdb
 167 166 0 0 0
SMALL
GASTEIGER

@<TRIPOS>ATOM
      1  N         26.8120   15.7990   -6.9490 N.3     6  TYR6       -0.1228
      2  CA        27.7770   16.8850   -6.9400 C.3     6  TYR6        0.1721
      3  C         28.5390   16.8150   -8.2520 C.2     6  TYR6        0.2437
      4  O         29.3640   15.9250   -8.4470 O.2     6  TYR6       -0.2733
      5  CB        28.7640   16.7410   -5.7820 C.3     6  TYR6        0.0547
      6  CG        28.1410   16.8700   -4.4170 C.ar    6  TYR6       -0.0200
      7  CD1       27.3640   15.8460   -3.8850 C.ar    6  TYR6       -0.0009
      8  CD2       28.3060   18.0330   -3.6670 C.ar    6  TYR6       -0.0009
      9  CE1       26.7700   15.9730   -2.6390 C.ar    6  TYR6        0.0417
     10  CE2       27.7120   18.1730   -2.4200 C.ar    6  TYR6        0.0417
     11  CZ        26.9440   17.1400   -1.9130 C.ar    6  TYR6        0.1957
     12  OH        26.3420   17.2780   -0.6840 O.3     6  TYR6       -0.2866
     13  N         28.2520   17.7370   -9.1840 N.am    7  PRO7       -0.2718
     14  CA        28.9620   17.7160  -10.4630 C.3     7  PRO7        0.1535
     15  C         30.3570   18.3010  -10.2670 C.2     7  PRO7        0.2599
     16  O         30.5040   19.4310   -9.8080 O.2     7  PRO7       -0.2715
     17  CB        28.0750   18.5790  -11.3560 C.3     7  PRO7        0.0310
     18  CG        27.5840   19.6210  -10.4020 C.3     7  PRO7        0.0237
     19  CD        27.2320   18.8030   -9.1630 C.3     7  PRO7        0.0939
     20  N         31.3800   17.5190  -10.5860 N.am    8  THR8       -0.1937
     21  CA        32.7530   17.9800  -10.4360 C.3     8  THR8        0.2028
     22  C         33.5330   17.6610  -11.7010 C.2     8  THR8        0.2642
     23  O         33.2310   16.6890  -12.3950 O.2     8  THR8       -0.2714
     24  CB        33.4490   17.3080   -9.2250 C.3     8  THR8        0.1808
     25  OG1       33.4370   15.8860   -9.3910 O.3     8  THR8       -0.2208
     26  CG2       32.7310   17.6560   -7.9320 C.3     8  THR8        0.0379
     27  N         34.5320   18.4880  -11.9970 N.am    9  ARG9       -0.1963
     28  CA        35.3630   18.3140  -13.1860 C.3     9  ARG9        0.1729
     29  C         35.8970   16.8900  -13.2870 C.2     9  ARG9        0.2616
     30  O         35.7630   16.2320  -14.3190 O.2     9  ARG9       -0.2715
     31  CB        36.5600   19.2680  -13.1490 C.3     9  ARG9        0.0348
     32  CG        36.3290   20.5650  -12.4000 C.3     9  ARG9        0.0492
     33  CD        36.3750   21.7660  -13.3220 C.3     9  ARG9        0.2205
     34  NE        36.4530   23.0160  -12.5700 N.pl3   9  ARG9       -0.0865
     35  CZ        36.5230   24.2220  -13.1250 C.cat   9  ARG9        0.5346
     36  NH1       36.5230   24.3480  -14.4470 N.pl3   9  ARG9        0.1354
     37  NH2       36.5980   25.3040  -12.3590 N.pl3   9  ARG9        0.1354
     38  N         36.5000   16.4290  -12.1970 N.am   10  ILE10      -0.1977
     39  CA        37.1040   15.1040  -12.1180 C.3    10  ILE10       0.1596
     40  C         36.1130   13.9350  -12.1890 C.2    10  ILE10       0.2287
     41  O         36.5160   12.7740  -12.2480 O.2    10  ILE10      -0.2864
     42  CB        37.9350   14.9920  -10.8150 C.3    10  ILE10       0.0276
     43  CG1       38.8870   13.8030  -10.8890 C.3    10  ILE10       0.0022
     44  CG2       37.0050   14.8480   -9.6140 C.3    10  ILE10       0.0022
     45  CD1       39.8570   13.7440   -9.7270 C.3    10  ILE10       0.0001
     46  N         29.9090   13.1290   -8.2850 N.3    13  VAL13      -0.1245
     47  CA        29.6970   12.2910   -7.1080 C.3    13  VAL13       0.1561
     48  C         28.2210   12.2690   -6.7340 C.2    13  VAL13       0.2260
     49  O         27.5940   13.3210   -6.5890 O.2    13  VAL13      -0.2867
     50  CB        30.4780   12.8260   -5.8910 C.3    13  VAL13       0.0252
     51  CG1       30.2440   11.9250   -4.6830 C.3    13  VAL13       0.0019
     52  CG2       31.9590   12.9170   -6.2190 C.3    13  VAL13       0.0019
     53  N         30.4600   23.6530    2.9610 N.3    41  PHE41      -0.1227
     54  CA        30.6700   22.3410    2.3620 C.3    41  PHE41       0.1736
     55  C         31.3770   22.4950    1.0240 C.2    41  PHE41       0.2595
     56  O         30.8520   23.1150    0.0950 O.2    41  PHE41      -0.2718
     57  CB        29.3510   21.5950    2.1470 C.3    41  PHE41       0.0547
     58  CG        29.5240   20.1100    2.0150 C.ar   41  PHE41      -0.0202
     59  CD1       29.6890   19.3140    3.1440 C.ar   41  PHE41      -0.0042
     60  CD2       29.5920   19.5110    0.7620 C.ar   41  PHE41      -0.0042
     61  CE1       29.9240   17.9380    3.0270 C.ar   41  PHE41      -0.0003
     62  CE2       29.8270   18.1390    0.6340 C.ar   41  PHE41      -0.0003
     63  CZ        29.9950   17.3530    1.7690 C.ar   41  PHE41      -0.0000
     64  N         32.5690   21.9180    0.9360 N.am   42  ASP42      -0.1960
     65  CA        33.3660   21.9930   -0.2790 C.3    42  ASP42       0.1840
     66  C         34.2640   20.7670   -0.4260 C.2    42  ASP42       0.2621
     67  O         34.1010   19.7750    0.2850 O.2    42  ASP42      -0.2715
     68  CB        34.2320   23.2570   -0.2560 C.3    42  ASP42       0.1450
     69  CG        35.0920   23.3540    0.9970 C.2    42  ASP42       0.3671
     70  OD1       35.2880   22.3250    1.6840 O.co2  42  ASP42      -0.2456
     71  OD2       35.5810   24.4640    1.2930 O.co2  42  ASP42      -0.2456
     72  N         35.2180   20.8580   -1.3480 N.am   43  LYS43      -0.1977
     73  CA        36.1610   19.7790   -1.6130 C.3    43  LYS43       0.1596
     74  C         36.8660   19.3020   -0.3480 C.2    43  LYS43       0.2287
     75  O         36.8460   18.1150   -0.0290 O.2    43  LYS43      -0.2864
     76  CB        37.2180   20.2400   -2.6220 C.3    43  LYS43       0.0298
     77  CG        38.2000   19.1420   -3.0240 C.3    43  LYS43       0.0038
     78  CD        39.4520   19.7040   -3.6870 C.3    43  LYS43       0.0206
     79  CE        40.3160   20.4510   -2.6770 C.3    43  LYS43       0.1093
     80  NZ        41.5450   21.0300   -3.2850 N.3    43  LYS43      -0.1314
     81  N         34.4820   17.5120    2.0110 N.3    46  ALA46      -0.1231
     82  CA        34.0950   16.2150    1.4610 C.3    46  ALA46       0.1694
     83  C         35.2130   15.1950    1.6130 C.2    46  ALA46       0.2592
     84  O         34.9640   14.0250    1.9030 O.2    46  ALA46      -0.2718
     85  CB        33.7320   16.3550   -0.0010 C.3    46  ALA46       0.0304
     86  N         36.4470   15.6390    1.4090 N.am   47  HIS47      -0.1976
     87  CA        37.5870   14.7380    1.5220 C.3    47  HIS47       0.1656
     88  C         37.9630   14.5210    2.9720 C.2    47  HIS47       0.2291
     89  O         38.7700   13.6520    3.2820 O.2    47  HIS47      -0.2864
     90  CB        38.7790   15.2930    0.7400 C.3    47  HIS47       0.0771
     91  CG        38.5550   15.3210   -0.7370 C.ar   47  HIS47       0.0820
     92  ND1       39.3710   15.9730   -1.6320 N.ar   47  HIS47      -0.2267
     93  CD2       37.5610   14.7720   -1.4800 C.ar   47  HIS47       0.1154
     94  CE1       38.8490   15.8060   -2.8550 C.ar   47  HIS47       0.1986
     95  NE2       37.7480   15.0810   -2.8130 N.ar   47  HIS47      -0.2212
     96  N         32.8340   13.6210    4.1660 N.3    51  CYS51      -0.1221
     97  CA        32.5460   12.3770    3.4550 C.3    51  CYS51       0.1808
     98  C         33.5660   11.2650    3.6740 C.2    51  CYS51       0.2601
     99  O         33.3390   10.3330    4.4540 O.2    51  CYS51      -0.2717
    100  CB        32.4460   12.6030    1.9370 C.3    51  CYS51       0.0970
    101  SG        31.1870   13.7870    1.3690 S.3    51  CYS51      -0.0800
    102  N         34.6810   11.3660    2.9600 N.am   52  LYS52      -0.1979
    103  CA        35.7230   10.3480    3.0050 C.3    52  LYS52       0.1596
    104  C         36.2480   10.0050    4.3920 C.2    52  LYS52       0.2287
    105  O         36.5640    8.8460    4.6630 O.2    52  LYS52      -0.2864
    106  CB        36.8940   10.7520    2.1020 C.3    52  LYS52       0.0298
    107  CG        37.8860    9.6170    1.8780 C.3    52  LYS52       0.0038
    108  CD        38.9930    9.9790    0.9030 C.3    52  LYS52       0.0206
    109  CE        40.0350   10.8790    1.5350 C.3    52  LYS52       0.1093
    110  NZ        41.2610   10.9640    0.6890 N.3    52  LYS52      -0.1314
    111  N         34.0490    7.3850    6.0660 N.3    55  HIS55      -0.1241
    112  CA        34.2080    6.0790    5.4350 C.3    55  HIS55       0.1621
    113  C         35.4860    5.3920    5.9150 C.2    55  HIS55       0.2264
    114  O         35.5110    4.1790    6.1070 O.2    55  HIS55      -0.2867
    115  CB        34.2340    6.2310    3.9170 C.3    55  HIS55       0.0745
    116  CG        32.9500    6.7420    3.3480 C.ar   55  HIS55       0.0817
    117  ND1       32.8260    7.2750    2.0860 N.ar   55  HIS55      -0.2268
    118  CD2       31.7070    6.7910    3.8930 C.ar   55  HIS55       0.1154
    119  CE1       31.5450    7.6230    1.9150 C.ar   55  HIS55       0.1986
    120  NE2       30.8240    7.3480    2.9850 N.ar   55  HIS55      -0.2212
    121  N         32.8670    4.4260    0.1040 N.3    62  PRO62      -0.2102
    122  CA        33.9940    4.6980   -0.7990 C.3    62  PRO62       0.1504
    123  C         35.0970    5.6010   -0.2460 C.2    62  PRO62       0.2576
    124  O         34.8180    6.6890    0.2680 O.2    62  PRO62      -0.2718
    125  CB        33.3040    5.3150   -2.0180 C.3    62  PRO62       0.0282
    126  CG        32.1690    6.0850   -1.3830 C.3    62  PRO62       0.0208
    127  CD        31.6370    5.0830   -0.3740 C.3    62  PRO62       0.0893
    128  N         36.3450    5.1390   -0.3590 N.am   63  VAL63      -0.1966
    129  CA        37.5060    5.9070    0.0900 C.3    63  VAL63       0.1727
    130  C         38.4560    6.1990   -1.0780 C.2    63  VAL63       0.2616
    131  O         39.2650    7.1170   -1.0090 O.2    63  VAL63      -0.2715
    132  CB        38.3010    5.1800    1.2090 C.3    63  VAL63       0.0290
    133  CG1       37.4200    5.0100    2.4520 C.3    63  VAL63       0.0023
    134  CG2       38.7950    3.8310    0.7120 C.3    63  VAL63       0.0023
    135  N         38.3540    5.4140   -2.1450 N.am   64  ARG64      -0.1963
    136  CA        39.1950    5.6070   -3.3230 C.3    64  ARG64       0.1729
    137  C         38.5360    6.6070   -4.2700 C.2    64  ARG64       0.2616
    138  O         37.3250    6.5480   -4.4940 O.2    64  ARG64      -0.2715
    139  CB        39.4040    4.2780   -4.0440 C.3    64  ARG64       0.0348
    140  CG        40.2440    3.2850   -3.2640 C.3    64  ARG64       0.0492
    141  CD        40.5370    2.0630   -4.1110 C.3    64  ARG64       0.2205
    142  NE        41.6370    1.2830   -3.5610 N.pl3  64  ARG64      -0.0865
    143  CZ        42.3200    0.3760   -4.2490 C.cat  64  ARG64       0.5346
    144  NH1       42.0120    0.1350   -5.5210 N.pl3  64  ARG64       0.1354
    145  NH2       43.3170   -0.2830   -3.6690 N.pl3  64  ARG64       0.1354
    146  N         39.3370    7.5150   -4.8270 N.am   65  CYS65      -0.1968
    147  CA        38.8340    8.5520   -5.7330 C.3    65  CYS65       0.1712
    148  C         37.7260    8.0850   -6.6620 C.2    65  CYS65       0.2296
    149  O         36.6220    8.6280   -6.6510 O.2    65  CYS65      -0.2864
    150  CB        39.9670    9.1140   -6.5910 C.3    65  CYS65       0.0983
    151  SG        41.4470    9.5910   -5.6620 S.3    65  CYS65      -0.0798
    152  N         33.9870    7.2540   -5.7600 N.3    68  CYS68      -0.1221
    153  CA        33.0940    8.3820   -5.5050 C.3    68  CYS68       0.1808
    154  C         32.9150    9.1570   -6.8010 C.2    68  CYS68       0.2601
    155  O         31.7960    9.4040   -7.2410 O.2    68  CYS68      -0.2717
    156  CB        33.6890    9.3350   -4.4760 C.3    68  CYS68       0.0970
    157  SG        33.0890    9.1150   -2.7780 S.3    68  CYS68      -0.0800
    158  N         34.0380    9.5490   -7.3960 N.am   69  HIS69      -0.1975
    159  CA        34.0350   10.3120   -8.6340 C.3    69  HIS69       0.1656
    160  C         33.9030    9.3870   -9.8380 C.2    69  HIS69       0.2291
    161  O         34.8080    8.6080  -10.1380 O.2    69  HIS69      -0.2864
    162  CB        35.3200   11.1310   -8.7360 C.3    69  HIS69       0.0771
    163  CG        35.4420   12.2010   -7.6920 C.ar   69  HIS69       0.0820
    164  ND1       34.6990   13.3620   -7.6860 N.ar   69  HIS69      -0.2267
    165  CD2       36.2640   12.2860   -6.6150 C.ar   69  HIS69       0.1154
    166  CE1       35.0930   14.1000   -6.6370 C.ar   69  HIS69       0.1986
    167  NE2       36.0390   13.4900   -5.9510 N.ar   69  HIS69      -0.2212
@<TRIPOS>BOND
     1    36    35    1
     2    30    29    2
     3    33    34    1
     4    33    32    1
     5    29    28    1
     6    29    38   am
     7    28    31    1
     8    28    27    1
     9    31    32    1
    10    35    34    2
    11    35    37    1
    12    23    22    2
    13    41    40    2
    14    38    39    1
    15    40    39    1
    16    39    42    1
    17    27    22   am
    18    22    21    1
    19    17    14    1
    20    17    18    1
    21    43    42    1
    22    43    45    1
    23    42    44    1
    24    20    21    1
    25    20    15   am
    26    14    15    1
    27    14    13    1
    28    21    24    1
    29    18    19    1
    30    15    16    2
    31   161   160    2
    32   160   159    1
    33    25    24    1
    34    24    26    1
    35    13    19    1
    36    13     3   am
    37   162   159    1
    38   162   163    1
    39   159   158    1
    40     4     3    2
    41    46    47    1
    42     3     2    1
    43   163   164   ar
    44   163   165   ar
    45   164   166   ar
    46   158   154   am
    47   155   154    2
    48    47    48    1
    49    47    50    1
    50     1     2    1
    51     2     5    1
    52   154   153    1
    53    48    49    2
    54   148   149    2
    55   148   147    1
    56   166   167   ar
    57   165   167   ar
    58   150   147    1
    59   150   151    1
    60    52    50    1
    61    50    51    1
    62     5     6    1
    63   152   153    1
    64   147   146    1
    65   144   143    1
    66   153   156    1
    67   146   137   am
    68   138   137    2
    69   156   157    1
    70     6     7   ar
    71     6     8   ar
    72   137   136    1
    73   143   145    1
    74   143   142    2
    75   141   142    1
    76   141   140    1
    77   139   136    1
    78   139   140    1
    79     7     9   ar
    80    78    77    1
    81    78    79    1
    82     8    10   ar
    83   136   135    1
    84    80    79    1
    85    77    76    1
    86    94    95   ar
    87    94    92   ar
    88    95    93   ar
    89     9    11   ar
    90    76    73    1
    91    10    11   ar
    92   135   130   am
    93   125   126    1
    94   125   122    1
    95    11    12    1
    96    92    91   ar
    97    73    72    1
    98    73    74    1
    99    93    91   ar
   100   126   127    1
   101    72    66   am
   102   130   131    2
   103   130   129    1
   104   122   123    1
   105   122   121    1
   106    91    90    1
   107    66    65    1
   108    66    67    2
   109   127   121    1
   110   128   123   am
   111   128   129    1
   112    74    75    2
   113    65    68    1
   114    65    64    1
   115    68    69    1
   116   123   124    2
   117    85    82    1
   118   129   132    1
   119    56    55    2
   120    62    60   ar
   121    62    63   ar
   122   110   109    1
   123   134   132    1
   124    90    87    1
   125    60    58   ar
   126   108   109    1
   127   108   107    1
   128    64    55   am
   129    69    71   ar
   130    69    70   ar
   131    55    54    1
   132   132   133    1
   133   101   100    1
   134    86    87    1
   135    86    83   am
   136    82    83    1
   137    82    81    1
   138    87    88    1
   139    83    84    2
   140    63    61   ar
   141   107   106    1
   142   119   117   ar
   143   119   120   ar
   144   100    97    1
   145    58    57    1
   146    58    59   ar
   147   117   116   ar
   148   106   103    1
   149    57    54    1
   150    54    53    1
   151   102   103    1
   152   102    98   am
   153    88    89    2
   154   120   118   ar
   155   103   104    1
   156    61    59   ar
   157   116   118   ar
   158   116   115    1
   159    97    98    1
   160    97    96    1
   161    98    99    2
   162   115   112    1
   163   104   105    2
   164   112   113    1
   165   112   111    1
   166   113   114    2
