@<TRIPOS>MOLECULE
tmp/3h33A00.pdb
 164 158 0 0 0
SMALL
GASTEIGER

@<TRIPOS>ATOM
      1  N         13.4330   13.7790   -2.0050 N.3     1  ILE1       -0.1245
      2  CA        14.8580   13.8550   -2.4290 C.3     1  ILE1        0.1561
      3  C         15.7030   12.8650   -1.6310 C.2     1  ILE1        0.2260
      4  O         15.8490   12.9950   -0.4150 O.2     1  ILE1       -0.2867
      5  CB        15.3860   15.2970   -2.2660 C.3     1  ILE1        0.0252
      6  CG1       15.1630   16.0710   -3.5710 C.3     1  ILE1        0.0019
      7  CG2       16.8620   15.2960   -1.9170 C.3     1  ILE1        0.0019
      8  CD1       13.7660   15.9110   -4.1930 C.3     1  ILE1        0.0001
      9  N         21.7740   13.1640   -3.8700 N.3     4  ILE4       -0.1245
     10  CA        22.3190   14.4890   -4.0940 C.3     4  ILE4        0.1561
     11  C         23.5610   14.3270   -4.9500 C.2     4  ILE4        0.2260
     12  O         24.5380   13.6980   -4.5410 O.2     4  ILE4       -0.2867
     13  CB        22.6970   15.1660   -2.7700 C.3     4  ILE4        0.0252
     14  CG1       21.4780   15.2030   -1.8470 C.3     4  ILE4        0.0019
     15  CG2       23.2200   16.5690   -3.0350 C.3     4  ILE4        0.0019
     16  CD1       21.7240   15.9200   -0.5410 C.3     4  ILE4        0.0001
     17  N         26.8120   15.7990   -6.9490 N.3     6  TYR6       -0.1241
     18  CA        27.7770   16.8850   -6.9400 C.3     6  TYR6        0.1605
     19  C         28.5390   16.8150   -8.2520 C.2     6  TYR6        0.2264
     20  O         29.3640   15.9250   -8.4470 O.2     6  TYR6       -0.2867
     21  CB        28.7640   16.7410   -5.7820 C.3     6  TYR6        0.0534
     22  CG        28.1410   16.8700   -4.4170 C.ar    6  TYR6       -0.0201
     23  CD1       27.3640   15.8460   -3.8850 C.ar    6  TYR6       -0.0009
     24  CD2       28.3060   18.0330   -3.6670 C.ar    6  TYR6       -0.0009
     25  CE1       26.7700   15.9730   -2.6390 C.ar    6  TYR6        0.0417
     26  CE2       27.7120   18.1730   -2.4200 C.ar    6  TYR6        0.0417
     27  CZ        26.9440   17.1400   -1.9130 C.ar    6  TYR6        0.1957
     28  OH        26.3420   17.2780   -0.6840 O.3     6  TYR6       -0.2866
     29  N         25.6010   11.3310   -3.9030 N.3    15  PHE15      -0.1241
     30  CA        25.4540   11.0720   -2.4720 C.3    15  PHE15       0.1605
     31  C         24.0750   10.5120   -2.1700 C.2    15  PHE15       0.2264
     32  O         23.0810   11.2360   -2.2220 O.2    15  PHE15      -0.2867
     33  CB        25.6670   12.3740   -1.6920 C.3    15  PHE15       0.0534
     34  CG        25.3980   12.2660   -0.2080 C.ar   15  PHE15      -0.0203
     35  CD1       25.9610   11.2470    0.5530 C.ar   15  PHE15      -0.0042
     36  CD2       24.6300   13.2290    0.4400 C.ar   15  PHE15      -0.0042
     37  CE1       25.7680   11.1900    1.9380 C.ar   15  PHE15      -0.0003
     38  CE2       24.4300   13.1820    1.8190 C.ar   15  PHE15      -0.0003
     39  CZ        25.0030   12.1590    2.5710 C.ar   15  PHE15      -0.0000
     40  N         21.6780   10.1260   -0.0070 N.3    17  HIS17      -0.1241
     41  CA        21.2650   10.6660    1.2790 C.3    17  HIS17       0.1621
     42  C         20.3420    9.7890    2.1110 C.2    17  HIS17       0.2264
     43  O         20.5730    9.6270    3.3110 O.2    17  HIS17      -0.2867
     44  CB        20.6420   12.0500    1.0810 C.3    17  HIS17       0.0745
     45  CG        20.4500   12.8190    2.3520 C.ar   17  HIS17       0.0817
     46  ND1       19.3840   12.6480    3.2060 N.ar   17  HIS17      -0.2268
     47  CD2       21.2160   13.7910    2.9130 C.ar   17  HIS17       0.1154
     48  CE1       19.5270   13.5040    4.2290 C.ar   17  HIS17       0.1986
     49  NE2       20.6250   14.2220    4.1030 N.ar   17  HIS17      -0.2212
     50  N         22.1530    6.9630    3.7910 N.3    20  HIS20      -0.1226
     51  CA        22.8950    7.4270    4.9480 C.3    20  HIS20       0.1752
     52  C         22.0380    7.6780    6.1740 C.2    20  HIS20       0.2595
     53  O         22.4370    7.3360    7.2860 O.2    20  HIS20      -0.2718
     54  CB        23.6850    8.6950    4.6090 C.3    20  HIS20       0.0759
     55  CG        24.8670    8.4410    3.7270 C.ar   20  HIS20       0.0818
     56  ND1       24.7800    8.0700    2.4050 N.ar   20  HIS20      -0.2268
     57  CD2       26.1910    8.4410    4.0210 C.ar   20  HIS20       0.1154
     58  CE1       26.0240    7.8560    1.9550 C.ar   20  HIS20       0.1986
     59  NE2       26.9160    8.0700    2.9030 N.ar   20  HIS20      -0.2212
     60  N         20.8670    8.2800    6.0030 N.am   21  GLN21      -0.1979
     61  CA        20.0590    8.5340    7.1850 C.3    21  GLN21       0.1601
     62  C         19.5260    7.2230    7.7550 C.2    21  GLN21       0.2287
     63  O         19.3750    7.0940    8.9660 O.2    21  GLN21      -0.2864
     64  CB        18.9240    9.5290    6.8970 C.3    21  GLN21       0.0394
     65  CG        17.8750    9.1040    5.9020 C.3    21  GLN21       0.0908
     66  CD        16.9110   10.2460    5.5870 C.2    21  GLN21       0.2608
     67  OE1       17.2980   11.2530    4.9920 O.2    21  GLN21      -0.2717
     68  NE2       15.6550   10.0960    5.9990 N.am   21  GLN21      -0.0878
     69  N         22.7600    5.4460    9.4850 N.3    24  LEU24      -0.1245
     70  CA        23.2070    6.0630   10.7240 C.3    24  LEU24       0.1561
     71  C         22.0940    6.3410   11.7230 C.2    24  LEU24       0.2260
     72  O         22.3610    6.5380   12.9080 O.2    24  LEU24      -0.2867
     73  CB        23.9620    7.3520   10.4030 C.3    24  LEU24       0.0270
     74  CG        25.1200    7.1090    9.4250 C.3    24  LEU24       0.0019
     75  CD1       25.7860    8.4230    9.0700 C.3    24  LEU24       0.0001
     76  CD2       26.1280    6.1390   10.0510 C.3    24  LEU24       0.0001
     77  N         20.3660    8.9050   12.4110 N.3    26  GLU26      -0.1231
     78  CA        20.5510   10.1490   13.1510 C.3    26  GLU26       0.1699
     79  C         20.8720   11.2930   12.1830 C.2    26  GLU26       0.2592
     80  O         21.4030   11.0530   11.1010 O.2    26  GLU26      -0.2718
     81  CB        21.6860    9.9390   14.1560 C.3    26  GLU26       0.0402
     82  CG        22.2440   11.1820   14.7990 C.3    26  GLU26       0.1161
     83  CD        23.3960   10.8550   15.7310 C.2    26  GLU26       0.3649
     84  OE1       24.2500   10.0220   15.3470 O.co2  26  GLU26      -0.2457
     85  OE2       23.4530   11.4320   16.8400 O.co2  26  GLU26      -0.2457
     86  N         20.5510   12.5260   12.5760 N.am   27  CYS27      -0.1970
     87  CA        20.7900   13.7010   11.7350 C.3    27  CYS27       0.1712
     88  C         21.9060   14.6210   12.2320 C.2    27  CYS27       0.2296
     89  O         22.7620   15.0510   11.4520 O.2    27  CYS27      -0.2864
     90  CB        19.5060   14.5330   11.6050 C.3    27  CYS27       0.0983
     91  SG        18.0350   13.6080   11.0620 S.3    27  CYS27      -0.0798
     92  N         25.8790   14.4980   11.1640 N.3    30  CYS30      -0.1221
     93  CA        26.3450   15.1790    9.9570 C.3    30  CYS30       0.1808
     94  C         25.8960   16.6260    9.9110 C.2    30  CYS30       0.2601
     95  O         26.5680   17.4760    9.3300 O.2    30  CYS30      -0.2717
     96  CB        25.8260   14.4710    8.7130 C.3    30  CYS30       0.0970
     97  SG        26.3860   12.7540    8.5410 S.3    30  CYS30      -0.0800
     98  N         24.7490   16.9020   10.5150 N.am   31  HIS31      -0.1975
     99  CA        24.2040   18.2520   10.5350 C.3    31  HIS31       0.1656
    100  C         24.3700   18.8670   11.9290 C.2    31  HIS31       0.2291
    101  O         23.4100   18.9740   12.6910 O.2    31  HIS31      -0.2864
    102  CB        22.7230   18.2130   10.1490 C.3    31  HIS31       0.0771
    103  CG        22.4720   17.8480    8.7160 C.ar   31  HIS31       0.0820
    104  ND1       22.5900   18.7260    7.6590 N.ar   31  HIS31      -0.2267
    105  CD2       22.0600   16.6740    8.1720 C.ar   31  HIS31       0.1154
    106  CE1       22.2440   18.0750    6.5400 C.ar   31  HIS31       0.1986
    107  NE2       21.9140   16.8250    6.7950 N.ar   31  HIS31      -0.2212
    108  N         19.6050   19.9900   10.8560 N.3    35  PRO35      -0.2102
    109  CA        19.2980   19.5730    9.4860 C.3    35  PRO35       0.1504
    110  C         19.0890   20.7360    8.5280 C.2    35  PRO35       0.2576
    111  O         18.3340   21.6630    8.8140 O.2    35  PRO35      -0.2718
    112  CB        18.0430   18.7300    9.6660 C.3    35  PRO35       0.0282
    113  CG        18.3190   18.0440   10.9680 C.3    35  PRO35       0.0208
    114  CD        18.8400   19.1820   11.8250 C.3    35  PRO35       0.0893
    115  N         19.7700   20.6660    7.3900 N.am   36  GLY36      -0.1943
    116  CA        19.6810   21.7050    6.3830 C.3    36  GLY36       0.2014
    117  C         21.0080   21.8000    5.6520 C.2    36  GLY36       0.2639
    118  O         21.7990   20.8580    5.6630 O.2    36  GLY36      -0.2714
    119  N         21.2540   22.9390    5.0190 N.am   37  ARG37      -0.1963
    120  CA        22.4960   23.1670    4.2970 C.3    37  ARG37       0.1729
    121  C         23.6540   23.0490    5.2830 C.2    37  ARG37       0.2616
    122  O         23.5140   23.3950    6.4540 O.2    37  ARG37      -0.2715
    123  CB        22.4760   24.5750    3.6960 C.3    37  ARG37       0.0348
    124  CG        23.3100   24.7910    2.4470 C.3    37  ARG37       0.0492
    125  CD        22.9120   26.1300    1.8320 C.3    37  ARG37       0.2205
    126  NE        23.2120   26.2310    0.4080 N.pl3  37  ARG37      -0.0865
    127  CZ        24.2450   26.8910   -0.0990 C.cat  37  ARG37       0.5346
    128  NH1       24.4300   26.9250   -1.4110 N.pl3  37  ARG37       0.1354
    129  NH2       25.0880   27.5230    0.7020 N.pl3  37  ARG37       0.1354
    130  N         24.7880   22.5350    4.8220 N.am   38  ILE38      -0.1977
    131  CA        25.9580   22.4280    5.6830 C.3    38  ILE38       0.1596
    132  C         26.8740   23.5590    5.2310 C.2    38  ILE38       0.2287
    133  O         27.4100   23.5340    4.1210 O.2    38  ILE38      -0.2864
    134  CB        26.6660   21.0640    5.5250 C.3    38  ILE38       0.0276
    135  CG1       25.7310   19.9470    5.9990 C.3    38  ILE38       0.0022
    136  CG2       27.9670   21.0490    6.3310 C.3    38  ILE38       0.0022
    137  CD1       26.2960   18.5570    5.8380 C.3    38  ILE38       0.0001
    138  N         30.4600   23.6530    2.9610 N.3    41  PHE41      -0.1241
    139  CA        30.6700   22.3410    2.3620 C.3    41  PHE41       0.1605
    140  C         31.3770   22.4950    1.0240 C.2    41  PHE41       0.2264
    141  O         30.8520   23.1150    0.0950 O.2    41  PHE41      -0.2867
    142  CB        29.3510   21.5950    2.1470 C.3    41  PHE41       0.0534
    143  CG        29.5240   20.1100    2.0150 C.ar   41  PHE41      -0.0203
    144  CD1       29.6890   19.3140    3.1440 C.ar   41  PHE41      -0.0042
    145  CD2       29.5920   19.5110    0.7620 C.ar   41  PHE41      -0.0042
    146  CE1       29.9240   17.9380    3.0270 C.ar   41  PHE41      -0.0003
    147  CE2       29.8270   18.1390    0.6340 C.ar   41  PHE41      -0.0003
    148  CZ        29.9950   17.3530    1.7690 C.ar   41  PHE41      -0.0000
    149  N         33.4840   15.5390    6.1540 N.3    50  GLY50      -0.1210
    150  CA        32.2440   15.6390    5.4010 C.3    50  GLY50       0.1956
    151  C         31.8500   14.3610    4.6770 C.2    50  GLY50       0.2612
    152  O         30.6600   14.0490    4.5740 O.2    50  GLY50      -0.2717
    153  N         32.8340   13.6210    4.1660 N.am   51  CYS51      -0.1970
    154  CA        32.5460   12.3770    3.4550 C.3    51  CYS51       0.1712
    155  C         33.5660   11.2650    3.6740 C.2    51  CYS51       0.2296
    156  O         33.3390   10.3330    4.4540 O.2    51  CYS51      -0.2864
    157  CB        32.4460   12.6030    1.9370 C.3    51  CYS51       0.0983
    158  SG        31.1870   13.7870    1.3690 S.3    51  CYS51      -0.0798
    159  N         34.7120    9.8560    7.2600 N.3    54  CYS54      -0.1235
    160  CA        33.8640    8.9030    7.9580 C.3    54  CYS54       0.1677
    161  C         34.0260    7.5000    7.3910 C.2    54  CYS54       0.2270
    162  O         34.1320    6.5340    8.1440 O.2    54  CYS54      -0.2867
    163  CB        32.3980    9.3130    7.8870 C.3    54  CYS54       0.0956
    164  SG        31.3080    8.0330    8.5900 S.3    54  CYS54      -0.0801
@<TRIPOS>BOND
     1    20    19    2
     2    19    18    1
     3    17    18    1
     4    18    21    1
     5    21    22    1
     6    11    12    2
     7    11    10    1
     8    22    23   ar
     9    22    24   ar
    10     8     6    1
    11    10     9    1
    12    10    13    1
    13    29    30    1
    14    23    25   ar
    15    24    26   ar
    16     6     5    1
    17    15    13    1
    18    13    14    1
    19    25    27   ar
    20    30    31    1
    21    30    33    1
    22     2     5    1
    23     2     1    1
    24     2     3    1
    25    26    27   ar
    26     5     7    1
    27    32    31    2
    28    27    28    1
    29    14    16    1
    30    33    34    1
    31     3     4    2
    32   128   127    1
    33    34    36   ar
    34    34    35   ar
    35   127   126    2
    36   127   129    1
    37    40    41    1
    38   141   140    2
    39   126   125    1
    40    36    38   ar
    41    35    37   ar
    42   147   145   ar
    43   147   148   ar
    44   145   143   ar
    45   140   139    1
    46    44    41    1
    47    44    45    1
    48    41    42    1
    49   158   157    1
    50   148   146   ar
    51    38    39   ar
    52   125   124    1
    53   157   154    1
    54    37    39   ar
    55    58    56   ar
    56    58    59   ar
    57   143   142    1
    58   143   144   ar
    59    42    43    2
    60   142   139    1
    61    45    47   ar
    62    45    46   ar
    63   139   138    1
    64    56    55   ar
    65   124   123    1
    66    59    57   ar
    67    47    49   ar
    68   146   144   ar
    69    46    48   ar
    70   154   155    1
    71   154   153    1
    72   155   156    2
    73   123   120    1
    74    55    57   ar
    75    55    54    1
    76    50    51    1
    77    49    48   ar
    78   133   132    2
    79   153   151   am
    80   120   119    1
    81   120   121    1
    82   152   151    2
    83    54    51    1
    84   151   150    1
    85   130   121   am
    86   130   131    1
    87    51    52    1
    88    67    66    2
    89   119   117   am
    90   132   131    1
    91   121   122    2
    92   150   149    1
    93   134   131    1
    94   134   135    1
    95   134   136    1
    96    66    65    1
    97    66    68   am
    98   117   118    2
    99   117   116    1
   100   137   135    1
   101    65    64    1
   102    60    52   am
   103    60    61    1
   104    52    53    2
   105   116   115    1
   106   106   107   ar
   107   106   104   ar
   108   107   105   ar
   109    64    61    1
   110    61    62    1
   111   159   160    1
   112   115   110   am
   113   161   160    1
   114   161   162    2
   115   104   103   ar
   116    62    63    2
   117   163   160    1
   118   163   164    1
   119   105   103   ar
   120   110   111    2
   121   110   109    1
   122    97    96    1
   123    96    93    1
   124   103   102    1
   125    75    74    1
   126    95    94    2
   127    74    76    1
   128    74    73    1
   129    69    70    1
   130   109   112    1
   131   109   108    1
   132   112   113    1
   133    94    93    1
   134    94    98   am
   135    93    92    1
   136   102    99    1
   137    73    70    1
   138    98    99    1
   139    99   100    1
   140    70    71    1
   141   108   114    1
   142   113   114    1
   143    91    90    1
   144    80    79    2
   145    89    88    2
   146    90    87    1
   147    71    72    2
   148    87    88    1
   149    87    86    1
   150   100   101    2
   151    79    86   am
   152    79    78    1
   153    77    78    1
   154    78    81    1
   155    81    82    1
   156    82    83    1
   157    84    83   ar
   158    83    85   ar
