@<TRIPOS>MOLECULE
tmp/3h33A01.pdb
 173 169 0 0 0
SMALL
GASTEIGER

@<TRIPOS>ATOM
      1  N         26.8120   15.7990   -6.9490 N.3     6  TYR6       -0.1241
      2  CA        27.7770   16.8850   -6.9400 C.3     6  TYR6        0.1605
      3  C         28.5390   16.8150   -8.2520 C.2     6  TYR6        0.2264
      4  O         29.3640   15.9250   -8.4470 O.2     6  TYR6       -0.2867
      5  CB        28.7640   16.7410   -5.7820 C.3     6  TYR6        0.0534
      6  CG        28.1410   16.8700   -4.4170 C.ar    6  TYR6       -0.0201
      7  CD1       27.3640   15.8460   -3.8850 C.ar    6  TYR6       -0.0009
      8  CD2       28.3060   18.0330   -3.6670 C.ar    6  TYR6       -0.0009
      9  CE1       26.7700   15.9730   -2.6390 C.ar    6  TYR6        0.0417
     10  CE2       27.7120   18.1730   -2.4200 C.ar    6  TYR6        0.0417
     11  CZ        26.9440   17.1400   -1.9130 C.ar    6  TYR6        0.1957
     12  OH        26.3420   17.2780   -0.6840 O.3     6  TYR6       -0.2866
     13  N         29.9090   13.1290   -8.2850 N.3    13  VAL13      -0.1231
     14  CA        29.6970   12.2910   -7.1080 C.3    13  VAL13       0.1692
     15  C         28.2210   12.2690   -6.7340 C.2    13  VAL13       0.2592
     16  O         27.5940   13.3210   -6.5890 O.2    13  VAL13      -0.2718
     17  CB        30.4780   12.8260   -5.8910 C.3    13  VAL13       0.0266
     18  CG1       30.2440   11.9250   -4.6830 C.3    13  VAL13       0.0020
     19  CG2       31.9590   12.9170   -6.2190 C.3    13  VAL13       0.0020
     20  N         27.6690   11.0700   -6.5830 N.am   14  VAL14      -0.1966
     21  CA        26.2700   10.9190   -6.2010 C.3    14  VAL14       0.1727
     22  C         26.1840   10.4760   -4.7370 C.2    14  VAL14       0.2616
     23  O         26.6400    9.3900   -4.3790 O.2    14  VAL14      -0.2715
     24  CB        25.5490    9.8840   -7.0930 C.3    14  VAL14       0.0290
     25  CG1       24.1250    9.6680   -6.5900 C.3    14  VAL14       0.0023
     26  CG2       25.5140   10.3820   -8.5420 C.3    14  VAL14       0.0023
     27  N         25.6010   11.3310   -3.9030 N.am   15  PHE15      -0.1960
     28  CA        25.4540   11.0720   -2.4720 C.3    15  PHE15       0.1756
     29  C         24.0750   10.5120   -2.1700 C.2    15  PHE15       0.2461
     30  O         23.0810   11.2360   -2.2220 O.2    15  PHE15      -0.2730
     31  CB        25.6670   12.3740   -1.6920 C.3    15  PHE15       0.0574
     32  CG        25.3980   12.2660   -0.2080 C.ar   15  PHE15      -0.0200
     33  CD1       25.9610   11.2470    0.5530 C.ar   15  PHE15      -0.0042
     34  CD2       24.6300   13.2290    0.4400 C.ar   15  PHE15      -0.0042
     35  CE1       25.7680   11.1900    1.9380 C.ar   15  PHE15      -0.0003
     36  CE2       24.4300   13.1820    1.8190 C.ar   15  PHE15      -0.0003
     37  CZ        25.0030   12.1590    2.5710 C.ar   15  PHE15      -0.0000
     38  N         23.9940    9.2100   -1.8570 N.am   16  PRO16      -0.2727
     39  CA        22.7050    8.5800   -1.5500 C.3    16  PRO16       0.1402
     40  C         22.2970    8.9580   -0.1290 C.2    16  PRO16       0.2269
     41  O         22.5360    8.2190    0.8230 O.2    16  PRO16      -0.2865
     42  CB        23.0080    7.0970   -1.7190 C.3    16  PRO16       0.0296
     43  CG        24.4300    7.0020   -1.2140 C.3    16  PRO16       0.0237
     44  CD        25.0930    8.2260   -1.8290 C.3    16  PRO16       0.0939
     45  N         20.0270    6.5720    2.0600 N.3    19  LYS19      -0.1231
     46  CA        20.7910    5.4220    2.5260 C.3    19  LYS19       0.1693
     47  C         21.5240    5.7950    3.8060 C.2    19  LYS19       0.2592
     48  O         21.5230    5.0460    4.7800 O.2    19  LYS19      -0.2718
     49  CB        21.8270    4.9950    1.4960 C.3    19  LYS19       0.0285
     50  CG        21.3660    3.9410    0.5450 C.3    19  LYS19       0.0035
     51  CD        22.5570    3.4230   -0.2300 C.3    19  LYS19       0.0206
     52  CE        22.1600    2.3400   -1.1980 C.3    19  LYS19       0.1093
     53  NZ        23.3470    1.9540   -2.0010 N.3    19  LYS19      -0.1314
     54  N         22.1530    6.9630    3.7910 N.am   20  HIS20      -0.1976
     55  CA        22.8950    7.4270    4.9480 C.3    20  HIS20       0.1656
     56  C         22.0380    7.6780    6.1740 C.2    20  HIS20       0.2291
     57  O         22.4370    7.3360    7.2860 O.2    20  HIS20      -0.2864
     58  CB        23.6850    8.6950    4.6090 C.3    20  HIS20       0.0771
     59  CG        24.8670    8.4410    3.7270 C.ar   20  HIS20       0.0820
     60  ND1       24.7800    8.0700    2.4050 N.ar   20  HIS20      -0.2267
     61  CD2       26.1910    8.4410    4.0210 C.ar   20  HIS20       0.1154
     62  CE1       26.0240    7.8560    1.9550 C.ar   20  HIS20       0.1986
     63  NE2       26.9160    8.0700    2.9030 N.ar   20  HIS20      -0.2212
     64  N         21.1370    4.3060    7.4590 N.3    23  ALA23      -0.1231
     65  CA        22.2910    3.5920    7.9840 C.3    23  ALA23       0.1694
     66  C         22.7510    4.1270    9.3330 C.2    23  ALA23       0.2591
     67  O         23.0760    3.3530   10.2270 O.2    23  ALA23      -0.2718
     68  CB        23.4400    3.6440    6.9790 C.3    23  ALA23       0.0304
     69  N         22.7600    5.4460    9.4850 N.am   24  LEU24      -0.1980
     70  CA        23.2070    6.0630   10.7240 C.3    24  LEU24       0.1596
     71  C         22.0940    6.3410   11.7230 C.2    24  LEU24       0.2287
     72  O         22.3610    6.5380   12.9080 O.2    24  LEU24      -0.2864
     73  CB        23.9620    7.3520   10.4030 C.3    24  LEU24       0.0297
     74  CG        25.1200    7.1090    9.4250 C.3    24  LEU24       0.0022
     75  CD1       25.7860    8.4230    9.0700 C.3    24  LEU24       0.0001
     76  CD2       26.1280    6.1390   10.0510 C.3    24  LEU24       0.0001
     77  N         24.6070   14.1940   13.7110 N.3    29  GLY29      -0.1210
     78  CA        25.9870   13.8020   13.4860 C.3    29  GLY29       0.1956
     79  C         26.5720   14.5510   12.2980 C.2    29  GLY29       0.2612
     80  O         27.6270   15.1790   12.4060 O.2    29  GLY29      -0.2717
     81  N         25.8790   14.4980   11.1640 N.am   30  CYS30      -0.1970
     82  CA        26.3450   15.1790    9.9570 C.3    30  CYS30       0.1712
     83  C         25.8960   16.6260    9.9110 C.2    30  CYS30       0.2296
     84  O         26.5680   17.4760    9.3300 O.2    30  CYS30      -0.2864
     85  CB        25.8260   14.4710    8.7130 C.3    30  CYS30       0.0983
     86  SG        26.3860   12.7540    8.5410 S.3    30  CYS30      -0.0798
     87  N         30.4600   23.6530    2.9610 N.3    41  PHE41      -0.1241
     88  CA        30.6700   22.3410    2.3620 C.3    41  PHE41       0.1605
     89  C         31.3770   22.4950    1.0240 C.2    41  PHE41       0.2264
     90  O         30.8520   23.1150    0.0950 O.2    41  PHE41      -0.2867
     91  CB        29.3510   21.5950    2.1470 C.3    41  PHE41       0.0534
     92  CG        29.5240   20.1100    2.0150 C.ar   41  PHE41      -0.0203
     93  CD1       29.6890   19.3140    3.1440 C.ar   41  PHE41      -0.0042
     94  CD2       29.5920   19.5110    0.7620 C.ar   41  PHE41      -0.0042
     95  CE1       29.9240   17.9380    3.0270 C.ar   41  PHE41      -0.0003
     96  CE2       29.8270   18.1390    0.6340 C.ar   41  PHE41      -0.0003
     97  CZ        29.9950   17.3530    1.7690 C.ar   41  PHE41      -0.0000
     98  N         36.0110   15.1860    7.0790 N.3    49  LYS49      -0.1231
     99  CA        34.9280   14.6660    7.9040 C.3    49  LYS49       0.1693
    100  C         33.5990   14.7030    7.1560 C.2    49  LYS49       0.2593
    101  O         32.6650   13.9660    7.5310 O.2    49  LYS49      -0.2718
    102  CB        34.8190   15.4600    9.2070 C.3    49  LYS49       0.0285
    103  CG        36.0060   15.2860   10.1420 C.3    49  LYS49       0.0035
    104  CD        35.8440   16.1190   11.4020 C.3    49  LYS49       0.0206
    105  CE        37.0180   15.9270   12.3470 C.3    49  LYS49       0.1093
    106  NZ        36.8850   16.7560   13.5750 N.3    49  LYS49      -0.1314
    107  N         33.4840   15.5390    6.1540 N.am   50  GLY50      -0.1942
    108  CA        32.2440   15.6390    5.4010 C.3    50  GLY50       0.2014
    109  C         31.8500   14.3610    4.6770 C.2    50  GLY50       0.2639
    110  O         30.6600   14.0490    4.5740 O.2    50  GLY50      -0.2714
    111  N         32.8340   13.6210    4.1660 N.am   51  CYS51      -0.1967
    112  CA        32.5460   12.3770    3.4550 C.3    51  CYS51       0.1712
    113  C         33.5660   11.2650    3.6740 C.2    51  CYS51       0.2296
    114  O         33.3390   10.3330    4.4540 O.2    51  CYS51      -0.2864
    115  CB        32.4460   12.6030    1.9370 C.3    51  CYS51       0.0983
    116  SG        31.1870   13.7870    1.3690 S.3    51  CYS51      -0.0798
    117  N         34.7120    9.8560    7.2600 N.3    54  CYS54      -0.1221
    118  CA        33.8640    8.9030    7.9580 C.3    54  CYS54       0.1808
    119  C         34.0260    7.5000    7.3910 C.2    54  CYS54       0.2601
    120  O         34.1320    6.5340    8.1440 O.2    54  CYS54      -0.2717
    121  CB        32.3980    9.3130    7.8870 C.3    54  CYS54       0.0970
    122  SG        31.3080    8.0330    8.5900 S.3    54  CYS54      -0.0800
    123  N         34.0490    7.3850    6.0660 N.am   55  HIS55      -0.1975
    124  CA        34.2080    6.0790    5.4350 C.3    55  HIS55       0.1656
    125  C         35.4860    5.3920    5.9150 C.2    55  HIS55       0.2291
    126  O         35.5110    4.1790    6.1070 O.2    55  HIS55      -0.2864
    127  CB        34.2340    6.2310    3.9170 C.3    55  HIS55       0.0771
    128  CG        32.9500    6.7420    3.3480 C.ar   55  HIS55       0.0820
    129  ND1       32.8260    7.2750    2.0860 N.ar   55  HIS55      -0.2267
    130  CD2       31.7070    6.7910    3.8930 C.ar   55  HIS55       0.1154
    131  CE1       31.5450    7.6230    1.9150 C.ar   55  HIS55       0.1986
    132  NE2       30.8240    7.3480    2.9850 N.ar   55  HIS55      -0.2212
    133  N         34.7610    4.4380    9.7530 N.3    58  MET58      -0.1245
    134  CA        33.7780    3.3600    9.8590 C.3    58  MET58       0.1570
    135  C         34.1290    2.1350    9.0300 C.2    58  MET58       0.2261
    136  O         33.4570    1.1050    9.1150 O.2    58  MET58      -0.2867
    137  CB        32.3970    3.8630    9.4430 C.3    58  MET58       0.0387
    138  CG        31.8740    5.0070   10.2910 C.3    58  MET58       0.0595
    139  SD        30.1190    5.3400   10.0110 S.3    58  MET58      -0.1393
    140  CE        29.7240    6.2420   11.5330 C.3    58  MET58       0.0692
    141  N         33.7080    1.5900    5.9840 N.3    60  ILE60      -0.1231
    142  CA        32.6460    1.2490    5.0560 C.3    60  ILE60       0.1692
    143  C         32.3720    2.4940    4.2110 C.2    60  ILE60       0.2593
    144  O         32.4960    3.6240    4.6940 O.2    60  ILE60      -0.2718
    145  CB        31.3730    0.7800    5.8120 C.3    60  ILE60       0.0266
    146  CG1       30.4130    0.1070    4.8320 C.3    60  ILE60       0.0019
    147  CG2       30.6980    1.9520    6.4990 C.3    60  ILE60       0.0020
    148  CD1       29.3490   -0.7300    5.5080 C.3    60  ILE60       0.0001
    149  N         32.0180    2.2880    2.9480 N.am   61  GLY61      -0.1943
    150  CA        31.7730    3.4150    2.0650 C.3    61  GLY61       0.1998
    151  C         32.9950    3.6530    1.1900 C.2    61  GLY61       0.2480
    152  O         34.0750    3.1500    1.4930 O.2    61  GLY61      -0.2729
    153  N         32.8670    4.4260    0.1040 N.am   62  PRO62      -0.2726
    154  CA        33.9940    4.6980   -0.7990 C.3    62  PRO62       0.1402
    155  C         35.0970    5.6010   -0.2460 C.2    62  PRO62       0.2269
    156  O         34.8180    6.6890    0.2680 O.2    62  PRO62      -0.2865
    157  CB        33.3040    5.3150   -2.0180 C.3    62  PRO62       0.0296
    158  CG        32.1690    6.0850   -1.3830 C.3    62  PRO62       0.0237
    159  CD        31.6370    5.0830   -0.3740 C.3    62  PRO62       0.0939
    160  N         35.8140    5.5780   -6.5940 N.3    67  ASP67      -0.1225
    161  CA        34.6340    4.9410   -6.0260 C.3    67  ASP67       0.1805
    162  C         33.5900    5.9890   -5.6730 C.2    67  ASP67       0.2598
    163  O         32.4600    5.6600   -5.3390 O.2    67  ASP67      -0.2718
    164  CB        35.0020    4.0970   -4.8050 C.3    67  ASP67       0.1424
    165  CG        35.6800    2.7980   -5.1930 C.2    67  ASP67       0.3668
    166  OD1       35.3280    2.2450   -6.2580 O.co2  67  ASP67      -0.2456
    167  OD2       36.5540    2.3220   -4.4410 O.co2  67  ASP67      -0.2456
    168  N         33.9870    7.2540   -5.7600 N.am   68  CYS68      -0.1970
    169  CA        33.0940    8.3820   -5.5050 C.3    68  CYS68       0.1712
    170  C         32.9150    9.1570   -6.8010 C.2    68  CYS68       0.2296
    171  O         31.7960    9.4040   -7.2410 O.2    68  CYS68      -0.2864
    172  CB        33.6890    9.3350   -4.4760 C.3    68  CYS68       0.0983
    173  SG        33.0890    9.1150   -2.7780 S.3    68  CYS68      -0.0798
@<TRIPOS>BOND
     1    26    24    1
     2     4     3    2
     3    13    14    1
     4     3     2    1
     5   171   170    2
     6    14    15    1
     7    14    17    1
     8    24    25    1
     9    24    21    1
    10     1     2    1
    11     2     5    1
    12   170   169    1
    13    15    16    2
    14    15    20   am
    15   160   161    1
    16    20    21    1
    17   166   165   ar
    18    19    17    1
    19    21    22    1
    20   161   162    1
    21   161   164    1
    22    17    18    1
    23     5     6    1
    24   168   162   am
    25   168   169    1
    26   162   163    2
    27   169   172    1
    28   165   164    1
    29   165   167   ar
    30    22    23    2
    31    22    27   am
    32   172   173    1
    33     6     7   ar
    34     6     8   ar
    35    27    28    1
    36     7     9   ar
    37     8    10   ar
    38     9    11   ar
    39    28    29    1
    40    28    31    1
    41    10    11   ar
    42    30    29    2
    43    29    38   am
    44   157   158    1
    45   157   154    1
    46    53    52    1
    47    11    12    1
    48    38    44    1
    49    38    39    1
    50    44    43    1
    51    42    39    1
    52    42    43    1
    53    31    32    1
    54    39    40    1
    55   158   159    1
    56    52    51    1
    57   154   155    1
    58   154   153    1
    59   159   153    1
    60   155   156    2
    61    51    50    1
    62    32    34   ar
    63    32    33   ar
    64    40    41    2
    65    90    89    2
    66   153   151   am
    67    34    36   ar
    68    50    49    1
    69    33    35   ar
    70    96    94   ar
    71    96    97   ar
    72    94    92   ar
    73    89    88    1
    74   151   152    2
    75   151   150    1
    76   116   115    1
    77    49    46    1
    78    97    95   ar
    79    36    37   ar
    80   131   129   ar
    81   131   132   ar
    82   115   112    1
    83    35    37   ar
    84    62    60   ar
    85    62    63   ar
    86    92    91    1
    87    92    93   ar
    88    45    46    1
    89   150   149    1
    90   129   128   ar
    91    91    88    1
    92    88    87    1
    93    60    59   ar
    94    46    47    1
    95    63    61   ar
    96   149   143   am
    97   132   130   ar
    98    95    93   ar
    99   128   130   ar
   100   128   127    1
   101   112   113    1
   102   112   111    1
   103   113   114    2
   104    59    61   ar
   105    59    58    1
   106    54    47   am
   107    54    55    1
   108    47    48    2
   109   127   124    1
   110   111   109   am
   111   143   144    2
   112   143   142    1
   113   110   109    2
   114    58    55    1
   115   109   108    1
   116   146   148    1
   117   146   145    1
   118    55    56    1
   119   142   145    1
   120   142   141    1
   121   108   107    1
   122   124   125    1
   123   124   123    1
   124   145   147    1
   125   125   126    2
   126   123   119   am
   127   107   100   am
   128    56    57    2
   129    68    65    1
   130    98    99    1
   131   100   101    2
   132   100    99    1
   133   117   118    1
   134   119   118    1
   135   119   120    2
   136    64    65    1
   137   121   118    1
   138   121   122    1
   139    99   102    1
   140    65    66    1
   141    86    85    1
   142    85    82    1
   143   135   136    2
   144   135   134    1
   145    75    74    1
   146   102   103    1
   147    84    83    2
   148    66    69   am
   149    66    67    2
   150    74    76    1
   151    74    73    1
   152   137   134    1
   153   137   138    1
   154    69    70    1
   155   133   134    1
   156    83    82    1
   157    82    81    1
   158   139   138    1
   159   139   140    1
   160   103   104    1
   161    73    70    1
   162    70    71    1
   163    81    79   am
   164   104   105    1
   165    71    72    2
   166    79    80    2
   167    79    78    1
   168   105   106    1
   169    78    77    1
