@<TRIPOS>MOLECULE
tmp/3h34A00.pdb
 156 151 0 0 0
SMALL
GASTEIGER

@<TRIPOS>ATOM
      1  N          1.0100   16.3530    9.2680 N.3     1  ALA1       -0.1245
      2  CA         1.6250   16.4070   10.6220 C.3     1  ALA1        0.1562
      3  C          3.0180   17.0210   10.5360 C.2     1  ALA1        0.2260
      4  O          3.6440   17.0040    9.4760 O.2     1  ALA1       -0.2867
      5  CB         1.7050   15.0010   11.2100 C.3     1  ALA1        0.0290
      6  N          6.4030   13.2620   10.1180 N.3     4  ILE4       -0.1245
      7  CA         5.7730   12.1800    9.3820 C.3     4  ILE4        0.1561
      8  C          6.6810   10.9640    9.3350 C.2     4  ILE4        0.2260
      9  O          7.8780   11.0780    9.0620 O.2     4  ILE4       -0.2867
     10  CB         5.4510   12.6270    7.9400 C.3     4  ILE4        0.0252
     11  CG1        4.5430   13.8600    7.9750 C.3     4  ILE4        0.0019
     12  CG2        4.7900   11.4920    7.1720 C.3     4  ILE4        0.0019
     13  CD1        4.3270   14.5080    6.6210 C.3     4  ILE4        0.0001
     14  N          7.5980    7.3940    7.6020 N.3     6  PHE6       -0.1241
     15  CA         7.4380    6.6400    6.3650 C.3     6  PHE6        0.1605
     16  C          7.9460    5.2100    6.5050 C.2     6  PHE6        0.2264
     17  O          9.1580    4.9690    6.5140 O.2     6  PHE6       -0.2867
     18  CB         8.2020    7.3050    5.2160 C.3     6  PHE6        0.0534
     19  CG         7.6870    8.6620    4.8410 C.ar    6  PHE6       -0.0203
     20  CD1        6.3700    8.8340    4.4260 C.ar    6  PHE6       -0.0042
     21  CD2        8.5270    9.7680    4.8870 C.ar    6  PHE6       -0.0042
     22  CE1        5.8960   10.0940    4.0600 C.ar    6  PHE6       -0.0003
     23  CE2        8.0640   11.0300    4.5240 C.ar    6  PHE6       -0.0003
     24  CZ         6.7440   11.1940    4.1090 C.ar    6  PHE6       -0.0000
     25  N         10.5830   11.9070    8.8650 N.3    15  PHE15      -0.1241
     26  CA        10.5900   13.1690    8.1380 C.3    15  PHE15       0.1605
     27  C         10.0810   14.3700    8.9290 C.2    15  PHE15       0.2264
     28  O          8.9060   14.4450    9.3010 O.2    15  PHE15      -0.2867
     29  CB         9.7820   12.9940    6.8440 C.3    15  PHE15       0.0534
     30  CG         9.6310   14.2510    6.0310 C.ar   15  PHE15      -0.0203
     31  CD1       10.7380   15.0130    5.6730 C.ar   15  PHE15      -0.0042
     32  CD2        8.3750   14.6600    5.6050 C.ar   15  PHE15      -0.0042
     33  CE1       10.5880   16.1660    4.8950 C.ar   15  PHE15      -0.0003
     34  CE2        8.2170   15.8060    4.8310 C.ar   15  PHE15      -0.0003
     35  CZ         9.3250   16.5600    4.4770 C.ar   15  PHE15      -0.0000
     36  N          8.7430   17.2290    8.6250 N.3    17  HIS17      -0.1241
     37  CA         7.9280   18.0200    7.7120 C.3    17  HIS17       0.1621
     38  C          7.9050   19.5170    8.0260 C.2    17  HIS17       0.2264
     39  O          8.2490   20.3420    7.1780 O.2    17  HIS17      -0.2867
     40  CB         6.5010   17.4620    7.7240 C.3    17  HIS17       0.0745
     41  CG         5.5780   18.1130    6.7430 C.ar   17  HIS17       0.0817
     42  ND1        4.3060   18.5420    7.0540 N.ar   17  HIS17      -0.2268
     43  CD2        5.7350   18.3610    5.4180 C.ar   17  HIS17       0.1154
     44  CE1        3.7450   19.0240    5.9350 C.ar   17  HIS17       0.1986
     45  NE2        4.5720   18.9360    4.9120 N.ar   17  HIS17      -0.2212
     46  N         11.3690   21.2480    8.0050 N.3    20  HIS20      -0.1226
     47  CA        11.8570   21.4950    6.6520 C.3    20  HIS20       0.1752
     48  C         11.4000   22.8250    6.0640 C.2    20  HIS20       0.2596
     49  O         12.0600   23.3690    5.1860 O.2    20  HIS20      -0.2718
     50  CB        11.4660   20.3500    5.7160 C.3    20  HIS20       0.0759
     51  CG        12.4800   19.2510    5.6600 C.ar   20  HIS20       0.0818
     52  ND1       12.7580   18.3990    6.7050 N.ar   20  HIS20      -0.2268
     53  CD2       13.3280   18.8960    4.6620 C.ar   20  HIS20       0.1154
     54  CE1       13.7480   17.5770    6.3140 C.ar   20  HIS20       0.1986
     55  NE2       14.1270   17.8420    5.0780 N.ar   20  HIS20      -0.2212
     56  N         10.2750   23.3540    6.5380 N.am   21  SER21      -0.1952
     57  CA         9.8050   24.6340    6.0240 C.3    21  SER21       0.1924
     58  C         10.6920   25.7820    6.4870 C.2    21  SER21       0.2314
     59  O         10.5580   26.9080    6.0150 O.2    21  SER21      -0.2863
     60  CB         8.3560   24.8890    6.4390 C.3    21  SER21       0.2116
     61  OG         7.4790   24.1710    5.5920 O.3    21  SER21      -0.2180
     62  N         13.1410   25.2320    3.4160 N.3    24  VAL24      -0.1245
     63  CA        12.5560   25.2340    2.0800 C.3    24  VAL24       0.1561
     64  C         11.4960   26.3190    1.9820 C.2    24  VAL24       0.2260
     65  O         10.4640   26.2620    2.6530 O.2    24  VAL24      -0.2867
     66  CB        11.9360   23.8590    1.7580 C.3    24  VAL24       0.0252
     67  CG1       11.4280   23.8350    0.3210 C.3    24  VAL24       0.0019
     68  CG2       12.9780   22.7680    1.9670 C.3    24  VAL24       0.0019
     69  N          9.3170   27.2430   -0.4710 N.3    26  GLU26      -0.1231
     70  CA         8.0110   26.9160   -1.0350 C.3    26  GLU26       0.1699
     71  C          7.4800   25.5120   -0.7940 C.2    26  GLU26       0.2592
     72  O          8.2190   24.5320   -0.8850 O.2    26  GLU26      -0.2718
     73  CB         8.0280   27.1220   -2.5510 C.3    26  GLU26       0.0402
     74  CG         8.1690   28.5450   -3.0340 C.3    26  GLU26       0.1161
     75  CD         7.7650   28.6730   -4.4900 C.2    26  GLU26       0.3649
     76  OE1        6.6040   28.3330   -4.8120 O.co2  26  GLU26      -0.2457
     77  OE2        8.6010   29.1040   -5.3120 O.co2  26  GLU26      -0.2457
     78  N          6.1810   25.4220   -0.5210 N.am   27  CYS27      -0.1970
     79  CA         5.5360   24.1290   -0.3410 C.3    27  CYS27       0.1712
     80  C          5.6410   23.4090   -1.6830 C.2    27  CYS27       0.2296
     81  O          5.8040   22.1920   -1.7410 O.2    27  CYS27      -0.2864
     82  CB         4.0430   24.2910   -0.0320 C.3    27  CYS27       0.0983
     83  SG         3.6020   25.4520    1.2950 S.3    27  CYS27      -0.0798
     84  N          8.0040   20.5780   -2.9730 N.3    30  CYS30      -0.1221
     85  CA         7.7740   19.1680   -2.6790 C.3    30  CYS30       0.1808
     86  C          6.3650   18.7370   -3.0620 C.2    30  CYS30       0.2601
     87  O          6.1070   17.5570   -3.3000 O.2    30  CYS30      -0.2717
     88  CB         7.9540   18.8980   -1.1850 C.3    30  CYS30       0.0970
     89  SG         9.5700   19.3540   -0.4820 S.3    30  CYS30      -0.0800
     90  N          5.4600   19.7030   -3.1260 N.am   31  HIS31      -0.1975
     91  CA         4.0590   19.4200   -3.4190 C.3    31  HIS31       0.1656
     92  C          3.5520   19.7730   -4.7990 C.2    31  HIS31       0.2291
     93  O          4.1940   20.4900   -5.5610 O.2    31  HIS31      -0.2864
     94  CB         3.1710   20.1540   -2.4150 C.3    31  HIS31       0.0771
     95  CG         3.1780   19.5510   -1.0510 C.ar   31  HIS31       0.0820
     96  ND1        2.5370   18.3780   -0.7280 N.ar   31  HIS31      -0.2267
     97  CD2        3.7770   19.9720    0.0910 C.ar   31  HIS31       0.1154
     98  CE1        2.7570   18.1320    0.5650 C.ar   31  HIS31       0.1986
     99  NE2        3.5050   19.0700    1.1080 N.ar   31  HIS31      -0.2212
    100  N         -1.1200   21.6000   -1.6160 N.3    35  PRO35      -0.2102
    101  CA        -0.3650   20.8190   -0.6340 C.3    35  PRO35       0.1504
    102  C         -1.2560   19.7450   -0.0150 C.2    35  PRO35       0.2576
    103  O         -2.4080   20.0070    0.3380 O.2    35  PRO35      -0.2718
    104  CB         0.0690   21.8710    0.3850 C.3    35  PRO35       0.0282
    105  CG         0.1980   23.1110   -0.4480 C.3    35  PRO35       0.0208
    106  CD        -1.0430   23.0390   -1.3120 C.3    35  PRO35       0.0893
    107  N         -0.7230   18.5360    0.1000 N.am   36  GLY36      -0.1943
    108  CA        -1.4810   17.4400    0.6750 C.3    36  GLY36       0.2014
    109  C         -0.7800   16.1320    0.3870 C.2    36  GLY36       0.2639
    110  O          0.3910   16.1290    0.0090 O.2    36  GLY36      -0.2714
    111  N         -1.4810   15.0190    0.5640 N.am   37  LYS37      -0.1963
    112  CA        -0.8900   13.7160    0.2950 C.3    37  LYS37       0.1728
    113  C         -0.4390   13.6840   -1.1610 C.2    37  LYS37       0.2616
    114  O         -1.1210   14.2040   -2.0420 O.2    37  LYS37      -0.2715
    115  CB        -1.9090   12.6040    0.5530 C.3    37  LYS37       0.0311
    116  CG        -2.3390   12.4900    2.0100 C.3    37  LYS37       0.0038
    117  CD        -3.4330   11.4470    2.1950 C.3    37  LYS37       0.0206
    118  CE        -4.7080   11.8420    1.4660 C.3    37  LYS37       0.1093
    119  NZ        -5.7900   10.8380    1.6570 N.3    37  LYS37      -0.1314
    120  N          0.7190   13.0820   -1.4060 N.am   38  ILE38      -0.1977
    121  CA         1.2690   12.9950   -2.7520 C.3    38  ILE38       0.1596
    122  C          0.9820   11.6170   -3.3430 C.2    38  ILE38       0.2287
    123  O          1.5080   10.6040   -2.8830 O.2    38  ILE38      -0.2864
    124  CB         2.7860   13.2790   -2.7210 C.3    38  ILE38       0.0276
    125  CG1        3.0160   14.6810   -2.1440 C.3    38  ILE38       0.0022
    126  CG2        3.3790   13.1680   -4.1230 C.3    38  ILE38       0.0022
    127  CD1        4.4680   15.0230   -1.8870 C.3    38  ILE38       0.0001
    128  N          3.8420    9.2390   -4.2210 N.3    41  PHE41      -0.1241
    129  CA         4.9090    9.2030   -3.2350 C.3    41  PHE41       0.1605
    130  C          5.4180    7.7730   -3.1400 C.2    41  PHE41       0.2264
    131  O          4.6390    6.8210   -3.1580 O.2    41  PHE41      -0.2867
    132  CB         4.4190    9.6550   -1.8600 C.3    41  PHE41       0.0534
    133  CG         5.5240    9.8050   -0.8560 C.ar   41  PHE41      -0.0203
    134  CD1        6.3380   10.9320   -0.8670 C.ar   41  PHE41      -0.0042
    135  CD2        5.7930    8.7950    0.0600 C.ar   41  PHE41      -0.0042
    136  CE1        7.4060   11.0540    0.0220 C.ar   41  PHE41      -0.0003
    137  CE2        6.8590    8.9050    0.9520 C.ar   41  PHE41      -0.0003
    138  CZ         7.6660   10.0350    0.9310 C.ar   41  PHE41      -0.0000
    139  N          9.9020    8.9330   -6.2390 N.3    45  TYR45      -0.1241
    140  CA         9.6590   10.3270   -5.8880 C.3    45  TYR45       0.1605
    141  C         10.6140   10.7800   -4.7860 C.2    45  TYR45       0.2264
    142  O         11.1900   11.8660   -4.8560 O.2    45  TYR45      -0.2867
    143  CB         8.2210   10.5250   -5.3920 C.3    45  TYR45       0.0534
    144  CG         8.0170   11.8480   -4.6750 C.ar   45  TYR45      -0.0201
    145  CD1        8.2870   11.9680   -3.3110 C.ar   45  TYR45      -0.0009
    146  CD2        7.6130   12.9950   -5.3670 C.ar   45  TYR45      -0.0009
    147  CE1        8.1700   13.1900   -2.6520 C.ar   45  TYR45       0.0417
    148  CE2        7.4910   14.2270   -4.7120 C.ar   45  TYR45       0.0417
    149  CZ         7.7740   14.3140   -3.3550 C.ar   45  TYR45       0.1957
    150  OH         7.6850   15.5230   -2.6950 O.3    45  TYR45      -0.2866
    151  N         13.8620   14.0370   -2.1080 N.3    50  CYS50      -0.1235
    152  CA        14.5240   14.0640   -0.8050 C.3    50  CYS50       0.1677
    153  C         16.0390   14.0380   -0.9400 C.2    50  CYS50       0.2270
    154  O         16.7320   14.9660   -0.5240 O.2    50  CYS50      -0.2867
    155  CB        14.0910   12.8650    0.0430 C.3    50  CYS50       0.0956
    156  SG        12.2900   12.6750    0.2480 S.3    50  CYS50      -0.0801
@<TRIPOS>BOND
     1   139   140    1
     2   140   143    1
     3   140   141    1
     4    93    92    2
     5   143   144    1
     6   146   148   ar
     7   146   144   ar
     8    77    75   ar
     9   142   141    2
    10    76    75   ar
    11    92    91    1
    12   148   149   ar
    13   144   145   ar
    14    75    74    1
    15   128   129    1
    16   126   124    1
    17    91    90    1
    18    91    94    1
    19   149   150    1
    20   149   147   ar
    21   122   123    2
    22   122   121    1
    23   145   147   ar
    24    87    86    2
    25   129   130    1
    26   129   132    1
    27   131   130    2
    28    90    86   am
    29    86    85    1
    30    74    73    1
    31    84    85    1
    32   121   124    1
    33   121   120    1
    34   124   125    1
    35    85    88    1
    36    73    70    1
    37    94    95    1
    38   125   127    1
    39   151   152    1
    40   114   113    2
    41   132   133    1
    42    81    80    2
    43    80    79    1
    44   100   106    1
    45   100   101    1
    46   120   113   am
    47   106   105    1
    48    88    89    1
    49   113   112    1
    50    95    96   ar
    51    95    97   ar
    52    70    71    1
    53    70    69    1
    54   153   152    1
    55   153   154    2
    56    72    71    2
    57   134   133   ar
    58   134   136   ar
    59   133   135   ar
    60   152   155    1
    61    71    78   am
    62    96    98   ar
    63   101   102    1
    64   101   104    1
    65    78    79    1
    66   105   104    1
    67    79    82    1
    68    82    83    1
    69   102   107   am
    70   102   103    2
    71   110   109    2
    72   136   138   ar
    73   155   156    1
    74   135   137   ar
    75    97    99   ar
    76   107   108    1
    77   112   115    1
    78   112   111    1
    79    67    66    1
    80   109   111   am
    81   109   108    1
    82   115   116    1
    83    98    99   ar
    84   138   137   ar
    85   118   119    1
    86   118   117    1
    87    66    68    1
    88    66    63    1
    89    64    63    1
    90    64    65    2
    91   116   117    1
    92    63    62    1
    93    22    24   ar
    94    22    20   ar
    95    24    23   ar
    96    20    19   ar
    97    35    34   ar
    98    35    33   ar
    99    23    21   ar
   100    53    55   ar
   101    53    51   ar
   102    34    32   ar
   103    19    21   ar
   104    19    18    1
   105    33    31   ar
   106    45    43   ar
   107    45    44   ar
   108    55    54   ar
   109    49    48    2
   110    18    15    1
   111    43    41   ar
   112    61    60    1
   113    32    30   ar
   114    51    50    1
   115    51    52   ar
   116    31    30   ar
   117    50    47    1
   118    44    42   ar
   119    59    58    2
   120    57    60    1
   121    57    58    1
   122    57    56    1
   123    30    29    1
   124    48    56   am
   125    48    47    1
   126    54    52   ar
   127    15    16    1
   128    15    14    1
   129    16    17    2
   130    13    11    1
   131    47    46    1
   132    41    42   ar
   133    41    40    1
   134    29    26    1
   135    12    10    1
   136    39    38    2
   137    37    40    1
   138    37    38    1
   139    37    36    1
   140    10    11    1
   141    10     7    1
   142    26    25    1
   143    26    27    1
   144    27    28    2
   145     9     8    2
   146     1     2    1
   147     8     7    1
   148     7     6    1
   149     4     3    2
   150     3     2    1
   151     2     5    1
