@<TRIPOS>MOLECULE
tmp/3h34A01.pdb
 194 189 0 0 0
SMALL
GASTEIGER

@<TRIPOS>ATOM
      1  N          7.5980    7.3940    7.6020 N.3     6  PHE6       -0.1241
      2  CA         7.4380    6.6400    6.3650 C.3     6  PHE6        0.1605
      3  C          7.9460    5.2100    6.5050 C.2     6  PHE6        0.2264
      4  O          9.1580    4.9690    6.5140 O.2     6  PHE6       -0.2867
      5  CB         8.2020    7.3050    5.2160 C.3     6  PHE6        0.0534
      6  CG         7.6870    8.6620    4.8410 C.ar    6  PHE6       -0.0203
      7  CD1        6.3700    8.8340    4.4260 C.ar    6  PHE6       -0.0042
      8  CD2        8.5270    9.7680    4.8870 C.ar    6  PHE6       -0.0042
      9  CE1        5.8960   10.0940    4.0600 C.ar    6  PHE6       -0.0003
     10  CE2        8.0640   11.0300    4.5240 C.ar    6  PHE6       -0.0003
     11  CZ         6.7440   11.1940    4.1090 C.ar    6  PHE6       -0.0000
     12  N         11.6550    5.8870    7.6190 N.3    13  VAL13      -0.1231
     13  CA        12.2360    7.2130    7.4530 C.3    13  VAL13       0.1692
     14  C         11.4650    8.2060    8.3090 C.2    13  VAL13       0.2593
     15  O         10.2370    8.2630    8.2460 O.2    13  VAL13      -0.2718
     16  CB        12.1620    7.6730    5.9810 C.3    13  VAL13       0.0266
     17  CG1       12.6790    9.1030    5.8470 C.3    13  VAL13       0.0020
     18  CG2       12.9630    6.7310    5.0990 C.3    13  VAL13       0.0020
     19  N         12.1800    8.9780    9.1200 N.am   14  THR14      -0.1939
     20  CA        11.5350    9.9790    9.9620 C.3    14  THR14       0.2028
     21  C         11.7040   11.3200    9.2720 C.2    14  THR14       0.2642
     22  O         12.8260   11.8120    9.1150 O.2    14  THR14      -0.2714
     23  CB        12.1680   10.0260   11.3610 C.3    14  THR14       0.1808
     24  OG1       11.9690    8.7640   12.0090 O.3    14  THR14      -0.2208
     25  CG2       11.5270   11.1240   12.1990 C.3    14  THR14       0.0379
     26  N         10.5830   11.9070    8.8650 N.am   15  PHE15      -0.1959
     27  CA        10.5900   13.1690    8.1380 C.3    15  PHE15       0.1771
     28  C         10.0810   14.3700    8.9290 C.2    15  PHE15       0.2620
     29  O          8.9060   14.4450    9.3010 O.2    15  PHE15      -0.2715
     30  CB         9.7820   12.9940    6.8440 C.3    15  PHE15       0.0574
     31  CG         9.6310   14.2510    6.0310 C.ar   15  PHE15      -0.0200
     32  CD1       10.7380   15.0130    5.6730 C.ar   15  PHE15      -0.0042
     33  CD2        8.3750   14.6600    5.6050 C.ar   15  PHE15      -0.0042
     34  CE1       10.5880   16.1660    4.8950 C.ar   15  PHE15      -0.0003
     35  CE2        8.2170   15.8060    4.8310 C.ar   15  PHE15      -0.0003
     36  CZ         9.3250   16.5600    4.4770 C.ar   15  PHE15      -0.0000
     37  N         10.9850   15.3130    9.1750 N.am   16  THR16      -0.1951
     38  CA        10.6550   16.5260    9.9100 C.3    16  THR16       0.1897
     39  C          9.9970   17.5210    8.9550 C.2    16  THR16       0.2313
     40  O         10.6010   18.5070    8.5360 O.2    16  THR16      -0.2863
     41  CB        11.9190   17.1360   10.5410 C.3    16  THR16       0.1794
     42  OG1       12.9150   17.3220    9.5300 O.3    16  THR16      -0.2208
     43  CG2       12.4700   16.2070   11.6210 C.3    16  THR16       0.0378
     44  N          9.7670   21.2170   10.2950 N.3    19  ARG19      -0.1231
     45  CA        11.1210   21.7550   10.3750 C.3    19  ARG19       0.1694
     46  C         11.6660   22.0910    8.9890 C.2    19  ARG19       0.2592
     47  O         12.3460   23.1050    8.8110 O.2    19  ARG19      -0.2718
     48  CB        12.0550   20.7630   11.0740 C.3    19  ARG19       0.0321
     49  CG        13.4760   21.2920   11.2690 C.3    19  ARG19       0.0489
     50  CD        14.2690   20.4340   12.2450 C.3    19  ARG19       0.2205
     51  NE        15.5860   21.0000   12.5300 N.pl3  19  ARG19      -0.0865
     52  CZ        16.6500   20.8680   11.7440 C.cat  19  ARG19       0.5346
     53  NH1       16.5650   20.1800   10.6150 N.pl3  19  ARG19       0.1354
     54  NH2       17.8040   21.4280   12.0880 N.pl3  19  ARG19       0.1354
     55  N         11.3690   21.2480    8.0050 N.am   20  HIS20      -0.1976
     56  CA        11.8570   21.4950    6.6520 C.3    20  HIS20       0.1656
     57  C         11.4000   22.8250    6.0640 C.2    20  HIS20       0.2291
     58  O         12.0600   23.3690    5.1860 O.2    20  HIS20      -0.2864
     59  CB        11.4660   20.3500    5.7160 C.3    20  HIS20       0.0771
     60  CG        12.4800   19.2510    5.6600 C.ar   20  HIS20       0.0820
     61  ND1       12.7580   18.3990    6.7050 N.ar   20  HIS20      -0.2267
     62  CD2       13.3280   18.8960    4.6620 C.ar   20  HIS20       0.1154
     63  CE1       13.7480   17.5770    6.3140 C.ar   20  HIS20       0.1986
     64  NE2       14.1270   17.8420    5.0780 N.ar   20  HIS20      -0.2212
     65  N         13.8100   25.6100    6.0580 N.3    23  PHE23      -0.1227
     66  CA        14.8880   25.5300    5.0750 C.3    23  PHE23       0.1736
     67  C         14.3960   25.6150    3.6320 C.2    23  PHE23       0.2595
     68  O         15.1450   26.0090    2.7320 O.2    23  PHE23      -0.2718
     69  CB        15.6410   24.2050    5.2560 C.3    23  PHE23       0.0547
     70  CG        16.3330   24.0760    6.5800 C.ar   23  PHE23      -0.0202
     71  CD1       15.6680   23.5390    7.6780 C.ar   23  PHE23      -0.0042
     72  CD2       17.6440   24.5150    6.7400 C.ar   23  PHE23      -0.0042
     73  CE1       16.3000   23.4420    8.9230 C.ar   23  PHE23      -0.0003
     74  CE2       18.2850   24.4220    7.9780 C.ar   23  PHE23      -0.0003
     75  CZ        17.6140   23.8860    9.0700 C.ar   23  PHE23      -0.0000
     76  N         13.1410   25.2320    3.4160 N.am   24  VAL24      -0.1980
     77  CA        12.5560   25.2340    2.0800 C.3    24  VAL24       0.1595
     78  C         11.4960   26.3190    1.9820 C.2    24  VAL24       0.2287
     79  O         10.4640   26.2620    2.6530 O.2    24  VAL24      -0.2864
     80  CB        11.9360   23.8590    1.7580 C.3    24  VAL24       0.0276
     81  CG1       11.4280   23.8350    0.3210 C.3    24  VAL24       0.0022
     82  CG2       12.9780   22.7680    1.9670 C.3    24  VAL24       0.0022
     83  N          7.9130   23.1550   -3.7040 N.3    29  SER29      -0.1202
     84  CA         9.1690   22.4650   -3.9760 C.3    29  SER29       0.2020
     85  C          9.0260   20.9630   -3.7320 C.2    29  SER29       0.2619
     86  O          9.8140   20.1630   -4.2350 O.2    29  SER29      -0.2717
     87  CB        10.2910   23.0400   -3.1080 C.3    29  SER29       0.2103
     88  OG        10.6230   24.3530   -3.5260 O.3    29  SER29      -0.2182
     89  N          8.0040   20.5780   -2.9730 N.am   30  CYS30      -0.1969
     90  CA         7.7740   19.1680   -2.6790 C.3    30  CYS30       0.1712
     91  C          6.3650   18.7370   -3.0620 C.2    30  CYS30       0.2296
     92  O          6.1070   17.5570   -3.3000 O.2    30  CYS30      -0.2864
     93  CB         7.9540   18.8980   -1.1850 C.3    30  CYS30       0.0983
     94  SG         9.5700   19.3540   -0.4820 S.3    30  CYS30      -0.0798
     95  N          3.8420    9.2390   -4.2210 N.3    41  PHE41      -0.1241
     96  CA         4.9090    9.2030   -3.2350 C.3    41  PHE41       0.1605
     97  C          5.4180    7.7730   -3.1400 C.2    41  PHE41       0.2264
     98  O          4.6390    6.8210   -3.1580 O.2    41  PHE41      -0.2867
     99  CB         4.4190    9.6550   -1.8600 C.3    41  PHE41       0.0534
    100  CG         5.5240    9.8050   -0.8560 C.ar   41  PHE41      -0.0203
    101  CD1        6.3380   10.9320   -0.8670 C.ar   41  PHE41      -0.0042
    102  CD2        5.7930    8.7950    0.0600 C.ar   41  PHE41      -0.0042
    103  CE1        7.4060   11.0540    0.0220 C.ar   41  PHE41      -0.0003
    104  CE2        6.8590    8.9050    0.9520 C.ar   41  PHE41      -0.0003
    105  CZ         7.6660   10.0350    0.9310 C.ar   41  PHE41      -0.0000
    106  N          9.9020    8.9330   -6.2390 N.3    45  TYR45      -0.1241
    107  CA         9.6590   10.3270   -5.8880 C.3    45  TYR45       0.1605
    108  C         10.6140   10.7800   -4.7860 C.2    45  TYR45       0.2264
    109  O         11.1900   11.8660   -4.8560 O.2    45  TYR45      -0.2867
    110  CB         8.2210   10.5250   -5.3920 C.3    45  TYR45       0.0534
    111  CG         8.0170   11.8480   -4.6750 C.ar   45  TYR45      -0.0201
    112  CD1        8.2870   11.9680   -3.3110 C.ar   45  TYR45      -0.0009
    113  CD2        7.6130   12.9950   -5.3670 C.ar   45  TYR45      -0.0009
    114  CE1        8.1700   13.1900   -2.6520 C.ar   45  TYR45       0.0417
    115  CE2        7.4910   14.2270   -4.7120 C.ar   45  TYR45       0.0417
    116  CZ         7.7740   14.3140   -3.3550 C.ar   45  TYR45       0.1957
    117  OH         7.6850   15.5230   -2.6950 O.3    45  TYR45      -0.2866
    118  N         13.4750   13.6710   -5.0600 N.3    49  THR49      -0.1203
    119  CA        13.2210   14.8890   -4.2990 C.3    49  THR49       0.1994
    120  C         13.9830   15.0320   -2.9840 C.2    49  THR49       0.2618
    121  O         14.6600   16.0400   -2.7640 O.2    49  THR49      -0.2717
    122  CB        11.7140   15.0330   -4.0090 C.3    49  THR49       0.1784
    123  OG1       11.2930   13.9910   -3.1240 O.3    49  THR49      -0.2211
    124  CG2       10.9210   14.9330   -5.3010 C.3    49  THR49       0.0376
    125  N         13.8620   14.0370   -2.1080 N.am   50  CYS50      -0.1969
    126  CA        14.5240   14.0640   -0.8050 C.3    50  CYS50       0.1712
    127  C         16.0390   14.0380   -0.9400 C.2    50  CYS50       0.2296
    128  O         16.7320   14.9660   -0.5240 O.2    50  CYS50      -0.2864
    129  CB        14.0910   12.8650    0.0430 C.3    50  CYS50       0.0983
    130  SG        12.2900   12.6750    0.2480 S.3    50  CYS50      -0.0798
    131  N         17.6140   17.0500   -3.2390 N.3    53  CYS53      -0.1221
    132  CA        17.8370   18.3540   -2.6280 C.3    53  CYS53       0.1808
    133  C         19.0220   18.3200   -1.6780 C.2    53  CYS53       0.2601
    134  O         19.8370   19.2440   -1.6520 O.2    53  CYS53      -0.2717
    135  CB        16.6020   18.8230   -1.8710 C.3    53  CYS53       0.0970
    136  SG        16.8860   20.4050   -1.0150 S.3    53  CYS53      -0.0800
    137  N         19.1150   17.2540   -0.8910 N.am   54  HIS54      -0.1975
    138  CA        20.2180   17.1120    0.0530 C.3    54  HIS54       0.1656
    139  C         21.5400   17.1470   -0.6990 C.2    54  HIS54       0.2291
    140  O         22.5170   17.7390   -0.2360 O.2    54  HIS54      -0.2864
    141  CB        20.0970   15.7900    0.8120 C.3    54  HIS54       0.0771
    142  CG        18.9100   15.7230    1.7190 C.ar   54  HIS54       0.0820
    143  ND1       18.5120   14.5850    2.3840 N.ar   54  HIS54      -0.2267
    144  CD2       18.0300   16.6890    2.0850 C.ar   54  HIS54       0.1154
    145  CE1       17.4280   14.8930    3.1130 C.ar   54  HIS54       0.1986
    146  NE2       17.0950   16.1610    2.9680 N.ar   54  HIS54      -0.2212
    147  N         22.2380   20.8460   -2.0590 N.3    57  ARG57      -0.1245
    148  CA        22.5010   21.7940   -0.9830 C.3    57  ARG57       0.1563
    149  C         23.6660   21.4100   -0.0790 C.2    57  ARG57       0.2260
    150  O         24.1810   22.2450    0.6620 O.2    57  ARG57      -0.2867
    151  CB        21.2360   22.0040   -0.1500 C.3    57  ARG57       0.0307
    152  CG        20.0980   22.5980   -0.9510 C.3    57  ARG57       0.0489
    153  CD        19.0660   23.2550   -0.0640 C.3    57  ARG57       0.2205
    154  NE        17.9740   23.8190   -0.8520 N.pl3  57  ARG57      -0.0865
    155  CZ        16.9400   24.4740   -0.3370 C.cat  57  ARG57       0.5346
    156  NH1       16.8550   24.6530    0.9740 N.pl3  57  ARG57       0.1354
    157  NH2       15.9900   24.9450   -1.1340 N.pl3  57  ARG57       0.1354
    158  N         23.5300   19.5220    2.4280 N.3    59  ALA59      -0.1231
    159  CA        23.0230   19.3760    3.7850 C.3    59  ALA59       0.1694
    160  C         21.9020   18.3490    3.7360 C.2    59  ALA59       0.2593
    161  O         21.1730   18.2600    2.7450 O.2    59  ALA59      -0.2718
    162  CB        22.5000   20.7100    4.3060 C.3    59  ALA59       0.0304
    163  N         21.7550   17.5830    4.8090 N.am   60  GLY60      -0.1943
    164  CA        20.7310   16.5570    4.8240 C.3    60  GLY60       0.1998
    165  C         21.3920   15.2550    4.4230 C.2    60  GLY60       0.2480
    166  O         22.4100   15.2660    3.7270 O.2    60  GLY60      -0.2729
    167  N         20.8360   14.1090    4.8300 N.am   61  PRO61      -0.2726
    168  CA        21.4300   12.8160    4.4870 C.3    61  PRO61       0.1402
    169  C         21.2950   12.3360    3.0460 C.2    61  PRO61       0.2269
    170  O         20.2430   12.4660    2.4250 O.2    61  PRO61      -0.2865
    171  CB        20.7540   11.8660    5.4670 C.3    61  PRO61       0.0296
    172  CG        19.3790   12.4520    5.5830 C.3    61  PRO61       0.0237
    173  CD        19.6740   13.9330    5.7170 C.3    61  PRO61       0.0939
    174  N         21.3850    6.8930    6.7580 N.3    66  LEU66      -0.1231
    175  CA        21.2480    8.1490    7.4810 C.3    66  LEU66       0.1693
    176  C         19.8540    8.7280    7.2710 C.2    66  LEU66       0.2592
    177  O         19.4530    9.6800    7.9400 O.2    66  LEU66      -0.2718
    178  CB        22.3230    9.1400    7.0280 C.3    66  LEU66       0.0284
    179  CG        23.7530    8.6390    7.2560 C.3    66  LEU66       0.0019
    180  CD1       24.7490    9.7160    6.8540 C.3    66  LEU66       0.0001
    181  CD2       23.9380    8.2640    8.7220 C.3    66  LEU66       0.0001
    182  N         19.1170    8.1430    6.3350 N.am   67  CYS67      -0.1970
    183  CA        17.7580    8.5810    6.0650 C.3    67  CYS67       0.1712
    184  C         16.8340    7.4340    6.4620 C.2    67  CYS67       0.2296
    185  O         15.8000    7.6440    7.0940 O.2    67  CYS67      -0.2864
    186  CB        17.5930    8.9220    4.5900 C.3    67  CYS67       0.0983
    187  SG        16.0280    9.7690    4.2160 S.3    67  CYS67      -0.0798
    188  N         16.6110    5.2900    8.8380 N.3    69  THR69      -0.1218
    189  CA        17.0980    5.0380   10.1930 C.3    69  THR69       0.1862
    190  C         16.2810    4.0590   11.0280 C.2    69  THR69       0.2287
    191  O         16.7550    3.5850   12.0610 O.2    69  THR69      -0.2866
    192  CB        17.1750    6.3490   10.9890 C.3    69  THR69       0.1770
    193  OG1       15.8610    6.9090   11.0980 O.3    69  THR69      -0.2211
    194  CG2       18.0930    7.3440   10.2970 C.3    69  THR69       0.0375
@<TRIPOS>BOND
     1   106   107    1
     2   107   110    1
     3   107   108    1
     4   110   111    1
     5   113   115   ar
     6   113   111   ar
     7   124   122    1
     8   118   119    1
     9   109   108    2
    10   115   116   ar
    11   111   112   ar
    12   119   122    1
    13   119   120    1
    14    86    85    2
    15    95    96    1
    16   122   123    1
    17    84    85    1
    18    84    83    1
    19    84    87    1
    20    85    89   am
    21    88    87    1
    22   116   117    1
    23   116   114   ar
    24   112   114   ar
    25    92    91    2
    26   131   132    1
    27    96    97    1
    28    96    99    1
    29    98    97    2
    30    91    90    1
    31   120   121    2
    32   120   125   am
    33    89    90    1
    34    90    93    1
    35   132   135    1
    36   132   133    1
    37   125   126    1
    38   147   148    1
    39   135   136    1
    40    99   100    1
    41   133   134    2
    42   133   137   am
    43    93    94    1
    44   157   155    1
    45   148   151    1
    46   148   149    1
    47   152   151    1
    48   152   153    1
    49   127   126    1
    50   127   128    2
    51   137   138    1
    52   101   100   ar
    53   101   103   ar
    54   100   102   ar
    55   154   155    2
    56   154   153    1
    57   126   129    1
    58   139   140    2
    59   139   138    1
    60   155   156    1
    61   149   150    2
    62   103   105   ar
    63   129   130    1
    64   138   141    1
    65   102   104   ar
    66    81    80    1
    67   141   142    1
    68   105   104   ar
    69   142   144   ar
    70   142   143   ar
    71    80    82    1
    72    80    77    1
    73    78    77    1
    74    78    79    2
    75    77    76    1
    76   144   146   ar
    77   143   145   ar
    78   170   169    2
    79   158   159    1
    80    68    67    2
    81   161   160    2
    82   146   145   ar
    83   169   168    1
    84    76    67   am
    85    67    66    1
    86   166   165    2
    87   160   159    1
    88   160   163   am
    89   159   162    1
    90     9    11   ar
    91     9     7   ar
    92    11    10   ar
    93   187   186    1
    94   165   164    1
    95   165   167   am
    96     7     6   ar
    97    36    35   ar
    98    36    34   ar
    99   168   167    1
   100   168   171    1
   101    10     8   ar
   102   186   183    1
   103    62    64   ar
   104    62    60   ar
   105   163   164    1
   106   167   173    1
   107    35    33   ar
   108     6     8   ar
   109     6     5    1
   110    34    32   ar
   111    66    69    1
   112    66    65    1
   113    64    63   ar
   114    18    16    1
   115    58    57    2
   116     5     2    1
   117    69    70    1
   118   171   172    1
   119   172   173    1
   120    33    31   ar
   121    60    59    1
   122    60    61   ar
   123    32    31   ar
   124    59    56    1
   125    17    16    1
   126    16    13    1
   127    31    30    1
   128    57    56    1
   129   183   182    1
   130   183   184    1
   131    63    61   ar
   132   182   176   am
   133     2     3    1
   134     2     1    1
   135   184   185    2
   136     3     4    2
   137    70    72   ar
   138    70    71   ar
   139    56    55    1
   140    72    74   ar
   141   174   175    1
   142    30    27    1
   143   180   179    1
   144   178   179    1
   145   178   175    1
   146   179   181    1
   147   176   175    1
   148   176   177    2
   149    13    12    1
   150    13    14    1
   151    71    73   ar
   152    74    75   ar
   153    55    46   am
   154    27    26    1
   155    27    28    1
   156    15    14    2
   157    14    19   am
   158    40    39    2
   159    47    46    2
   160   188   189    1
   161    26    21   am
   162    73    75   ar
   163    28    37   am
   164    28    29    2
   165    39    38    1
   166    46    45    1
   167    22    21    2
   168    19    20    1
   169    37    38    1
   170    21    20    1
   171    42    41    1
   172    38    41    1
   173    20    23    1
   174   189   192    1
   175   189   190    1
   176    44    45    1
   177   194   192    1
   178    45    48    1
   179    41    43    1
   180    53    52    1
   181   192   193    1
   182   190   191    2
   183    48    49    1
   184    49    50    1
   185    23    24    1
   186    23    25    1
   187    52    54    1
   188    52    51    2
   189    50    51    1
