@<TRIPOS>MOLECULE
tmp/3h34A02.pdb
 157 156 0 0 0
SMALL
GASTEIGER

@<TRIPOS>ATOM
      1  N          7.5980    7.3940    7.6020 N.3     6  PHE6       -0.1228
      2  CA         7.4380    6.6400    6.3650 C.3     6  PHE6        0.1721
      3  C          7.9460    5.2100    6.5050 C.2     6  PHE6        0.2437
      4  O          9.1580    4.9690    6.5140 O.2     6  PHE6       -0.2733
      5  CB         8.2020    7.3050    5.2160 C.3     6  PHE6        0.0547
      6  CG         7.6870    8.6620    4.8410 C.ar    6  PHE6       -0.0202
      7  CD1        6.3700    8.8340    4.4260 C.ar    6  PHE6       -0.0042
      8  CD2        8.5270    9.7680    4.8870 C.ar    6  PHE6       -0.0042
      9  CE1        5.8960   10.0940    4.0600 C.ar    6  PHE6       -0.0003
     10  CE2        8.0640   11.0300    4.5240 C.ar    6  PHE6       -0.0003
     11  CZ         6.7440   11.1940    4.1090 C.ar    6  PHE6       -0.0000
     12  N          7.0290    4.2400    6.6360 N.am    7  PRO7       -0.2718
     13  CA         7.4430    2.8390    6.7620 C.3     7  PRO7        0.1535
     14  C          8.1610    2.4630    5.4650 C.2     7  PRO7        0.2599
     15  O          7.7990    2.9540    4.3970 O.2     7  PRO7       -0.2715
     16  CB         6.1140    2.1020    6.9150 C.3     7  PRO7        0.0310
     17  CG         5.2410    3.1160    7.5880 C.3     7  PRO7        0.0237
     18  CD         5.5750    4.3790    6.8340 C.3     7  PRO7        0.0939
     19  N          9.1730    1.6070    5.5500 N.am    8  SER8       -0.1936
     20  CA         9.9210    1.2150    4.3600 C.3     8  SER8        0.2055
     21  C         10.6000   -0.1380    4.5090 C.2     8  SER8        0.2643
     22  O         11.0560   -0.4990    5.5930 O.2     8  SER8       -0.2714
     23  CB        10.9770    2.2760    4.0400 C.3     8  SER8        0.2130
     24  OG        11.7820    1.8950    2.9390 O.3     8  SER8       -0.2179
     25  N         10.6710   -0.8800    3.4090 N.am    9  LYS9       -0.1963
     26  CA        11.3090   -2.1880    3.4180 C.3     9  LYS9        0.1728
     27  C         12.8120   -2.0280    3.6110 C.2     9  LYS9        0.2616
     28  O         13.5230   -3.0000    3.8710 O.2     9  LYS9       -0.2715
     29  CB        11.0230   -2.9260    2.1080 C.3     9  LYS9        0.0311
     30  CG         9.5500   -3.2240    1.8790 C.3     9  LYS9        0.0038
     31  CD         9.3360   -3.9880    0.5830 C.3     9  LYS9        0.0206
     32  CE         7.8650   -4.3050    0.3670 C.3     9  LYS9        0.1093
     33  NZ         7.6360   -5.0570   -0.8980 N.3     9  LYS9       -0.1314
     34  N         13.2980   -0.7960    3.4830 N.am   10  ASN10      -0.1972
     35  CA        14.7210   -0.5360    3.6640 C.3    10  ASN10       0.1688
     36  C         14.9730    0.2200    4.9660 C.2    10  ASN10       0.2292
     37  O         16.0790    0.7090    5.2050 O.2    10  ASN10      -0.2864
     38  CB        15.2810    0.2760    2.4950 C.3    10  ASN10       0.1181
     39  CG        16.7980    0.3070    2.4900 C.2    10  ASN10       0.2629
     40  OD1       17.4130    1.3470    2.2530 O.2    10  ASN10      -0.2716
     41  ND2       17.4100   -0.8410    2.7500 N.am   10  ASN10      -0.0877
     42  N         11.6550    5.8870    7.6190 N.3    13  VAL13      -0.1245
     43  CA        12.2360    7.2130    7.4530 C.3    13  VAL13       0.1561
     44  C         11.4650    8.2060    8.3090 C.2    13  VAL13       0.2260
     45  O         10.2370    8.2630    8.2460 O.2    13  VAL13      -0.2867
     46  CB        12.1620    7.6730    5.9810 C.3    13  VAL13       0.0252
     47  CG1       12.6790    9.1030    5.8470 C.3    13  VAL13       0.0019
     48  CG2       12.9630    6.7310    5.0990 C.3    13  VAL13       0.0019
     49  N          3.8420    9.2390   -4.2210 N.3    41  PHE41      -0.1227
     50  CA         4.9090    9.2030   -3.2350 C.3    41  PHE41       0.1736
     51  C          5.4180    7.7730   -3.1400 C.2    41  PHE41       0.2596
     52  O          4.6390    6.8210   -3.1580 O.2    41  PHE41      -0.2718
     53  CB         4.4190    9.6550   -1.8600 C.3    41  PHE41       0.0547
     54  CG         5.5240    9.8050   -0.8560 C.ar   41  PHE41      -0.0202
     55  CD1        6.3380   10.9320   -0.8670 C.ar   41  PHE41      -0.0042
     56  CD2        5.7930    8.7950    0.0600 C.ar   41  PHE41      -0.0042
     57  CE1        7.4060   11.0540    0.0220 C.ar   41  PHE41      -0.0003
     58  CE2        6.8590    8.9050    0.9520 C.ar   41  PHE41      -0.0003
     59  CZ         7.6660   10.0350    0.9310 C.ar   41  PHE41      -0.0000
     60  N          6.7310    7.6290   -3.0370 N.am   42  GLY42      -0.1942
     61  CA         7.3230    6.3110   -2.9540 C.3    42  GLY42       0.2014
     62  C          8.8110    6.4260   -3.1980 C.2    42  GLY42       0.2638
     63  O          9.3560    7.5280   -3.1610 O.2    42  GLY42      -0.2714
     64  N          9.4620    5.2970   -3.4640 N.am   43  LYS43      -0.1977
     65  CA        10.9030    5.2650   -3.6990 C.3    43  LYS43       0.1596
     66  C         11.4040    6.2620   -4.7450 C.2    43  LYS43       0.2287
     67  O         12.2860    7.0740   -4.4620 O.2    43  LYS43      -0.2864
     68  CB        11.3350    3.8530   -4.1070 C.3    43  LYS43       0.0298
     69  CG        12.8320    3.7090   -4.3350 C.3    43  LYS43       0.0038
     70  CD        13.1940    2.3080   -4.8080 C.3    43  LYS43       0.0206
     71  CE        12.5830    2.0020   -6.1670 C.3    43  LYS43       0.1093
     72  NZ        13.0580    2.9470   -7.2150 N.3    43  LYS43      -0.1314
     73  N         10.7700    9.9420   -3.7660 N.3    46  ALA46      -0.1231
     74  CA        11.6170   10.2710   -2.6260 C.3    46  ALA46       0.1694
     75  C         13.1040   10.3820   -2.9370 C.2    46  ALA46       0.2592
     76  O         13.7710   11.3090   -2.4750 O.2    46  ALA46      -0.2718
     77  CB        11.3960    9.2560   -1.5090 C.3    46  ALA46       0.0304
     78  N         13.6350    9.4480   -3.7160 N.am   47  HIS47      -0.1976
     79  CA        15.0570    9.4980   -4.0290 C.3    47  HIS47       0.1656
     80  C         15.4040   10.6660   -4.9410 C.2    47  HIS47       0.2291
     81  O         16.5280   11.1700   -4.9190 O.2    47  HIS47      -0.2864
     82  CB        15.5020    8.1690   -4.6340 C.3    47  HIS47       0.0771
     83  CG        15.5140    7.0440   -3.6460 C.ar   47  HIS47       0.0820
     84  ND1       15.7990    5.7360   -3.9660 N.ar   47  HIS47      -0.2267
     85  CD2       15.2750    7.0510   -2.3090 C.ar   47  HIS47       0.1154
     86  CE1       15.7270    5.0120   -2.8400 C.ar   47  HIS47       0.1986
     87  NE2       15.4120    5.7650   -1.8040 N.ar   47  HIS47      -0.2212
     88  N         13.8620   14.0370   -2.1080 N.3    50  CYS50      -0.1221
     89  CA        14.5240   14.0640   -0.8050 C.3    50  CYS50       0.1808
     90  C         16.0390   14.0380   -0.9400 C.2    50  CYS50       0.2601
     91  O         16.7320   14.9660   -0.5240 O.2    50  CYS50      -0.2717
     92  CB        14.0910   12.8650    0.0430 C.3    50  CYS50       0.0970
     93  SG        12.2900   12.6750    0.2480 S.3    50  CYS50      -0.0800
     94  N         16.5440   12.9570   -1.5190 N.am   51  LYS51      -0.1979
     95  CA        17.9800   12.7870   -1.7040 C.3    51  LYS51       0.1596
     96  C         18.5480   13.8560   -2.6350 C.2    51  LYS51       0.2287
     97  O         19.6320   14.3880   -2.3930 O.2    51  LYS51      -0.2864
     98  CB        18.2560   11.3840   -2.2600 C.3    51  LYS51       0.0298
     99  CG        19.7240   10.9940   -2.3750 C.3    51  LYS51       0.0038
    100  CD        19.8400    9.5200   -2.7660 C.3    51  LYS51       0.0206
    101  CE        21.2860    9.0780   -2.9530 C.3    51  LYS51       0.1093
    102  NZ        21.9220    9.7070   -4.1420 N.3    51  LYS51      -0.1314
    103  N         19.1150   17.2540   -0.8910 N.3    54  HIS54      -0.1241
    104  CA        20.2180   17.1120    0.0530 C.3    54  HIS54       0.1621
    105  C         21.5400   17.1470   -0.6990 C.2    54  HIS54       0.2264
    106  O         22.5170   17.7390   -0.2360 O.2    54  HIS54      -0.2867
    107  CB        20.0970   15.7900    0.8120 C.3    54  HIS54       0.0745
    108  CG        18.9100   15.7230    1.7190 C.ar   54  HIS54       0.0817
    109  ND1       18.5120   14.5850    2.3840 N.ar   54  HIS54      -0.2268
    110  CD2       18.0300   16.6890    2.0850 C.ar   54  HIS54       0.1154
    111  CE1       17.4280   14.8930    3.1130 C.ar   54  HIS54       0.1986
    112  NE2       17.0950   16.1610    2.9680 N.ar   54  HIS54      -0.2212
    113  N         20.8360   14.1090    4.8300 N.3    61  PRO61      -0.2102
    114  CA        21.4300   12.8160    4.4870 C.3    61  PRO61       0.1504
    115  C         21.2950   12.3360    3.0460 C.2    61  PRO61       0.2576
    116  O         20.2430   12.4660    2.4250 O.2    61  PRO61      -0.2718
    117  CB        20.7540   11.8660    5.4670 C.3    61  PRO61       0.0282
    118  CG        19.3790   12.4520    5.5830 C.3    61  PRO61       0.0208
    119  CD        19.6740   13.9330    5.7170 C.3    61  PRO61       0.0893
    120  N         22.3820   11.7780    2.5220 N.am   62  THR62      -0.1939
    121  CA        22.3810   11.2240    1.1770 C.3    62  THR62       0.2028
    122  C         22.7350    9.7460    1.2980 C.2    62  THR62       0.2642
    123  O         22.4220    8.9490    0.4180 O.2    62  THR62      -0.2714
    124  CB        23.3890   11.9360    0.2470 C.3    62  THR62       0.1808
    125  OG1       24.6960   11.9060    0.8300 O.3    62  THR62      -0.2208
    126  CG2       22.9640   13.3810    0.0210 C.3    62  THR62       0.0379
    127  N         23.3840    9.3880    2.4040 N.am   63  LYS63      -0.1963
    128  CA        23.7540    7.9980    2.6560 C.3    63  LYS63       0.1728
    129  C         22.4970    7.2450    3.0860 C.2    63  LYS63       0.2616
    130  O         21.7370    7.7190    3.9280 O.2    63  LYS63      -0.2715
    131  CB        24.8220    7.9130    3.7500 C.3    63  LYS63       0.0311
    132  CG        26.1160    8.6360    3.4060 C.3    63  LYS63       0.0038
    133  CD        27.2130    8.3440    4.4200 C.3    63  LYS63       0.0206
    134  CE        27.6050    6.8730    4.4030 C.3    63  LYS63       0.1093
    135  NZ        28.7100    6.5760    5.3560 N.3    63  LYS63      -0.1314
    136  N         22.2940    6.0710    2.4970 N.am   64  CYS64      -0.1968
    137  CA        21.1270    5.2320    2.7600 C.3    64  CYS64       0.1712
    138  C         20.6460    5.1530    4.2070 C.2    64  CYS64       0.2296
    139  O         19.5090    5.5160    4.5170 O.2    64  CYS64      -0.2864
    140  CB        21.3960    3.8070    2.2710 C.3    64  CYS64       0.0983
    141  SG        22.0150    3.6890    0.5660 S.3    64  CYS64      -0.0798
    142  N         19.1170    8.1430    6.3350 N.3    67  CYS67      -0.1221
    143  CA        17.7580    8.5810    6.0650 C.3    67  CYS67       0.1808
    144  C         16.8340    7.4340    6.4620 C.2    67  CYS67       0.2601
    145  O         15.8000    7.6440    7.0940 O.2    67  CYS67      -0.2717
    146  CB        17.5930    8.9220    4.5900 C.3    67  CYS67       0.0970
    147  SG        16.0280    9.7690    4.2160 S.3    67  CYS67      -0.0800
    148  N         17.2200    6.2200    6.0780 N.am   68  HIS68      -0.1975
    149  CA        16.4740    5.0180    6.4340 C.3    68  HIS68       0.1656
    150  C         17.0400    4.6000    7.7870 C.2    68  HIS68       0.2291
    151  O         17.8500    3.6790    7.8710 O.2    68  HIS68      -0.2864
    152  CB        16.7270    3.9090    5.4130 C.3    68  HIS68       0.0771
    153  CG        16.0140    4.1080    4.1140 C.ar   68  HIS68       0.0820
    154  ND1       14.6790    3.8340    3.9190 N.ar   68  HIS68      -0.2267
    155  CD2       16.4710    4.5810    2.9270 C.ar   68  HIS68       0.1154
    156  CE1       14.3770    4.1390    2.6480 C.ar   68  HIS68       0.1986
    157  NE2       15.4330    4.5980    2.0050 N.ar   68  HIS68      -0.2212
@<TRIPOS>BOND
     1    72    71    1
     2    71    70    1
     3    80    81    2
     4    80    79    1
     5    70    69    1
     6    66    67    2
     7    66    65    1
     8    82    79    1
     9    82    83    1
    10    69    68    1
    11    49    50    1
    12   102   101    1
    13    68    65    1
    14    79    78    1
    15    84    83   ar
    16    84    86   ar
    17    73    74    1
    18    78    75   am
    19    65    64    1
    20    83    85   ar
    21    64    62   am
    22    50    51    1
    23    50    53    1
    24    62    63    2
    25    62    61    1
    26    52    51    2
    27    51    60   am
    28    60    61    1
    29   101   100    1
    30    75    74    1
    31    75    76    2
    32    86    87   ar
    33   100    99    1
    34    96    97    2
    35    96    95    1
    36    74    77    1
    37    99    98    1
    38    85    87   ar
    39    98    95    1
    40    88    89    1
    41    53    54    1
    42    95    94    1
    43    94    90   am
    44    90    89    1
    45    90    91    2
    46    33    32    1
    47   103   104    1
    48    55    54   ar
    49    55    57   ar
    50    54    56   ar
    51    89    92    1
    52   105   106    2
    53   105   104    1
    54   126   124    1
    55    57    59   ar
    56    92    93    1
    57   104   107    1
    58    56    58   ar
    59   124   125    1
    60   124   121    1
    61    32    31    1
    62   123   122    2
    63   141   140    1
    64    31    30    1
    65   107   108    1
    66    59    58   ar
    67   121   122    1
    68   121   120    1
    69   122   127   am
    70   108   110   ar
    71   108   109   ar
    72    30    29    1
    73   157   156   ar
    74   157   155   ar
    75   110   112   ar
    76    29    26    1
    77    40    39    2
    78   140   137    1
    79   109   111   ar
    80   127   128    1
    81   116   115    2
    82    39    38    1
    83    39    41   am
    84    38    35    1
    85   136   137    1
    86   136   129   am
    87   120   115   am
    88   156   154   ar
    89   128   129    1
    90   128   131    1
    91   137   138    1
    92   155   153   ar
    93    24    23    1
    94   112   111   ar
    95   115   114    1
    96   129   130    2
    97   132   131    1
    98   132   133    1
    99    25    26    1
   100    25    21   am
   101    26    27    1
   102    34    27   am
   103    34    35    1
   104    27    28    2
   105    35    36    1
   106   154   153   ar
   107    23    20    1
   108     9    11   ar
   109     9     7   ar
   110    11    10   ar
   111   153   152    1
   112   138   139    2
   113   147   146    1
   114    20    21    1
   115    20    19    1
   116    15    14    2
   117   134   133    1
   118   134   135    1
   119     7     6   ar
   120   114   113    1
   121   114   117    1
   122    21    22    2
   123    10     8   ar
   124   146   143    1
   125   113   119    1
   126     6     8   ar
   127     6     5    1
   128    36    37    2
   129    48    46    1
   130     5     2    1
   131   152   149    1
   132    14    19   am
   133    14    13    1
   134   117   118    1
   135   118   119    1
   136    47    46    1
   137    46    43    1
   138   143   142    1
   139   143   144    1
   140   148   149    1
   141   148   144   am
   142     2     3    1
   143     2     1    1
   144   149   150    1
   145   144   145    2
   146     3     4    2
   147     3    12   am
   148    12    13    1
   149    12    18    1
   150    13    16    1
   151    18    17    1
   152    16    17    1
   153    43    42    1
   154    43    44    1
   155   150   151    2
   156    45    44    2
