@<TRIPOS>MOLECULE
tmp/3h39B00.pdb
 180 166 0 0 0
SMALL
GASTEIGER

@<TRIPOS>ATOM
      1  N         13.9030    3.8710  108.4480 N.3    41  GLY41      -0.1210
      2  CA        13.2220    4.4040  109.6030 C.3    41  GLY41       0.1956
      3  C         12.3750    5.6140  109.3020 C.2    41  GLY41       0.2612
      4  O         11.7260    5.7070  108.2610 O.2    41  GLY41      -0.2717
      5  N         12.3980    6.5520  110.2320 N.am   42  GLY42      -0.1956
      6  CA        11.4640    7.6500  110.2190 C.3    42  GLY42       0.1869
      7  C         11.7760    8.6900  109.1840 C.2    42  GLY42       0.2309
      8  O         10.8770    9.4070  108.7570 O.2    42  GLY42      -0.2863
      9  N          9.6560    7.7250  106.2620 N.3    45  ARG45      -0.1245
     10  CA         8.3040    8.1260  106.6080 C.3    45  ARG45       0.1563
     11  C          8.0860    9.6390  106.4880 C.2    45  ARG45       0.2260
     12  O          7.0940   10.0890  105.9140 O.2    45  ARG45      -0.2867
     13  CB         7.9810    7.6770  108.0330 C.3    45  ARG45       0.0307
     14  CG         6.6550    8.1940  108.5420 C.3    45  ARG45       0.0489
     15  CD         6.6110    8.1540  110.0530 C.3    45  ARG45       0.2205
     16  NE         7.5310    9.1180  110.6470 N.pl3  45  ARG45      -0.0865
     17  CZ         8.2410    8.8750  111.7420 C.cat  45  ARG45       0.5346
     18  NH1        8.1470    7.7000  112.3410 N.pl3  45  ARG45       0.1354
     19  NH2        9.0480    9.7980  112.2270 N.pl3  45  ARG45       0.1354
     20  N         13.0090   16.2710  108.5940 N.3    53  ASN53      -0.1240
     21  CA        13.7030   15.2520  109.3510 C.3    53  ASN53       0.1653
     22  C         15.1920   15.2910  109.0700 C.2    53  ASN53       0.2266
     23  O         15.6150   15.2780  107.9120 O.2    53  ASN53      -0.2867
     24  CB        13.1150   13.8750  109.0570 C.3    53  ASN53       0.1155
     25  CG        13.6280   12.8170  110.0000 C.2    53  ASN53       0.2627
     26  OD1       14.8160   12.7720  110.2940 O.2    53  ASN53      -0.2716
     27  ND2       12.7340   11.9630  110.4910 N.am   53  ASN53      -0.0877
     28  N         17.3580   13.2130  111.0120 N.3    55  ASP55      -0.1239
     29  CA        17.9820   11.9650  111.3720 C.3    55  ASP55       0.1674
     30  C         18.5720   11.2950  110.1600 C.2    55  ASP55       0.2266
     31  O         17.9490   11.2010  109.1400 O.2    55  ASP55      -0.2867
     32  CB        16.9460   11.0170  111.9420 C.3    55  ASP55       0.1410
     33  CG        16.2590   11.5740  113.1250 C.2    55  ASP55       0.3668
     34  OD1       16.6760   12.6380  113.5890 O.co2  55  ASP55      -0.2456
     35  OD2       15.2960   10.9560  113.5920 O.co2  55  ASP55      -0.2456
     36  N         19.6260    7.9060  109.4420 N.3    57  ASP57      -0.1239
     37  CA        19.6540    6.5550  109.9730 C.3    57  ASP57       0.1674
     38  C         20.0420    5.5840  108.8570 C.2    57  ASP57       0.2266
     39  O         19.2670    5.3490  107.9340 O.2    57  ASP57      -0.2867
     40  CB        18.2850    6.2190  110.5450 C.3    57  ASP57       0.1410
     41  CG        18.3600    5.2290  111.6700 C.2    57  ASP57       0.3668
     42  OD1       19.4790    4.7470  111.9550 O.co2  57  ASP57      -0.2456
     43  OD2       17.2990    4.9250  112.2630 O.co2  57  ASP57      -0.2456
     44  N         11.9390   -6.5150  111.4390 N.3   116  ARG116     -0.1231
     45  CA        11.9950   -6.4420  112.9000 C.3   116  ARG116      0.1694
     46  C         11.4300   -5.1300  113.4190 C.2   116  ARG116      0.2592
     47  O         11.1850   -4.9870  114.6070 O.2   116  ARG116     -0.2718
     48  CB        13.4120   -6.5920  113.4400 C.3   116  ARG116      0.0321
     49  CG        14.3410   -7.5000  112.6840 C.3   116  ARG116      0.0489
     50  CD        15.7580   -7.0470  112.9940 C.3   116  ARG116      0.2205
     51  NE        15.8190   -5.5820  113.0560 N.pl3 116  ARG116     -0.0865
     52  CZ        16.8070   -4.8710  113.6000 C.cat 116  ARG116      0.5346
     53  NH1       16.7340   -3.5430  113.6000 N.pl3 116  ARG116      0.1354
     54  NH2       17.8590   -5.4760  114.1450 N.pl3 116  ARG116      0.1354
     55  N         11.2340   -4.1630  112.5350 N.am  117  ARG117     -0.1966
     56  CA        10.7360   -2.8660  112.9710 C.3   117  ARG117      0.1729
     57  C          9.2770   -2.8810  113.4640 C.2   117  ARG117      0.2616
     58  O          8.5950   -3.9140  113.3960 O.2   117  ARG117     -0.2715
     59  CB        10.9930   -1.8240  111.8890 C.3   117  ARG117      0.0348
     60  CG        12.4520   -1.4200  111.8760 C.3   117  ARG117      0.0492
     61  CD        12.9200   -0.9560  110.5430 C.3   117  ARG117      0.2205
     62  NE        14.3580   -1.1450  110.4150 N.pl3 117  ARG117     -0.0865
     63  CZ        15.2600   -0.3200  110.9290 C.cat 117  ARG117      0.5346
     64  NH1       16.5610   -0.5620  110.7560 N.pl3 117  ARG117      0.1354
     65  NH2       14.8530    0.7480  111.6100 N.pl3 117  ARG117      0.1354
     66  N          8.8180   -1.7450  113.9890 N.am  118  ASP118     -0.1971
     67  CA         7.5480   -1.7020  114.7220 C.3   118  ASP118      0.1709
     68  C          6.2920   -1.6440  113.8540 C.2   118  ASP118      0.2293
     69  O          5.4510   -2.5410  113.9150 O.2   118  ASP118     -0.2864
     70  CB         7.5390   -0.5740  115.7630 C.3   118  ASP118      0.1436
     71  CG         7.9170    0.7890  115.1840 C.2   118  ASP118      0.3671
     72  OD1        7.7270    1.7960  115.9070 O.co2 118  ASP118     -0.2456
     73  OD2        8.4010    0.8660  114.0290 O.co2 118  ASP118     -0.2456
     74  N          7.0650    2.8670  109.4880 N.3   122  ASN122     -0.1240
     75  CA         8.4410    2.9850  109.9590 C.3   122  ASN122      0.1653
     76  C          9.3120    1.8510  109.4120 C.2   122  ASN122      0.2266
     77  O         10.5140    1.8090  109.6650 O.2   122  ASN122     -0.2867
     78  CB         8.5110    2.9970  111.4920 C.3   122  ASN122      0.1155
     79  CG         7.7340    4.1540  112.1220 C.2   122  ASN122      0.2627
     80  OD1        7.3510    5.1070  111.4400 O.2   122  ASN122     -0.2716
     81  ND2        7.4940    4.0660  113.4400 N.am  122  ASN122     -0.0877
     82  N          7.9530   -7.1060  121.8810 N.3   162  ASP162     -0.1239
     83  CA         8.3000   -5.8390  122.4980 C.3   162  ASP162      0.1674
     84  C          7.0870   -5.0330  122.9290 C.2   162  ASP162      0.2266
     85  O          6.6290   -4.1960  122.2010 O.2   162  ASP162     -0.2867
     86  CB         9.1590   -5.0430  121.5440 C.3   162  ASP162      0.1410
     87  CG         9.4680   -3.7010  122.0510 C.2   162  ASP162      0.3668
     88  OD1        8.6040   -3.1400  122.7240 O.co2 162  ASP162     -0.2456
     89  OD2       10.5600   -3.2060  121.7640 O.co2 162  ASP162     -0.2456
     90  N          6.6160   -2.5140  124.5790 N.3   164  THR164     -0.1203
     91  CA         6.8440   -1.0880  124.3390 C.3   164  THR164      0.1994
     92  C          6.0530   -0.5370  123.1390 C.2   164  THR164      0.2617
     93  O          5.5870    0.6040  123.1580 O.2   164  THR164     -0.2717
     94  CB         8.3520   -0.8350  124.1180 C.3   164  THR164      0.1784
     95  OG1        9.0270   -0.8940  125.3720 O.3   164  THR164     -0.2211
     96  CG2        8.6150    0.5050  123.5090 C.3   164  THR164      0.0376
     97  N          5.8970   -1.3510  122.0990 N.am  165  ARG165     -0.1979
     98  CA         5.2220   -0.9150  120.8740 C.3   165  ARG165      0.1597
     99  C          3.7370   -0.6010  121.0730 C.2   165  ARG165      0.2287
    100  O          3.0910   -0.0660  120.1790 O.2   165  ARG165     -0.2864
    101  CB         5.4040   -1.9470  119.7580 C.3   165  ARG165      0.0334
    102  CG         6.8540   -2.1290  119.2940 C.3   165  ARG165      0.0492
    103  CD         7.0680   -3.4730  118.6020 C.3   165  ARG165      0.2205
    104  NE         8.4740   -3.7170  118.3200 N.pl3 165  ARG165     -0.0865
    105  CZ         8.9680   -4.8260  117.7790 C.cat 165  ARG165      0.5346
    106  NH1       10.2740   -4.9300  117.5720 N.pl3 165  ARG165      0.1354
    107  NH2        8.1730   -5.8320  117.4510 N.pl3 165  ARG165      0.1354
    108  N          4.0340    2.9500  121.9150 N.3   168  ARG168     -0.1245
    109  CA         4.4770    3.5220  120.6420 C.3   168  ARG168      0.1563
    110  C          3.3330    3.6930  119.6450 C.2   168  ARG168      0.2260
    111  O          3.1590    4.7680  119.0700 O.2   168  ARG168     -0.2867
    112  CB         5.6050    2.6910  120.0210 C.3   168  ARG168      0.0307
    113  CG         6.9630    2.9360  120.6700 C.3   168  ARG168      0.0489
    114  CD         8.0440    2.0010  120.1470 C.3   168  ARG168      0.2205
    115  NE         8.4990    2.4140  118.8350 N.pl3 168  ARG168     -0.0865
    116  CZ         9.2550    3.4840  118.6180 C.cat 168  ARG168      0.5346
    117  NH1        9.6250    3.8000  117.3790 N.pl3 168  ARG168      0.1354
    118  NH2        9.6370    4.2380  119.6430 N.pl3 168  ARG168      0.1354
    119  N          1.2590    6.6130  120.5820 N.3   171  ARG171     -0.1231
    120  CA         1.9890    7.8540  120.3580 C.3   171  ARG171      0.1694
    121  C          1.9170    8.3090  118.9110 C.2   171  ARG171      0.2592
    122  O          1.6780    9.4920  118.6430 O.2   171  ARG171     -0.2718
    123  CB         3.4600    7.7500  120.7660 C.3   171  ARG171      0.0321
    124  CG         4.1650    9.0780  120.5380 C.3   171  ARG171      0.0489
    125  CD         5.4500    9.1810  121.2710 C.3   171  ARG171      0.2205
    126  NE         6.5810    8.8350  120.4180 N.pl3 171  ARG171     -0.0865
    127  CZ         7.1960    7.6660  120.4800 C.cat 171  ARG171      0.5346
    128  NH1        8.2220    7.4100  119.6940 N.pl3 171  ARG171      0.1354
    129  NH2        6.7720    6.7580  121.3480 N.pl3 171  ARG171      0.1354
    130  N          2.1500    7.3680  117.9940 N.am  172  PHE172     -0.1976
    131  CA         2.1290    7.6410  116.5570 C.3   172  PHE172      0.1639
    132  C          0.7170    7.9310  116.0610 C.2   172  PHE172      0.2290
    133  O          0.5010    8.8280  115.2490 O.2   172  PHE172     -0.2864
    134  CB         2.7080    6.4600  115.7890 C.3   172  PHE172      0.0560
    135  CG         4.1880    6.3410  115.9050 C.ar  172  PHE172     -0.0200
    136  CD1        4.7660    5.1860  116.3920 C.ar  172  PHE172     -0.0042
    137  CD2        5.0100    7.3940  115.5290 C.ar  172  PHE172     -0.0042
    138  CE1        6.1390    5.0800  116.4950 C.ar  172  PHE172     -0.0003
    139  CE2        6.3740    7.2930  115.6310 C.ar  172  PHE172     -0.0003
    140  CZ         6.9400    6.1360  116.1140 C.ar  172  PHE172     -0.0000
    141  N          0.1840   11.4450  116.8240 N.3   175  ARG175     -0.1245
    142  CA         1.1140   12.3840  116.2080 C.3   175  ARG175      0.1563
    143  C          0.7090   12.6730  114.7750 C.2   175  ARG175      0.2260
    144  O          0.7760   13.8130  114.3170 O.2   175  ARG175     -0.2867
    145  CB         2.5430   11.8510  116.1960 C.3   175  ARG175      0.0307
    146  CG         3.4890   12.8060  115.4780 C.3   175  ARG175      0.0489
    147  CD         4.7650   12.1450  115.0380 C.3   175  ARG175      0.2205
    148  NE         5.4510   11.5160  116.1490 N.pl3 175  ARG175     -0.0865
    149  CZ         6.7670   11.3650  116.2180 C.cat 175  ARG175      0.5346
    150  NH1        7.3110   10.7770  117.2740 N.pl3 175  ARG175      0.1354
    151  NH2        7.5380   11.8080  115.2340 N.pl3 175  ARG175      0.1354
    152  N         12.2960    1.2010  130.0810 N.3   204  ARG204     -0.1245
    153  CA        11.8030    1.0820  128.7160 C.3   204  ARG204      0.1563
    154  C         10.3970    1.6430  128.5630 C.2   204  ARG204      0.2260
    155  O         10.1050    2.3340  127.5940 O.2   204  ARG204     -0.2867
    156  CB        11.8550   -0.3700  128.2480 C.3   204  ARG204      0.0307
    157  CG        13.2270   -1.0170  128.4130 C.3   204  ARG204      0.0489
    158  CD        13.4560   -2.0600  127.3420 C.3   204  ARG204      0.2205
    159  NE        13.1360   -1.5050  126.0280 N.pl3 204  ARG204     -0.0865
    160  CZ        12.4850   -2.1660  125.0770 C.cat 204  ARG204      0.5346
    161  NH1       12.2260   -1.5770  123.9140 N.pl3 204  ARG204      0.1354
    162  NH2       12.0800   -3.4130  125.2970 N.pl3 204  ARG204      0.1354
    163  N          9.1070    5.5630  126.8760 N.3   208  GLU208     -0.1245
    164  CA         8.0520    5.6180  125.8620 C.3   208  GLU208      0.1567
    165  C          6.9120    6.4980  126.3010 C.2   208  GLU208      0.2260
    166  O          6.1660    7.0390  125.4790 O.2   208  GLU208     -0.2867
    167  CB         7.5120    4.2220  125.5920 C.3   208  GLU208      0.0388
    168  CG         8.2900    3.5210  124.5370 C.3   208  GLU208      0.1160
    169  CD         8.2620    4.2910  123.2460 C.2   208  GLU208      0.3649
    170  OE1        7.2530    5.0040  123.0200 O.co2 208  GLU208     -0.2457
    171  OE2        9.2360    4.1790  122.4690 O.co2 208  GLU208     -0.2457
    172  N          7.9860   10.1910  126.3620 N.3   211  LYS211     -0.1245
    173  CA         7.8840   10.4380  124.9220 C.3   211  LYS211      0.1561
    174  C          6.4500   10.7700  124.4770 C.2   211  LYS211      0.2260
    175  O          6.2380   11.6450  123.6410 O.2   211  LYS211     -0.2867
    176  CB         8.3870    9.2140  124.1550 C.3   211  LYS211      0.0271
    177  CG         9.2540    9.5140  122.9480 C.3   211  LYS211      0.0035
    178  CD        10.7220    9.3170  123.2750 C.3   211  LYS211      0.0206
    179  CE        11.1620    7.8770  123.0510 C.3   211  LYS211      0.1093
    180  NZ        11.6530    7.6480  121.6670 N.3   211  LYS211     -0.1314
@<TRIPOS>BOND
     1    12    11    2
     2     9    10    1
     3    11    10    1
     4    10    13    1
     5    23    22    2
     6    39    38    2
     7    13    14    1
     8     4     3    2
     9     1     2    1
    10    14    15    1
    11    20    21    1
    12     8     7    2
    13    38    37    1
    14    24    21    1
    15    24    25    1
    16    22    21    1
    17    31    30    2
    18     7     6    1
    19     3     2    1
    20     3     5   am
    21    76    77    2
    22    76    75    1
    23    36    37    1
    24    74    75    1
    25    75    78    1
    26    37    40    1
    27    25    26    2
    28    25    27   am
    29    15    16    1
    30    30    29    1
    31     6     5    1
    32    62    61    1
    33    62    63    2
    34    61    60    1
    35    40    41    1
    36    16    17    2
    37    64    63    1
    38    63    65    1
    39    28    29    1
    40    29    32    1
    41    44    45    1
    42    80    79    2
    43    78    79    1
    44    41    42   ar
    45    41    43   ar
    46    17    19    1
    47    17    18    1
    48    60    59    1
    49    59    56    1
    50    32    33    1
    51    79    81   am
    52    55    56    1
    53    55    46   am
    54    49    50    1
    55    49    48    1
    56    45    46    1
    57    45    48    1
    58    56    57    1
    59    50    51    1
    60    51    52    2
    61    33    34   ar
    62    33    35   ar
    63    58    57    2
    64    46    47    2
    65    57    66   am
    66    52    53    1
    67    52    54    1
    68    68    69    2
    69    68    67    1
    70    66    67    1
    71    73    71   ar
    72   144   143    2
    73    67    70    1
    74   143   142    1
    75   147   146    1
    76   147   148    1
    77    71    70    1
    78    71    72   ar
    79   151   149    1
    80   133   132    2
    81   146   145    1
    82   137   139   ar
    83   137   135   ar
    84   139   140   ar
    85   134   135    1
    86   134   131    1
    87   135   136   ar
    88   132   131    1
    89   140   138   ar
    90   148   149    2
    91   145   142    1
    92   142   141    1
    93   149   150    1
    94   136   138   ar
    95   131   130    1
    96   117   116    1
    97   107   105    1
    98   106   105    1
    99   105   104    2
   100   130   121   am
   101   104   103    1
   102   103   102    1
   103   116   115    2
   104   116   118    1
   105   122   121    2
   106   115   114    1
   107   121   120    1
   108   111   110    2
   109   102   101    1
   110   110   109    1
   111   128   127    1
   112   101    98    1
   113   112   109    1
   114   112   113    1
   115   114   113    1
   116   100    99    2
   117   120   119    1
   118   120   123    1
   119   126   127    2
   120   126   125    1
   121   127   129    1
   122   124   123    1
   123   124   125    1
   124   109   108    1
   125    98    99    1
   126    98    97    1
   127    86    87    1
   128    86    83    1
   129   180   179    1
   130    89    87   ar
   131    82    83    1
   132    87    88   ar
   133    97    92   am
   134    85    84    2
   135   171   169   ar
   136    83    84    1
   137   177   178    1
   138   177   176    1
   139   170   169   ar
   140   179   178    1
   141    92    93    2
   142    92    91    1
   143   169   168    1
   144    96    94    1
   145   175   174    2
   146   161   160    1
   147    94    91    1
   148    94    95    1
   149   176   173    1
   150    91    90    1
   151   174   173    1
   152   168   167    1
   153   173   172    1
   154   160   162    1
   155   160   159    2
   156   166   165    2
   157   167   164    1
   158   164   165    1
   159   164   163    1
   160   159   158    1
   161   158   157    1
   162   155   154    2
   163   156   157    1
   164   156   153    1
   165   154   153    1
   166   153   152    1
