@<TRIPOS>MOLECULE
tmp/3h3aA00.pdb
 161 148 0 0 0
SMALL
GASTEIGER

@<TRIPOS>ATOM
      1  N         28.2800    5.8070   33.1090 N.3    41  GLY41      -0.1210
      2  CA        27.4480    6.2570   34.1990 C.3    41  GLY41       0.1956
      3  C         26.7260    7.5690   33.9880 C.2    41  GLY41       0.2612
      4  O         26.0980    7.8050   32.9600 O.2    41  GLY41      -0.2717
      5  N         26.8150    8.4260   34.9910 N.am   42  GLY42      -0.1956
      6  CA        25.9370    9.5640   35.0870 C.3    42  GLY42       0.1869
      7  C         26.2640   10.6250   34.0840 C.2    42  GLY42       0.2309
      8  O         25.4430   11.5080   33.8400 O.2    42  GLY42      -0.2863
      9  N         24.3360    9.6330   30.8270 N.3    45  ARG45      -0.1245
     10  CA        22.9860   10.0720   31.1660 C.3    45  ARG45       0.1563
     11  C         22.7810   11.5840   31.0390 C.2    45  ARG45       0.2260
     12  O         21.8550   12.0390   30.3630 O.2    45  ARG45      -0.2867
     13  CB        22.6480    9.6240   32.5880 C.3    45  ARG45       0.0307
     14  CG        21.2430    9.9540   33.0620 C.3    45  ARG45       0.0489
     15  CD        21.1750    9.9250   34.5790 C.3    45  ARG45       0.2205
     16  NE        21.8310   11.1000   35.1530 N.pl3  45  ARG45      -0.0865
     17  CZ        22.5950   11.0800   36.2410 C.cat  45  ARG45       0.5346
     18  NH1       22.8170    9.9400   36.8770 N.pl3  45  ARG45       0.1354
     19  NH2       23.1470   12.2000   36.6850 N.pl3  45  ARG45       0.1354
     20  N         31.6250   15.3170   36.5770 N.3    55  ASP55      -0.1239
     21  CA        32.1000   13.9810   36.8910 C.3    55  ASP55       0.1674
     22  C         32.5010   13.3300   35.5800 C.2    55  ASP55       0.2266
     23  O         31.7470   13.3840   34.6110 O.2    55  ASP55      -0.2867
     24  CB        30.9980   13.1590   37.5600 C.3    55  ASP55       0.1410
     25  CG        30.5390   13.7560   38.8790 C.2    55  ASP55       0.3668
     26  OD1       31.3940   14.2860   39.6250 O.co2  55  ASP55      -0.2456
     27  OD2       29.3200   13.6910   39.1680 O.co2  55  ASP55      -0.2456
     28  N         33.5520    9.7230   34.9100 N.3    57  ASP57      -0.1239
     29  CA        33.7380    8.3160   35.2370 C.3    57  ASP57       0.1674
     30  C         34.2450    7.5580   34.0070 C.2    57  ASP57       0.2266
     31  O         33.7150    7.7290   32.9130 O.2    57  ASP57      -0.2867
     32  CB        32.4000    7.7280   35.6890 C.3    57  ASP57       0.1410
     33  CG        32.5630    6.6010   36.6900 C.2    57  ASP57       0.3668
     34  OD1       33.6320    6.5520   37.3390 O.co2  57  ASP57      -0.2456
     35  OD2       31.6230    5.7740   36.8400 O.co2  57  ASP57      -0.2456
     36  N         25.0140   -2.5010   37.3010 N.3   115  ARG115     -0.1231
     37  CA        24.5580   -1.2270   37.8510 C.3   115  ARG115      0.1694
     38  C         23.0830   -1.2040   38.2410 C.2   115  ARG115      0.2592
     39  O         22.3820   -2.2180   38.1450 O.2   115  ARG115     -0.2718
     40  CB        24.8840   -0.0820   36.8940 C.3   115  ARG115      0.0321
     41  CG        26.2080   -0.2720   36.1510 C.3   115  ARG115      0.0489
     42  CD        26.9860    1.0370   35.9900 C.3   115  ARG115      0.2205
     43  NE        28.3800    0.7840   35.6310 N.pl3 115  ARG115     -0.0865
     44  CZ        29.3850    1.6100   35.8970 C.cat 115  ARG115      0.5346
     45  NH1       30.6200    1.2850   35.5290 N.pl3 115  ARG115      0.1354
     46  NH2       29.1580    2.7530   36.5390 N.pl3 115  ARG115      0.1354
     47  N         22.6270   -0.0320   38.6440 N.am  116  ASP116     -0.1974
     48  CA        21.2820    0.1290   39.1190 C.3   116  ASP116      0.1709
     49  C         20.1820    0.3760   38.1080 C.2   116  ASP116      0.2293
     50  O         19.1960   -0.3130   38.1050 O.2   116  ASP116     -0.2864
     51  CB        21.2930    1.3220   40.0530 C.3   116  ASP116      0.1436
     52  CG        21.7530    2.5620   39.3700 C.2   116  ASP116      0.3671
     53  OD1       22.1200    2.4640   38.2060 O.co2 116  ASP116     -0.2456
     54  OD2       21.7540    3.6330   39.9710 O.co2 116  ASP116     -0.2456
     55  N         21.3990    4.7470   33.9770 N.3   120  ASN120     -0.1240
     56  CA        22.7240    4.9120   34.5620 C.3   120  ASN120      0.1653
     57  C         23.6570    3.8390   34.0450 C.2   120  ASN120      0.2266
     58  O         24.8610    3.8610   34.3180 O.2   120  ASN120     -0.2867
     59  CB        22.6800    4.8630   36.0950 C.3   120  ASN120      0.1155
     60  CG        21.9470    6.0450   36.7110 C.2   120  ASN120      0.2627
     61  OD1       21.8300    7.1200   36.1060 O.2   120  ASN120     -0.2716
     62  ND2       21.4590    5.8520   37.9370 N.am  120  ASN120     -0.0877
     63  N         22.0590   -4.8460   45.9820 N.3   160  ASP160     -0.1239
     64  CA        22.2770   -3.6290   46.7390 C.3   160  ASP160      0.1674
     65  C         20.9850   -2.8970   47.0010 C.2   160  ASP160      0.2266
     66  O         20.4570   -2.2270   46.1360 O.2   160  ASP160     -0.2867
     67  CB        23.2490   -2.6980   46.0560 C.3   160  ASP160      0.1410
     68  CG        23.2460   -1.3380   46.6780 C.2   160  ASP160      0.3668
     69  OD1       22.1870   -0.9470   47.2000 O.co2 160  ASP160     -0.2456
     70  OD2       24.2830   -0.6620   46.6490 O.co2 160  ASP160     -0.2456
     71  N         20.4130   -0.2650   48.8150 N.3   162  THR162     -0.1203
     72  CA        20.4820    1.1890   48.7540 C.3   162  THR162      0.1994
     73  C         19.8760    1.7390   47.4570 C.2   162  THR162      0.2617
     74  O         19.4940    2.9020   47.3810 O.2   162  THR162     -0.2717
     75  CB        21.9180    1.7050   48.9050 C.3   162  THR162      0.1784
     76  OG1       21.8990    3.1330   48.9410 O.3   162  THR162     -0.2211
     77  CG2       22.7770    1.2750   47.7380 C.3   162  THR162      0.0376
     78  N         19.7840    0.9060   46.4310 N.am  163  ARG163     -0.1979
     79  CA        19.1720    1.3480   45.1840 C.3   163  ARG163      0.1597
     80  C         17.6810    1.6310   45.3730 C.2   163  ARG163      0.2287
     81  O         17.0490    2.2570   44.5240 O.2   163  ARG163     -0.2864
     82  CB        19.3970    0.3220   44.0740 C.3   163  ARG163      0.0334
     83  CG        20.8580    0.1650   43.6920 C.3   163  ARG163      0.0492
     84  CD        21.0760   -0.9720   42.7100 C.3   163  ARG163      0.2205
     85  NE        22.4890   -1.1450   42.3900 N.pl3 163  ARG163     -0.0865
     86  CZ        23.0040   -2.2230   41.8050 C.cat 163  ARG163      0.5346
     87  NH1       24.3060   -2.2840   41.5600 N.pl3 163  ARG163      0.1354
     88  NH2       22.2240   -3.2430   41.4690 N.pl3 163  ARG163      0.1354
     89  N         17.7700    5.1920   46.1060 N.3   166  ARG166     -0.1245
     90  CA        18.2710    5.8370   44.9000 C.3   166  ARG166      0.1563
     91  C         17.1420    5.9500   43.8930 C.2   166  ARG166      0.2260
     92  O         16.8360    7.0420   43.4120 O.2   166  ARG166     -0.2867
     93  CB        19.4430    5.0530   44.3070 C.3   166  ARG166      0.0307
     94  CG        20.6920    5.1170   45.1620 C.3   166  ARG166      0.0489
     95  CD        21.7940    4.2260   44.6350 C.3   166  ARG166      0.2205
     96  NE        22.0880    4.5230   43.2440 N.pl3 166  ARG166     -0.0865
     97  CZ        22.7630    5.5910   42.8390 C.cat 166  ARG166      0.5346
     98  NH1       22.9870    5.7850   41.5420 N.pl3 166  ARG166      0.1354
     99  NH2       23.2090    6.4660   43.7320 N.pl3 166  ARG166      0.1354
    100  N         15.0550    8.7460   44.8350 N.3   169  ARG169     -0.1231
    101  CA        15.6390   10.0790   44.6540 C.3   169  ARG169      0.1694
    102  C         15.6630   10.4960   43.1850 C.2   169  ARG169      0.2592
    103  O         15.4330   11.6620   42.8440 O.2   169  ARG169     -0.2718
    104  CB        17.0570   10.2030   45.2430 C.3   169  ARG169      0.0321
    105  CG        17.6830   11.5680   44.9270 C.3   169  ARG169      0.0489
    106  CD        18.9570   11.8510   45.6760 C.3   169  ARG169      0.2205
    107  NE        20.1360   11.4040   44.9430 N.pl3 169  ARG169     -0.0865
    108  CZ        20.5800   10.1560   44.9700 C.cat 169  ARG169      0.5346
    109  NH1       21.6620    9.8260   44.2790 N.pl3 169  ARG169      0.1354
    110  NH2       19.9260    9.2430   45.6900 N.pl3 169  ARG169      0.1354
    111  N         15.9530    9.5350   42.3180 N.am  170  PHE170     -0.1976
    112  CA        15.9730    9.7820   40.8870 C.3   170  PHE170      0.1639
    113  C         14.6320   10.2920   40.3460 C.2   170  PHE170      0.2290
    114  O         14.6040   11.1990   39.5130 O.2   170  PHE170     -0.2864
    115  CB        16.4420    8.5340   40.1370 C.3   170  PHE170      0.0560
    116  CG        17.9070    8.2650   40.2890 C.ar  170  PHE170     -0.0200
    117  CD1       18.3850    6.9720   40.3850 C.ar  170  PHE170     -0.0042
    118  CD2       18.8060    9.3160   40.3540 C.ar  170  PHE170     -0.0042
    119  CE1       19.7350    6.7340   40.5290 C.ar  170  PHE170     -0.0003
    120  CE2       20.1450    9.0850   40.5050 C.ar  170  PHE170     -0.0003
    121  CZ        20.6120    7.7910   40.5920 C.ar  170  PHE170     -0.0000
    122  N         14.4320   13.8530   41.2640 N.3   173  ARG173     -0.1245
    123  CA        15.5780   14.4670   40.6160 C.3   173  ARG173      0.1563
    124  C         15.2990   14.8280   39.1540 C.2   173  ARG173      0.2260
    125  O         15.4510   15.9900   38.7690 O.2   173  ARG173     -0.2867
    126  CB        16.7960   13.5450   40.7300 C.3   173  ARG173      0.0307
    127  CG        17.9590   13.8860   39.8020 C.3   173  ARG173      0.0489
    128  CD        18.8890   14.9170   40.3980 C.3   173  ARG173      0.2205
    129  NE        20.1980   14.8770   39.7570 N.pl3 173  ARG173     -0.0865
    130  CZ        21.1780   14.0570   40.1190 C.cat 173  ARG173      0.5346
    131  NH1       22.3380   14.0790   39.4740 N.pl3 173  ARG173      0.1354
    132  NH2       20.9960   13.2140   41.1270 N.pl3 173  ARG173      0.1354
    133  N         25.6900    3.4990   54.9440 N.3   202  ARG202     -0.1245
    134  CA        25.2370    3.4030   53.5680 C.3   202  ARG202      0.1563
    135  C         23.8200    3.9540   53.3850 C.2   202  ARG202      0.2260
    136  O         23.5910    4.8250   52.5390 O.2   202  ARG202     -0.2867
    137  CB        25.3340    1.9610   53.0860 C.3   202  ARG202      0.0307
    138  CG        26.7220    1.3640   53.2340 C.3   202  ARG202      0.0489
    139  CD        26.9220    0.2760   52.2120 C.3   202  ARG202      0.2205
    140  NE        26.6860    0.7890   50.8660 N.pl3 202  ARG202     -0.0865
    141  CZ        25.9890    0.1480   49.9340 C.cat 202  ARG202      0.5346
    142  NH1       25.8240    0.6940   48.7310 N.pl3 202  ARG202      0.1354
    143  NH2       25.4470   -1.0320   50.2130 N.pl3 202  ARG202      0.1354
    144  N         22.6960    7.9340   51.5780 N.3   206  GLU206     -0.1245
    145  CA        21.6470    7.9990   50.5760 C.3   206  GLU206      0.1567
    146  C         20.4550    8.8030   51.0790 C.2   206  GLU206      0.2260
    147  O         19.9010    9.6290   50.3520 O.2   206  GLU206     -0.2867
    148  CB        21.2060    6.6060   50.1530 C.3   206  GLU206      0.0388
    149  CG        20.7120    6.5750   48.7360 C.3   206  GLU206      0.1160
    150  CD        21.8260    6.8350   47.7380 C.2   206  GLU206      0.3649
    151  OE1       21.6130    7.6570   46.8260 O.co2 206  GLU206     -0.2457
    152  OE2       22.9140    6.2220   47.8540 O.co2 206  GLU206     -0.2457
    153  N         21.1740   12.4250   50.7560 N.3   209  LYS209     -0.1245
    154  CA        21.0420   12.8550   49.3650 C.3   209  LYS209      0.1561
    155  C         19.5830   13.1370   48.9890 C.2   209  LYS209      0.2260
    156  O         19.2800   14.1770   48.4040 O.2   209  LYS209     -0.2867
    157  CB        21.6610   11.8290   48.4100 C.3   209  LYS209      0.0271
    158  CG        23.1930   11.8230   48.3840 C.3   209  LYS209      0.0035
    159  CD        23.7390   10.5870   47.6620 C.3   209  LYS209      0.0206
    160  CE        25.2650   10.5360   47.6550 C.3   209  LYS209      0.1093
    161  NZ        25.7920    9.1450   47.4450 N.3   209  LYS209     -0.1314
@<TRIPOS>BOND
     1    12    11    2
     2     9    10    1
     3    11    10    1
     4    10    13    1
     5    13    14    1
     6    31    30    2
     7     4     3    2
     8    14    15    1
     9     1     2    1
    10     8     7    2
    11    55    56    1
    12     3     2    1
    13     3     5   am
    14    30    29    1
    15    57    58    2
    16    57    56    1
    17     7     6    1
    18    56    59    1
    19    15    16    1
    20    23    22    2
    21    28    29    1
    22     5     6    1
    23    16    17    2
    24    29    32    1
    25    45    44    1
    26    22    21    1
    27    43    44    2
    28    43    42    1
    29    32    33    1
    30    44    46    1
    31    42    41    1
    32    59    60    1
    33    61    60    2
    34    41    40    1
    35    17    19    1
    36    17    18    1
    37    20    21    1
    38    33    35   ar
    39    33    34   ar
    40    60    62   am
    41    21    24    1
    42    40    37    1
    43    36    37    1
    44    24    25    1
    45    37    38    1
    46    50    49    2
    47    49    48    1
    48    39    38    2
    49    53    52   ar
    50    38    47   am
    51    47    48    1
    52   125   124    2
    53    25    27   ar
    54    25    26   ar
    55    48    51    1
    56   124   123    1
    57    52    54   ar
    58    52    51    1
    59   131   130    1
    60   114   113    2
    61   129   130    2
    62   129   128    1
    63   127   128    1
    64   127   126    1
    65   130   132    1
    66   115   116    1
    67   115   112    1
    68   116   118   ar
    69   116   117   ar
    70   113   112    1
    71   118   120   ar
    72   117   119   ar
    73   120   121   ar
    74   119   121   ar
    75   123   126    1
    76   123   122    1
    77   112   111    1
    78    88    86    1
    79    98    97    1
    80    87    86    1
    81    86    85    2
    82   111   102   am
    83    85    84    1
    84    84    83    1
    85    97    96    2
    86    97    99    1
    87   103   102    2
    88   102   101    1
    89    96    95    1
    90    92    91    2
    91    83    82    1
    92    91    90    1
    93    82    79    1
    94   109   108    1
    95    93    90    1
    96    93    94    1
    97    81    80    2
    98    95    94    1
    99   101   100    1
   100   101   104    1
   101    90    89    1
   102   105   104    1
   103   105   106    1
   104   107   108    2
   105   107   106    1
   106   108   110    1
   107    79    80    1
   108    79    78    1
   109    63    64    1
   110    67    68    1
   111    67    64    1
   112    66    65    2
   113    78    73   am
   114    70    68   ar
   115    68    69   ar
   116    64    65    1
   117   151   150   ar
   118    74    73    2
   119   161   160    1
   120    73    72    1
   121   160   159    1
   122   159   158    1
   123    77    75    1
   124   150   152   ar
   125   150   149    1
   126   158   157    1
   127   156   155    2
   128   157   154    1
   129   142   141    1
   130   149   148    1
   131    72    71    1
   132    72    75    1
   133    75    76    1
   134   155   154    1
   135   154   153    1
   136   141   143    1
   137   141   140    2
   138   148   145    1
   139   147   146    2
   140   145   146    1
   141   145   144    1
   142   140   139    1
   143   139   138    1
   144   136   135    2
   145   137   138    1
   146   137   134    1
   147   135   134    1
   148   134   133    1
