@<TRIPOS>MOLECULE
tmp/3h3cA00.pdb
 187 181 0 0 0
SMALL
GASTEIGER

@<TRIPOS>ATOM
      1  N         16.2120  -18.0450    2.7320 N.3    16  LEU16      -0.1231
      2  CA        16.7340  -16.6960    2.6390 C.3    16  LEU16       0.1693
      3  C         17.7540  -16.3850    3.7580 C.2    16  LEU16       0.2593
      4  O         18.8380  -15.9090    3.4870 O.2    16  LEU16      -0.2718
      5  CB        15.5800  -15.7090    2.6120 C.3    16  LEU16       0.0284
      6  CG        15.8730  -14.2780    2.2630 C.3    16  LEU16       0.0019
      7  CD1       16.4820  -14.1280    0.8040 C.3    16  LEU16       0.0001
      8  CD2       14.5120  -13.5820    2.3890 C.3    16  LEU16       0.0001
      9  N         17.3920  -16.6500    5.0120 N.am   17  GLY17      -0.1942
     10  CA        18.2940  -16.4690    6.1440 C.3    17  GLY17       0.2014
     11  C         17.5040  -16.6130    7.4430 C.2    17  GLY17       0.2639
     12  O         16.2520  -16.6630    7.4080 O.2    17  GLY17      -0.2714
     13  N         18.1870  -16.7200    8.5810 N.am   18  GLU18      -0.1963
     14  CA        17.4280  -16.8670    9.8340 C.3    18  GLU18       0.1733
     15  C         16.9380  -15.5010   10.2880 C.2    18  GLU18       0.2616
     16  O         17.6840  -14.5230   10.2650 O.2    18  GLU18      -0.2715
     17  CB        18.2000  -17.5750   10.9530 C.3    18  GLU18       0.0429
     18  CG        17.7050  -19.0040   11.2470 C.3    18  GLU18       0.1163
     19  CD        16.5470  -19.1670   12.2540 C.2    18  GLU18       0.3649
     20  OE1       16.2550  -18.2560   13.0730 O.co2  18  GLU18      -0.2457
     21  OE2       15.9460  -20.2800   12.2680 O.co2  18  GLU18      -0.2457
     22  N         15.6580  -15.4250   10.6000 N.am   19  GLY19      -0.1955
     23  CA        15.1010  -14.2330   11.2080 C.3    19  GLY19       0.1869
     24  C         15.0850  -14.4460   12.7280 C.2    19  GLY19       0.2309
     25  O         15.3620  -15.5460   13.2160 O.2    19  GLY19      -0.2863
     26  N         13.5080  -17.6100    7.4140 N.3    24  VAL24      -0.1245
     27  CA        12.7960  -16.9190    6.3650 C.3    24  VAL24       0.1561
     28  C         13.1970  -17.5050    5.0100 C.2    24  VAL24       0.2260
     29  O         14.3970  -17.7510    4.7280 O.2    24  VAL24      -0.2867
     30  CB        13.0710  -15.3670    6.3640 C.3    24  VAL24       0.0252
     31  CG1       12.2160  -14.6720    5.3240 C.3    24  VAL24       0.0019
     32  CG2       12.8270  -14.7560    7.7700 C.3    24  VAL24       0.0019
     33  N         12.7240  -17.6020    0.5710 N.3    26  GLU26      -0.1245
     34  CA        12.3700  -16.9260   -0.6660 C.3    26  GLU26       0.1567
     35  C         11.3070  -17.7280   -1.3640 C.2    26  GLU26       0.2260
     36  O         11.4200  -18.9540   -1.5050 O.2    26  GLU26      -0.2867
     37  CB        13.5560  -16.8970   -1.6580 C.3    26  GLU26       0.0388
     38  CG        14.5700  -15.8020   -1.5060 C.3    26  GLU26       0.1160
     39  CD        15.5630  -15.7680   -2.6750 C.2    26  GLU26       0.3649
     40  OE1       15.5070  -14.8240   -3.4880 O.co2  26  GLU26      -0.2457
     41  OE2       16.4020  -16.6760   -2.7890 O.co2  26  GLU26      -0.2457
     42  N          9.4050  -12.8250    0.6690 N.3    40  ALA40      -0.1245
     43  CA        10.1370  -13.3980    1.7710 C.3    40  ALA40       0.1562
     44  C          9.1200  -13.8960    2.8090 C.2    40  ALA40       0.2260
     45  O          8.2690  -13.1290    3.2950 O.2    40  ALA40      -0.2867
     46  CB        11.0490  -12.3630    2.3880 C.3    40  ALA40       0.0290
     47  N          8.2510  -15.3430    6.2650 N.3    42  LYS42      -0.1245
     48  CA         8.8400  -15.4760    7.5980 C.3    42  LYS42       0.1561
     49  C          8.0990  -16.5780    8.3450 C.2    42  LYS42       0.2260
     50  O          6.8880  -16.7110    8.1910 O.2    42  LYS42      -0.2867
     51  CB         8.7180  -14.1490    8.3740 C.3    42  LYS42       0.0271
     52  CG         9.1890  -12.9650    7.6070 C.3    42  LYS42       0.0035
     53  CD         9.2630  -11.6550    8.4400 C.3    42  LYS42       0.0206
     54  CE        10.4120  -11.7020    9.4350 C.3    42  LYS42       0.1093
     55  NZ        10.2820  -10.5760   10.4130 N.3    42  LYS42      -0.1314
     56  N          9.4960   -1.7550    4.8810 N.3    72  VAL72      -0.1245
     57  CA         9.1920   -3.0520    4.2650 C.3    72  VAL72       0.1561
     58  C          7.6790   -3.3630    4.2110 C.2    72  VAL72       0.2260
     59  O          6.9550   -3.1660    5.2020 O.2    72  VAL72      -0.2867
     60  CB         9.9640   -4.2560    4.9150 C.3    72  VAL72       0.0252
     61  CG1       11.4750   -4.0650    4.7630 C.3    72  VAL72       0.0019
     62  CG2        9.5720   -4.4640    6.3760 C.3    72  VAL72       0.0019
     63  N          6.0650  -11.2650    3.2830 N.3    87  MET87      -0.1230
     64  CA         6.5780   -9.9450    2.9900 C.3    87  MET87       0.1702
     65  C          6.9970   -9.8300    1.5280 C.2    87  MET87       0.2592
     66  O          7.3610  -10.8160    0.8930 O.2    87  MET87      -0.2718
     67  CB         7.8230   -9.7030    3.8380 C.3    87  MET87       0.0401
     68  CG         7.5970  -10.0390    5.3350 C.3    87  MET87       0.0596
     69  SD         6.5070   -8.8290    6.1720 S.3    87  MET87      -0.1393
     70  CE         7.2670   -7.1910    5.9640 C.3    87  MET87       0.0692
     71  N          7.0160   -8.6020    1.0290 N.am   88  GLU88      -0.1966
     72  CA         7.6880   -8.3310   -0.2420 C.3    88  GLU88       0.1733
     73  C          9.1670   -8.6900   -0.1840 C.2    88  GLU88       0.2616
     74  O          9.8230   -8.3960    0.8120 O.2    88  GLU88      -0.2715
     75  CB         7.5230   -6.8560   -0.5980 C.3    88  GLU88       0.0429
     76  CG         7.8980   -6.5260   -2.0410 C.3    88  GLU88       0.1163
     77  CD         7.3880   -5.1320   -2.4610 C.2    88  GLU88       0.3649
     78  OE1        7.3260   -4.2120   -1.6040 O.co2  88  GLU88      -0.2457
     79  OE2        7.0550   -4.9510   -3.6510 O.co2  88  GLU88      -0.2457
     80  N          9.7050   -9.2990   -1.2630 N.am   89  LEU89      -0.1963
     81  CA        11.1220   -9.6500   -1.2890 C.3    89  LEU89       0.1728
     82  C         11.9210   -8.5330   -1.9210 C.2    89  LEU89       0.2616
     83  O         11.6260   -8.1350   -3.0550 O.2    89  LEU89      -0.2715
     84  CB        11.3970  -10.9370   -2.1150 C.3    89  LEU89       0.0311
     85  CG        12.8840  -11.2790   -2.2330 C.3    89  LEU89       0.0022
     86  CD1       13.4080  -11.7840   -0.9110 C.3    89  LEU89       0.0001
     87  CD2       13.1650  -12.2600   -3.3410 C.3    89  LEU89       0.0001
     88  N         12.9470   -8.0570   -1.2250 N.am   90  TYR90      -0.1960
     89  CA        13.8270   -7.0110   -1.7770 C.3    90  TYR90       0.1756
     90  C         15.1400   -7.6500   -2.2150 C.2    90  TYR90       0.2461
     91  O         15.9430   -8.0980   -1.3940 O.2    90  TYR90      -0.2730
     92  CB        14.0290   -5.8660   -0.7800 C.3    90  TYR90       0.0574
     93  CG        12.6750   -5.3230   -0.3990 C.ar   90  TYR90      -0.0198
     94  CD1       12.1660   -5.4910    0.9030 C.ar   90  TYR90      -0.0009
     95  CD2       11.8700   -4.6820   -1.3600 C.ar   90  TYR90      -0.0009
     96  CE1       10.9250   -4.9890    1.2290 C.ar   90  TYR90       0.0417
     97  CE2       10.5790   -4.2390   -1.0410 C.ar   90  TYR90       0.0417
     98  CZ        10.1270   -4.3920    0.2510 C.ar   90  TYR90       0.1957
     99  OH         8.8830   -3.9520    0.5850 O.3    90  TYR90      -0.2866
    100  N         15.3150   -7.6950   -3.5360 N.am   91  PRO91      -0.2716
    101  CA        16.2830   -8.5910   -4.1900 C.3    91  PRO91       0.1536
    102  C         17.7290   -8.2310   -3.8770 C.2    91  PRO91       0.2599
    103  O         18.5800   -9.1010   -3.7990 O.2    91  PRO91      -0.2715
    104  CB        15.9580   -8.4030   -5.6850 C.3    91  PRO91       0.0310
    105  CG        15.4400   -6.9900   -5.7880 C.3    91  PRO91       0.0237
    106  CD        14.5990   -6.8320   -4.5070 C.3    91  PRO91       0.0939
    107  N         17.9850   -6.9500   -3.6410 N.am   92  TYR92      -0.1960
    108  CA        19.3110   -6.4690   -3.3450 C.3    92  TYR92       0.1771
    109  C         19.8060   -6.7280   -1.9330 C.2    92  TYR92       0.2620
    110  O         20.9770   -6.5270   -1.6830 O.2    92  TYR92      -0.2715
    111  CB        19.4250   -4.9870   -3.6620 C.3    92  TYR92       0.0574
    112  CG        19.3740   -4.6530   -5.1210 C.ar   92  TYR92      -0.0198
    113  CD1       18.1560   -4.4570   -5.7780 C.ar   92  TYR92      -0.0009
    114  CD2       20.5360   -4.5380   -5.8530 C.ar   92  TYR92      -0.0009
    115  CE1       18.1190   -4.1640   -7.1310 C.ar   92  TYR92       0.0417
    116  CE2       20.5070   -4.2370   -7.2130 C.ar   92  TYR92       0.0417
    117  CZ        19.3050   -4.0550   -7.8410 C.ar   92  TYR92       0.1957
    118  OH        19.2980   -3.7490   -9.1910 O.3    92  TYR92      -0.2866
    119  N         18.9530   -7.1980   -1.0260 N.am   93  GLY93      -0.1940
    120  CA        19.4000   -7.5770    0.3220 C.3    93  GLY93       0.2014
    121  C         19.6590   -6.3940    1.2370 C.2    93  GLY93       0.2638
    122  O         19.0780   -5.3290    1.0140 O.2    93  GLY93      -0.2714
    123  N         20.4930   -6.5990    2.2720 N.am   94  GLU94      -0.1977
    124  CA        20.7140   -5.6190    3.3500 C.3    94  GLU94       0.1602
    125  C         21.5620   -4.4650    2.8700 C.2    94  GLU94       0.2287
    126  O         22.5360   -4.6760    2.1060 O.2    94  GLU94      -0.2864
    127  CB        21.4400   -6.2520    4.5460 C.3    94  GLU94       0.0415
    128  CG        20.6360   -7.3460    5.2390 C.3    94  GLU94       0.1163
    129  CD        21.4170   -8.0570    6.3270 C.2    94  GLU94       0.3649
    130  OE1       22.5230   -7.5900    6.6390 O.co2  94  GLU94      -0.2457
    131  OE2       20.9140   -9.0930    6.8660 O.co2  94  GLU94      -0.2457
    132  N         25.6590   -4.6140    3.5110 N.3    97  HIS97      -0.1241
    133  CA        26.3330   -5.3850    2.4390 C.3    97  HIS97       0.1621
    134  C         26.3000   -4.6990    1.0990 C.2    97  HIS97       0.2264
    135  O         27.3000   -4.6620    0.4050 O.2    97  HIS97      -0.2867
    136  CB        25.6970   -6.7620    2.2820 C.3    97  HIS97       0.0745
    137  CG        25.7550   -7.6050    3.5190 C.ar   97  HIS97       0.0817
    138  ND1       26.8420   -7.6270    4.3610 N.ar   97  HIS97      -0.2268
    139  CD2       24.8640   -8.4760    4.0410 C.ar   97  HIS97       0.1154
    140  CE1       26.6250   -8.4810    5.3440 C.ar   97  HIS97       0.1986
    141  NE2       25.4300   -9.0060    5.1740 N.ar   97  HIS97      -0.2212
    142  N         22.0930   -3.0040    8.7450 N.3   138  ARG138     -0.1231
    143  CA        21.8070   -4.4390    8.6980 C.3   138  ARG138      0.1694
    144  C         20.2960   -4.7170    8.6160 C.2   138  ARG138      0.2592
    145  O         19.8880   -5.7620    8.1350 O.2   138  ARG138     -0.2718
    146  CB        22.3730   -5.1440    9.9460 C.3   138  ARG138      0.0321
    147  CG        22.5150   -6.6880    9.8340 C.3   138  ARG138      0.0489
    148  CD        22.4380   -7.4320   11.2220 C.3   138  ARG138      0.2205
    149  NE        23.5360   -8.3930   11.4640 N.pl3 138  ARG138     -0.0865
    150  CZ        23.3870   -9.6510   11.9670 C.cat 138  ARG138      0.5346
    151  NH1       22.1800  -10.1430   12.2720 N.pl3 138  ARG138      0.1354
    152  NH2       24.4570  -10.4280   12.1450 N.pl3 138  ARG138      0.1354
    153  N         19.4900   -3.7610    9.0700 N.am  139  ASN139     -0.1974
    154  CA        18.0490   -3.9010    9.1730 C.3   139  ASN139      0.1688
    155  C         17.2890   -3.0170    8.2070 C.2   139  ASN139      0.2292
    156  O         16.1380   -2.6510    8.4460 O.2   139  ASN139     -0.2864
    157  CB        17.6120   -3.5920   10.6110 C.3   139  ASN139      0.1181
    158  CG        16.2220   -4.1400   10.8950 C.2   139  ASN139      0.2629
    159  OD1       15.2830   -3.4100   11.2230 O.2   139  ASN139     -0.2716
    160  ND2       16.0860   -5.4120   10.7210 N.am  139  ASN139     -0.0877
    161  N         16.5590   -2.8040    3.9720 N.3   141  LEU141     -0.1245
    162  CA        16.5870   -3.5870    2.7370 C.3   141  LEU141      0.1561
    163  C         16.6420   -2.6450    1.5500 C.2   141  LEU141      0.2260
    164  O         16.0990   -1.5390    1.5770 O.2   141  LEU141     -0.2867
    165  CB        15.3250   -4.4630    2.5850 C.3   141  LEU141      0.0270
    166  CG        15.2350   -5.7160    3.4440 C.3   141  LEU141      0.0019
    167  CD1       16.4450   -6.6180    3.2610 C.3   141  LEU141      0.0001
    168  CD2       15.0670   -5.3260    4.9460 C.3   141  LEU141      0.0001
    169  N         11.6070   -4.6350    9.7130 N.3   152  ASP152     -0.1225
    170  CA        10.4720   -4.8890   10.6150 C.3   152  ASP152      0.1805
    171  C         10.9770   -4.9550   12.0280 C.2   152  ASP152      0.2597
    172  O         10.8030   -4.0220   12.8000 O.2   152  ASP152     -0.2718
    173  CB         9.7320   -6.2190   10.2470 C.3   152  ASP152      0.1424
    174  CG        10.5720   -7.1300    9.3440 C.2   152  ASP152      0.3668
    175  OD1       10.1260   -8.2360    9.0160 O.co2 152  ASP152     -0.2456
    176  OD2       11.7000   -6.8180    8.9050 O.co2 152  ASP152     -0.2456
    177  N         11.6180   -6.0790   12.3440 N.am  153  PHE153     -0.1976
    178  CA        12.2640   -6.3150   13.6330 C.3   153  PHE153      0.1639
    179  C         12.7120   -4.9970   14.2670 C.2   153  PHE153      0.2290
    180  O         13.2380   -4.1110   13.5610 O.2   153  PHE153     -0.2864
    181  CB        13.4740   -7.2570   13.4660 C.3   153  PHE153      0.0560
    182  CG        14.3540   -7.3240   14.6920 C.ar  153  PHE153     -0.0200
    183  CD1       14.0930   -8.2420   15.6990 C.ar  153  PHE153     -0.0042
    184  CD2       15.4010   -6.4170   14.8640 C.ar  153  PHE153     -0.0042
    185  CE1       14.8860   -8.2850   16.8590 C.ar  153  PHE153     -0.0003
    186  CE2       16.2040   -6.4450   16.0260 C.ar  153  PHE153     -0.0003
    187  CZ        15.9360   -7.3870   17.0210 C.ar  153  PHE153     -0.0000
@<TRIPOS>BOND
     1   118   117    1
     2   117   116   ar
     3   117   115   ar
     4   116   114   ar
     5   115   113   ar
     6   114   112   ar
     7   105   104    1
     8   105   106    1
     9   113   112   ar
    10   104   101    1
    11   112   111    1
    12   106   100    1
    13   101   102    1
    14   101   100    1
    15   102   103    2
    16   102   107   am
    17   111   108    1
    18    79    77   ar
    19   107   108    1
    20   100    90   am
    21    40    39   ar
    22   108   109    1
    23    87    85    1
    24    83    82    2
    25    41    39   ar
    26    39    38    1
    27    77    76    1
    28    77    78   ar
    29    85    84    1
    30    85    86    1
    31    90    89    1
    32    90    91    2
    33    84    81    1
    34    76    75    1
    35   109   110    2
    36   109   119   am
    37    82    81    1
    38    82    88   am
    39    89    88    1
    40    89    92    1
    41    37    38    1
    42    37    34    1
    43    36    35    2
    44    35    34    1
    45    95    97   ar
    46    95    93   ar
    47    81    80    1
    48    80    73   am
    49    97    98   ar
    50   119   120    1
    51    92    93    1
    52    34    33    1
    53    75    72    1
    54    93    94   ar
    55    72    73    1
    56    72    71    1
    57    73    74    2
    58    98    99    1
    59    98    96   ar
    60   120   121    1
    61   135   134    2
    62    42    43    1
    63     7     6    1
    64    66    65    2
    65    94    96   ar
    66   122   121    2
    67    71    65   am
    68   134   133    1
    69   121   123   am
    70    65    64    1
    71   163   164    2
    72   163   162    1
    73    43    46    1
    74    43    44    1
    75   126   125    2
    76     6     8    1
    77     6     5    1
    78   123   124    1
    79   136   133    1
    80   136   137    1
    81   133   132    1
    82   165   162    1
    83   165   166    1
    84     5     2    1
    85     2     1    1
    86     2     3    1
    87   162   161    1
    88    44    45    2
    89   125   124    1
    90    64    63    1
    91    64    67    1
    92   167   166    1
    93   124   127    1
    94   166   168    1
    95     4     3    2
    96   137   139   ar
    97   137   138   ar
    98     3     9   am
    99    67    68    1
   100   139   141   ar
   101    58    57    1
   102    58    59    2
   103    57    56    1
   104    57    60    1
   105   138   140   ar
   106   127   128    1
   107    29    28    2
   108    61    60    1
   109    60    62    1
   110    28    27    1
   111     9    10    1
   112   141   140   ar
   113   128   129    1
   114    31    30    1
   115    68    69    1
   116    70    69    1
   117    10    11    1
   118    47    48    1
   119   129   130   ar
   120   129   131   ar
   121    30    27    1
   122    30    32    1
   123    27    26    1
   124    12    11    2
   125    11    13   am
   126    48    49    1
   127    48    51    1
   128    52    51    1
   129    52    53    1
   130   145   144    2
   131    50    49    2
   132   155   156    2
   133   155   154    1
   134    53    54    1
   135    13    14    1
   136   144   143    1
   137   144   153   am
   138   143   142    1
   139   143   146    1
   140   176   174   ar
   141   175   174   ar
   142   153   154    1
   143   154   157    1
   144   174   173    1
   145    54    55    1
   146   169   170    1
   147   147   146    1
   148   147   148    1
   149    14    15    1
   150    14    17    1
   151   173   170    1
   152    16    15    2
   153    15    22   am
   154    22    23    1
   155   157   158    1
   156   170   171    1
   157   160   158   am
   158   158   159    2
   159    17    18    1
   160    23    24    1
   161   148   149    1
   162    18    19    1
   163   149   150    2
   164   150   152    1
   165   150   151    1
   166   171   177   am
   167   171   172    2
   168    19    21   ar
   169    19    20   ar
   170   177   178    1
   171    24    25    2
   172   181   178    1
   173   181   182    1
   174   180   179    2
   175   178   179    1
   176   182   184   ar
   177   182   183   ar
   178   184   186   ar
   179   183   185   ar
   180   186   187   ar
   181   185   187   ar
