@<TRIPOS>MOLECULE
tmp/3h3kA00.pdb
 211 209 0 0 0
SMALL
GASTEIGER

@<TRIPOS>ATOM
      1  N        -20.2480   28.8150  -22.7560 N.3   137  ASP137     -0.1225
      2  CA       -19.0270   29.1270  -22.0260 C.3   137  ASP137      0.1805
      3  C        -18.8580   30.6190  -21.7060 C.2   137  ASP137      0.2597
      4  O        -18.4250   30.9780  -20.6060 O.2   137  ASP137     -0.2718
      5  CB       -17.8580   28.6400  -22.8790 C.3   137  ASP137      0.1424
      6  CG       -16.5150   28.8940  -22.2480 C.2   137  ASP137      0.3668
      7  OD1      -16.1840   28.2010  -21.2590 O.co2 137  ASP137     -0.2456
      8  OD2      -15.7840   29.7640  -22.7790 O.co2 137  ASP137     -0.2456
      9  N        -19.2060   31.4770  -22.6660 N.am  138  ALA138     -0.1979
     10  CA       -18.8070   32.8810  -22.6100 C.3   138  ALA138      0.1597
     11  C        -19.7480   33.7450  -23.4500 C.2   138  ALA138      0.2287
     12  O        -20.9670   33.5590  -23.4030 O.2   138  ALA138     -0.2864
     13  CB       -17.3590   33.0160  -23.0830 C.3   138  ALA138      0.0319
     14  N        -19.8560   33.5240  -26.5550 N.3   140  ASP140     -0.1239
     15  CA       -20.2130   32.6050  -27.6400 C.3   140  ASP140      0.1674
     16  C        -21.0980   31.4520  -27.1370 C.2   140  ASP140      0.2266
     17  O        -21.5200   31.4520  -25.9850 O.2   140  ASP140     -0.2867
     18  CB       -18.9270   32.0630  -28.2900 C.3   140  ASP140      0.1410
     19  CG       -18.2270   31.0160  -27.4330 C.2   140  ASP140      0.3668
     20  OD1      -18.0800   31.2630  -26.2170 O.co2 140  ASP140     -0.2456
     21  OD2      -17.8450   29.9450  -27.9760 O.co2 140  ASP140     -0.2456
     22  N        -17.0060   24.0650  -23.5780 N.3   144  TYR144     -0.1241
     23  CA       -15.6330   23.5970  -23.5400 C.3   144  TYR144      0.1605
     24  C        -15.3440   22.9140  -22.2090 C.2   144  TYR144      0.2264
     25  O        -15.5410   23.4960  -21.1510 O.2   144  TYR144     -0.2867
     26  CB       -14.6780   24.7690  -23.7210 C.3   144  TYR144      0.0534
     27  CG       -14.9700   25.6780  -24.8860 C.ar  144  TYR144     -0.0201
     28  CD1      -15.9620   26.6300  -24.8070 C.ar  144  TYR144     -0.0009
     29  CD2      -14.2200   25.6150  -26.0460 C.ar  144  TYR144     -0.0009
     30  CE1      -16.2280   27.4890  -25.8640 C.ar  144  TYR144      0.0417
     31  CE2      -14.4740   26.4680  -27.1130 C.ar  144  TYR144      0.0417
     32  CZ       -15.4770   27.4020  -27.0150 C.ar  144  TYR144      0.1957
     33  OH       -15.7250   28.2500  -28.0620 O.3   144  TYR144     -0.2866
     34  N        -17.3560   31.0010  -35.0710 N.3   215  PHE215     -0.1241
     35  CA       -18.2090   31.8870  -34.2860 C.3   215  PHE215      0.1605
     36  C        -19.3080   32.4940  -35.1560 C.2   215  PHE215      0.2264
     37  O        -19.0230   32.9880  -36.2400 O.2   215  PHE215     -0.2867
     38  CB       -17.3920   33.0370  -33.6910 C.3   215  PHE215      0.0534
     39  CG       -16.3850   32.6150  -32.6520 C.ar  215  PHE215     -0.0203
     40  CD1      -16.8000   32.1780  -31.3970 C.ar  215  PHE215     -0.0042
     41  CD2      -15.0200   32.6900  -32.9180 C.ar  215  PHE215     -0.0042
     42  CE1      -15.8740   31.8070  -30.4250 C.ar  215  PHE215     -0.0003
     43  CE2      -14.0820   32.3210  -31.9540 C.ar  215  PHE215     -0.0003
     44  CZ       -14.5090   31.8790  -30.7050 C.ar  215  PHE215     -0.0000
     45  N        -12.6810   28.7620  -29.6820 N.3   292  GLY292     -0.1210
     46  CA       -11.7200   28.8030  -28.5740 C.3   292  GLY292      0.1956
     47  C        -10.9540   27.5100  -28.4000 C.2   292  GLY292      0.2612
     48  O        -11.5390   26.4370  -28.2810 O.2   292  GLY292     -0.2717
     49  N         -9.6350   27.6080  -28.3880 N.am  293  GLU293     -0.1965
     50  CA        -8.8050   26.4210  -28.3270 C.3   293  GLU293      0.1733
     51  C         -8.7250   25.8530  -26.9000 C.2   293  GLU293      0.2616
     52  O         -8.7580   24.6380  -26.7130 O.2   293  GLU293     -0.2715
     53  CB        -7.4120   26.7340  -28.8720 C.3   293  GLU293      0.0429
     54  CG        -6.6710   25.5250  -29.3460 C.3   293  GLU293      0.1163
     55  CD        -5.3740   25.8730  -30.0660 C.2   293  GLU293      0.3649
     56  OE1       -4.4150   26.3380  -29.3960 O.co2 293  GLU293     -0.2457
     57  OE2       -5.3190   25.6640  -31.3010 O.co2 293  GLU293     -0.2457
     58  N         -8.6380   26.7390  -25.9060 N.am  294  TYR294     -0.1974
     59  CA        -8.3620   26.3480  -24.5210 C.3   294  TYR294      0.1639
     60  C         -7.2580   25.2840  -24.4820 C.2   294  TYR294      0.2290
     61  O         -7.3940   24.2190  -23.8710 O.2   294  TYR294     -0.2864
     62  CB        -9.6440   25.8830  -23.8170 C.3   294  TYR294      0.0560
     63  CG       -10.6240   27.0080  -23.5460 C.ar  294  TYR294     -0.0198
     64  CD1      -10.4440   27.8720  -22.4680 C.ar  294  TYR294     -0.0009
     65  CD2      -11.7180   27.2160  -24.3710 C.ar  294  TYR294     -0.0009
     66  CE1      -11.3360   28.9070  -22.2130 C.ar  294  TYR294      0.0417
     67  CE2      -12.6190   28.2560  -24.1310 C.ar  294  TYR294      0.0417
     68  CZ       -12.4250   29.0890  -23.0480 C.ar  294  TYR294      0.1957
     69  OH       -13.3160   30.1090  -22.8140 O.3   294  TYR294     -0.2866
     70  N         -7.8420   28.9090  -15.6800 N.3   337  TRP337     -0.1227
     71  CA        -8.3220   27.6320  -16.2240 C.3   337  TRP337      0.1737
     72  C         -7.2070   26.6920  -16.7150 C.2   337  TRP337      0.2595
     73  O         -7.4310   25.4870  -16.8250 O.2   337  TRP337     -0.2718
     74  CB        -9.3470   27.8820  -17.3510 C.3   337  TRP337      0.0564
     75  CG        -8.8240   28.7470  -18.4540 C.ar  337  TRP337      0.0003
     76  CD1       -8.9550   30.1000  -18.5630 C.ar  337  TRP337      0.0946
     77  CD2       -8.0440   28.3260  -19.5830 C.ar  337  TRP337      0.0152
     78  NE1       -8.3210   30.5440  -19.6950 N.ar  337  TRP337     -0.2442
     79  CE2       -7.7520   29.4800  -20.3400 C.ar  337  TRP337      0.0810
     80  CE3       -7.5670   27.0850  -20.0280 C.ar  337  TRP337      0.0012
     81  CZ2       -7.0140   29.4330  -21.5270 C.ar  337  TRP337      0.0191
     82  CZ3       -6.8300   27.0390  -21.2010 C.ar  337  TRP337      0.0001
     83  CH2       -6.5600   28.2120  -21.9380 C.ar  337  TRP337      0.0015
     84  N         -6.0220   27.2370  -17.0010 N.am  338  ALA338     -0.1966
     85  CA        -4.9170   26.4630  -17.5930 C.3   338  ALA338      0.1728
     86  C         -3.9490   25.9080  -16.5460 C.2   338  ALA338      0.2616
     87  O         -3.4340   24.8010  -16.7000 O.2   338  ALA338     -0.2715
     88  CB        -4.1540   27.3070  -18.6030 C.3   338  ALA338      0.0334
     89  N         -3.7060   26.6890  -15.5010 N.am  339  ASP339     -0.1971
     90  CA        -2.8010   26.3260  -14.4150 C.3   339  ASP339      0.1709
     91  C         -3.6340   26.0400  -13.1690 C.2   339  ASP339      0.2293
     92  O         -4.0460   26.9660  -12.4650 O.2   339  ASP339     -0.2864
     93  CB        -1.8310   27.4770  -14.1720 C.3   339  ASP339      0.1436
     94  CG        -0.9930   27.7940  -15.4050 C.2   339  ASP339      0.3671
     95  OD1       -1.3150   28.7880  -16.1070 O.co2 339  ASP339     -0.2456
     96  OD2       -0.0490   27.0190  -15.6980 O.co2 339  ASP339     -0.2456
     97  N          1.7710   43.9200  -14.6220 N.3   391  ASP391     -0.1239
     98  CA         1.9220   42.8090  -15.5740 C.3   391  ASP391      0.1674
     99  C          0.8370   41.7240  -15.4300 C.2   391  ASP391      0.2266
    100  O          0.6620   40.8880  -16.3220 O.2   391  ASP391     -0.2867
    101  CB         3.3400   42.2040  -15.4990 C.3   391  ASP391      0.1410
    102  CG         3.5570   41.3350  -14.2700 C.2   391  ASP391      0.3668
    103  OD1        4.1780   40.2530  -14.3960 O.co2 391  ASP391     -0.2456
    104  OD2        3.1100   41.7270  -13.1720 O.co2 391  ASP391     -0.2456
    105  N         -3.8870   41.1540  -17.6450 N.3   394  ILE394     -0.1231
    106  CA        -3.9060   40.4180  -18.8940 C.3   394  ILE394      0.1692
    107  C         -5.3630   40.1010  -19.2500 C.2   394  ILE394      0.2592
    108  O         -6.2930   40.5430  -18.5610 O.2   394  ILE394     -0.2718
    109  CB        -3.1060   39.0900  -18.7520 C.3   394  ILE394      0.0266
    110  CG1       -3.6970   38.1990  -17.6440 C.3   394  ILE394      0.0019
    111  CG2       -1.6430   39.3840  -18.4430 C.3   394  ILE394      0.0020
    112  CD1       -3.0870   36.8150  -17.5480 C.3   394  ILE394      0.0001
    113  N         -5.5570   39.3410  -20.3220 N.am  395  TRP395     -0.1976
    114  CA        -6.8760   38.8380  -20.6880 C.3   395  TRP395      0.1640
    115  C         -7.4790   38.1130  -19.4820 C.2   395  TRP395      0.2290
    116  O         -6.8780   37.1790  -18.9490 O.2   395  TRP395     -0.2864
    117  CB        -6.7750   37.8880  -21.8900 C.3   395  TRP395      0.0576
    118  CG        -8.0580   37.6850  -22.6450 C.ar  395  TRP395      0.0006
    119  CD1       -9.3150   37.5510  -22.1260 C.ar  395  TRP395      0.0946
    120  CD2       -8.1980   37.5750  -24.0650 C.ar  395  TRP395      0.0152
    121  NE1      -10.2300   37.3800  -23.1340 N.ar  395  TRP395     -0.2442
    122  CE2       -9.5680   37.3830  -24.3360 C.ar  395  TRP395      0.0810
    123  CE3       -7.2930   37.6240  -25.1380 C.ar  395  TRP395      0.0012
    124  CZ2      -10.0570   37.2320  -25.6330 C.ar  395  TRP395      0.0191
    125  CZ3       -7.7760   37.4740  -26.4230 C.ar  395  TRP395      0.0001
    126  CH2       -9.1480   37.2830  -26.6620 C.ar  395  TRP395      0.0015
    127  N        -10.4090   37.7660  -13.2820 N.3   399  MET399     -0.1245
    128  CA       -10.2780   36.3910  -12.8020 C.3   399  MET399      0.1570
    129  C         -8.9470   36.1500  -12.1060 C.2   399  MET399      0.2261
    130  O         -8.9020   35.4580  -11.0880 O.2   399  MET399     -0.2867
    131  CB       -10.3970   35.4000  -13.9500 C.3   399  MET399      0.0387
    132  CG       -10.4980   33.9460  -13.4840 C.3   399  MET399      0.0595
    133  SD        -9.9840   32.7290  -14.7060 S.3   399  MET399     -0.1393
    134  CE        -8.2570   33.1660  -14.9900 C.3   399  MET399      0.0692
    135  N         -3.7430   44.8180  -20.6640 N.3   478  ARG478     -0.1231
    136  CA        -2.7080   45.7350  -21.1550 C.3   478  ARG478      0.1694
    137  C         -2.1060   45.3440  -22.5100 C.2   478  ARG478      0.2592
    138  O         -1.3960   46.1390  -23.1260 O.2   478  ARG478     -0.2718
    139  CB        -1.5850   45.8420  -20.1230 C.3   478  ARG478      0.0321
    140  CG        -0.7030   44.6070  -20.0710 C.3   478  ARG478      0.0489
    141  CD         0.0340   44.4950  -18.7640 C.3   478  ARG478      0.2205
    142  NE         1.2710   45.2740  -18.7360 N.pl3 478  ARG478     -0.0865
    143  CZ         2.4910   44.7900  -18.9830 C.cat 478  ARG478      0.5346
    144  NH1        2.6900   43.5100  -19.3000 N.pl3 478  ARG478      0.1354
    145  NH2        3.5350   45.6040  -18.9080 N.pl3 478  ARG478      0.1354
    146  N         -2.3920   44.1300  -22.9660 N.am  479  HIS479     -0.1976
    147  CA        -1.8660   43.6330  -24.2340 C.3   479  HIS479      0.1656
    148  C         -2.7010   44.0270  -25.4470 C.2   479  HIS479      0.2291
    149  O         -2.3190   43.7190  -26.5710 O.2   479  HIS479     -0.2864
    150  CB        -1.6990   42.1180  -24.1610 C.3   479  HIS479      0.0771
    151  CG        -0.7300   41.6960  -23.1080 C.ar  479  HIS479      0.0820
    152  ND1        0.6290   41.6610  -23.3270 N.ar  479  HIS479     -0.2267
    153  CD2       -0.9140   41.3550  -21.8120 C.ar  479  HIS479      0.1154
    154  CE1        1.2410   41.2950  -22.2150 C.ar  479  HIS479      0.1986
    155  NE2        0.3260   41.0960  -21.2810 N.ar  479  HIS479     -0.2212
    156  N         -5.5470   43.1640  -27.0650 N.3   481  GLN481     -0.1245
    157  CA        -5.6880   42.0190  -27.9710 C.3   481  GLN481      0.1566
    158  C         -6.9920   41.9870  -28.7770 C.2   481  GLN481      0.2260
    159  O         -7.4730   40.9140  -29.1570 O.2   481  GLN481     -0.2867
    160  CB        -5.5020   40.7160  -27.1920 C.3   481  GLN481      0.0367
    161  CG        -4.2170   40.6790  -26.3770 C.3   481  GLN481      0.0905
    162  CD        -4.0660   39.3950  -25.6060 C.2   481  GLN481      0.2608
    163  OE1       -4.3900   39.3240  -24.4200 O.2   481  GLN481     -0.2717
    164  NE2       -3.5900   38.3580  -26.2800 N.am  481  GLN481     -0.0878
    165  N        -15.5080   40.7450  -22.5660 N.3   509  GLU509     -0.1231
    166  CA       -16.2700   39.5030  -22.7070 C.3   509  GLU509      0.1699
    167  C        -16.6540   39.0140  -21.3130 C.2   509  GLU509      0.2592
    168  O        -16.2330   39.5830  -20.3080 O.2   509  GLU509     -0.2718
    169  CB       -15.4780   38.4330  -23.4820 C.3   509  GLU509      0.0402
    170  CG       -16.3020   37.1880  -23.8560 C.3   509  GLU509      0.1161
    171  CD       -15.8120   36.4330  -25.0920 C.2   509  GLU509      0.3649
    172  OE1      -14.6740   36.6740  -25.5500 O.co2 509  GLU509     -0.2457
    173  OE2      -16.5790   35.5730  -25.5930 O.co2 509  GLU509     -0.2457
    174  N        -17.4920   37.9880  -21.2720 N.am  510  VAL510     -0.1966
    175  CA       -17.9380   37.3530  -20.0470 C.3   510  VAL510      0.1727
    176  C        -17.6060   35.8560  -20.1310 C.2   510  VAL510      0.2616
    177  O        -17.2580   35.3600  -21.1900 O.2   510  VAL510     -0.2715
    178  CB       -19.4600   37.5610  -19.8610 C.3   510  VAL510      0.0290
    179  CG1      -19.7960   39.0580  -19.8040 C.3   510  VAL510      0.0023
    180  CG2      -20.2460   36.8790  -20.9750 C.3   510  VAL510      0.0023
    181  N        -17.6980   35.1520  -19.0120 N.am  511  ALA511     -0.1977
    182  CA       -17.3410   33.7300  -18.9590 C.3   511  ALA511      0.1597
    183  C        -17.8660   33.0830  -17.6820 C.2   511  ALA511      0.2287
    184  O        -17.8360   33.6950  -16.6110 O.2   511  ALA511     -0.2864
    185  CB       -15.8290   33.5520  -19.0540 C.3   511  ALA511      0.0319
    186  N        -16.3670   30.8130  -16.0870 N.3   513  TYR513     -0.1227
    187  CA       -15.1980   30.7070  -15.1920 C.3   513  TYR513      0.1736
    188  C        -14.6400   32.0700  -14.7260 C.2   513  TYR513      0.2595
    189  O        -13.5930   32.1350  -14.0670 O.2   513  TYR513     -0.2718
    190  CB       -14.1070   29.8500  -15.8320 C.3   513  TYR513      0.0548
    191  CG       -13.6680   30.3400  -17.1840 C.ar  513  TYR513     -0.0200
    192  CD1      -12.5970   31.2080  -17.3180 C.ar  513  TYR513     -0.0009
    193  CD2      -14.3550   29.9520  -18.3390 C.ar  513  TYR513     -0.0009
    194  CE1      -12.2040   31.6760  -18.5730 C.ar  513  TYR513      0.0417
    195  CE2      -13.9650   30.4000  -19.5860 C.ar  513  TYR513      0.0417
    196  CZ       -12.8940   31.2680  -19.6970 C.ar  513  TYR513      0.1957
    197  OH       -12.5170   31.7180  -20.9390 O.3   513  TYR513     -0.2866
    198  N        -15.3420   33.1540  -15.0470 N.am  514  TRP514     -0.1976
    199  CA       -15.0860   34.4530  -14.4200 C.3   514  TRP514      0.1640
    200  C        -16.1630   34.7670  -13.3770 C.2   514  TRP514      0.2290
    201  O        -15.8880   35.4500  -12.3860 O.2   514  TRP514     -0.2864
    202  CB       -14.9850   35.5850  -15.4570 C.3   514  TRP514      0.0576
    203  CG       -13.8380   35.4130  -16.4360 C.ar  514  TRP514      0.0006
    204  CD1      -12.7290   34.6340  -16.2740 C.ar  514  TRP514      0.0946
    205  CD2      -13.6980   36.0450  -17.7110 C.ar  514  TRP514      0.0152
    206  NE1      -11.9120   34.7290  -17.3770 N.ar  514  TRP514     -0.2442
    207  CE2      -12.4850   35.5890  -18.2750 C.ar  514  TRP514      0.0810
    208  CE3      -14.4880   36.9400  -18.4420 C.ar  514  TRP514      0.0012
    209  CZ2      -12.0370   36.0060  -19.5280 C.ar  514  TRP514      0.0191
    210  CZ3      -14.0460   37.3500  -19.6840 C.ar  514  TRP514      0.0001
    211  CH2      -12.8300   36.8800  -20.2200 C.ar  514  TRP514      0.0015
@<TRIPOS>BOND
     1    37    36    2
     2    36    35    1
     3    34    35    1
     4    35    38    1
     5    38    39    1
     6    41    39   ar
     7    41    43   ar
     8    39    40   ar
     9    43    44   ar
    10    40    42   ar
    11    57    55   ar
    12    44    42   ar
    13    55    56   ar
    14    55    54    1
    15    45    46    1
    16    54    53    1
    17   159   158    2
    18    53    50    1
    19   158   157    1
    20    46    47    1
    21    47    49   am
    22    47    48    2
    23    49    50    1
    24    50    51    1
    25    18    15    1
    26    18    19    1
    27    33    32    1
    28    21    19   ar
    29   157   160    1
    30   157   156    1
    31    15    16    1
    32    15    14    1
    33    19    20   ar
    34   160   161    1
    35    16    17    2
    36    31    32   ar
    37    31    29   ar
    38    32    30   ar
    39    51    52    2
    40    51    58   am
    41   126   125   ar
    42   126   124   ar
    43   149   148    2
    44   125   123   ar
    45   161   162    1
    46   164   162   am
    47    29    27   ar
    48    58    59    1
    49    30    28   ar
    50   124   122   ar
    51   162   163    2
    52   173   171   ar
    53   172   171   ar
    54   148   147    1
    55   123   120   ar
    56   171   170    1
    57    27    28   ar
    58    27    26    1
    59    59    60    1
    60    59    62    1
    61    60    61    2
    62    65    67   ar
    63    65    63   ar
    64   122   120   ar
    65   122   121   ar
    66   147   150    1
    67   147   146    1
    68   150   151    1
    69    67    68   ar
    70   120   118   ar
    71   170   169    1
    72    62    63    1
    73    26    23    1
    74    22    23    1
    75    63    64   ar
    76    23    24    1
    77   169   166    1
    78    11    12    2
    79    11    10    1
    80   152   151   ar
    81   152   154   ar
    82   121   119   ar
    83   138   137    2
    84   151   153   ar
    85    13    10    1
    86    68    69    1
    87    68    66   ar
    88   146   137   am
    89     5     6    1
    90     5     2    1
    91     8     6   ar
    92     1     2    1
    93   166   165    1
    94   166   167    1
    95     9    10    1
    96     9     3   am
    97   118   119   ar
    98   118   117    1
    99   137   136    1
   100    64    66   ar
   101     6     7   ar
   102   154   155   ar
   103    24    25    2
   104     2     3    1
   105    83    81   ar
   106    83    82   ar
   107   117   114    1
   108   153   155   ar
   109     3     4    2
   110    81    79   ar
   111   167   174   am
   112   167   168    2
   113   174   175    1
   114    82    80   ar
   115   177   176    2
   116   136   135    1
   117   136   139    1
   118   180   178    1
   119   197   196    1
   120   114   113    1
   121   114   115    1
   122    79    78   ar
   123    79    77   ar
   124   113   107   am
   125   211   210   ar
   126   211   209   ar
   127   176   175    1
   128   176   181   am
   129   139   140    1
   130   140   141    1
   131   175   178    1
   132    80    77   ar
   133   178   179    1
   134   196   195   ar
   135   196   194   ar
   136    78    76   ar
   137   210   208   ar
   138   195   193   ar
   139    77    75   ar
   140   209   207   ar
   141   115   116    2
   142   144   143    1
   143   107   106    1
   144   107   108    2
   145   185   182    1
   146   181   182    1
   147   143   145    1
   148   143   142    2
   149   182   183    1
   150   106   109    1
   151   106   105    1
   152   141   142    1
   153   109   111    1
   154   109   110    1
   155    88    85    1
   156   194   192   ar
   157    76    75   ar
   158    75    74    1
   159   208   205   ar
   160   193   191   ar
   161   207   205   ar
   162   207   206   ar
   163   205   203   ar
   164   183   184    2
   165   110   112    1
   166    85    84    1
   167    85    86    1
   168   206   204   ar
   169    74    71    1
   170   192   191   ar
   171   191   190    1
   172    84    72   am
   173    73    72    2
   174    72    71    1
   175    87    86    2
   176    86    89   am
   177   203   204   ar
   178   203   202    1
   179   100    99    2
   180    71    70    1
   181    95    94   ar
   182   186   187    1
   183   190   187    1
   184    96    94   ar
   185    98   101    1
   186    98    99    1
   187    98    97    1
   188    89    90    1
   189   101   102    1
   190   202   199    1
   191    94    93    1
   192   187   188    1
   193   198   188   am
   194   198   199    1
   195   134   133    1
   196   188   189    2
   197   133   132    1
   198   199   200    1
   199    90    93    1
   200    90    91    1
   201   103   102   ar
   202   102   104   ar
   203   131   132    1
   204   131   128    1
   205   200   201    2
   206   127   128    1
   207    91    92    2
   208   128   129    1
   209   129   130    2
