@<TRIPOS>MOLECULE
tmp/3h3tA00.pdb
 242 232 0 0 0
SMALL
GASTEIGER

@<TRIPOS>ATOM
      1  N         -0.0430    2.0600   37.9220 N.3    74  PHE74      -0.1241
      2  CA         1.1380    1.5850   37.2310 C.3    74  PHE74       0.1605
      3  C          0.8240    0.3180   36.4740 C.2    74  PHE74       0.2264
      4  O          1.2810    0.1540   35.3570 O.2    74  PHE74      -0.2867
      5  CB         2.3260    1.3460   38.1860 C.3    74  PHE74       0.0534
      6  CG         3.5750    0.8800   37.4700 C.ar   74  PHE74      -0.0203
      7  CD1        4.2170    1.7040   36.5670 C.ar   74  PHE74      -0.0042
      8  CD2        4.0920   -0.3790   37.6770 C.ar   74  PHE74      -0.0042
      9  CE1        5.3530    1.2680   35.8730 C.ar   74  PHE74      -0.0003
     10  CE2        5.2450   -0.8030   37.0000 C.ar   74  PHE74      -0.0003
     11  CZ         5.8600    0.0210   36.1040 C.ar   74  PHE74      -0.0000
     12  N         -2.4280    2.9240   30.5300 N.3    80  ARG80      -0.1245
     13  CA        -1.0350    3.0200   30.1200 C.3    80  ARG80       0.1563
     14  C         -0.7540    4.2290   29.1950 C.2    80  ARG80       0.2260
     15  O          0.1910    5.0110   29.4270 O.2    80  ARG80      -0.2867
     16  CB        -0.5790    1.7070   29.4800 C.3    80  ARG80       0.0307
     17  CG         0.8280    1.7680   28.9250 C.3    80  ARG80       0.0489
     18  CD         1.8150    0.8650   29.6550 C.3    80  ARG80       0.2205
     19  NE         1.4050    0.6110   31.0190 N.pl3  80  ARG80      -0.0865
     20  CZ         1.3990   -0.5800   31.6050 C.cat  80  ARG80       0.5346
     21  NH1        0.9910   -0.6880   32.8600 N.pl3  80  ARG80       0.1354
     22  NH2        1.8110   -1.6580   30.9700 N.pl3  80  ARG80       0.1354
     23  N         -0.1300    7.8300   30.3570 N.3    83  TRP83      -0.1227
     24  CA         1.1190    8.3150   30.9680 C.3    83  TRP83       0.1737
     25  C          2.3830    7.8710   30.2540 C.2    83  TRP83       0.2595
     26  O          3.3740    8.5800   30.2570 O.2    83  TRP83      -0.2718
     27  CB         1.1930    7.9860   32.4710 C.3    83  TRP83       0.0564
     28  CG         1.1440    6.5220   32.7750 C.ar   83  TRP83       0.0003
     29  CD1        0.0490    5.7900   33.1220 C.ar   83  TRP83       0.0946
     30  CD2        2.2460    5.6100   32.7440 C.ar   83  TRP83       0.0152
     31  NE1        0.4010    4.4740   33.3220 N.ar   83  TRP83      -0.2442
     32  CE2        1.7480    4.3410   33.0980 C.ar   83  TRP83       0.0810
     33  CE3        3.6110    5.7460   32.4640 C.ar   83  TRP83       0.0012
     34  CZ2        2.5670    3.2110   33.1610 C.ar   83  TRP83       0.0191
     35  CZ3        4.4150    4.6300   32.5340 C.ar   83  TRP83       0.0001
     36  CH2        3.8940    3.3810   32.8860 C.ar   83  TRP83       0.0015
     37  N          2.3400    6.6980   29.6280 N.am   84  GLU84      -0.1979
     38  CA         3.5230    6.1460   28.9580 C.3    84  GLU84       0.1602
     39  C          3.8400    6.8810   27.6400 C.2    84  GLU84       0.2287
     40  O          2.9880    6.9770   26.7550 O.2    84  GLU84      -0.2864
     41  CB         3.3190    4.6370   28.7640 C.3    84  GLU84       0.0415
     42  CG         4.3980    3.8910   28.0140 C.3    84  GLU84       0.1163
     43  CD         5.7090    3.8380   28.7540 C.2    84  GLU84       0.3649
     44  OE1        5.8950    2.9160   29.5770 O.co2  84  GLU84      -0.2457
     45  OE2        6.5710    4.6990   28.4740 O.co2  84  GLU84      -0.2457
     46  N          7.0060    6.1880   25.9140 N.3    86  THR86      -0.1203
     47  CA         8.0300    5.4740   25.1730 C.3    86  THR86       0.1994
     48  C          7.4850    4.2950   24.3510 C.2    86  THR86       0.2617
     49  O          8.2250    3.6490   23.6150 O.2    86  THR86      -0.2717
     50  CB         9.1510    4.9770   26.1060 C.3    86  THR86       0.1784
     51  OG1        8.6980    3.8500   26.8680 O.3    86  THR86      -0.2211
     52  CG2        9.5780    6.0660   27.0400 C.3    86  THR86       0.0376
     53  N          6.1930    4.0300   24.4540 N.am   87  ILE87      -0.1979
     54  CA         5.6000    2.8610   23.8260 C.3    87  ILE87       0.1595
     55  C          5.0770    3.1680   22.4160 C.2    87  ILE87       0.2287
     56  O          4.5370    4.2410   22.1700 O.2    87  ILE87      -0.2864
     57  CB         4.4560    2.2980   24.7010 C.3    87  ILE87       0.0276
     58  CG1        5.0200    1.3410   25.7460 C.3    87  ILE87       0.0022
     59  CG2        3.4700    1.5190   23.8840 C.3    87  ILE87       0.0022
     60  CD1        3.9400    0.5810   26.5120 C.3    87  ILE87       0.0001
     61  N          5.1260   -5.5950   24.0010 N.3   105  GLN105     -0.1245
     62  CA         5.0930   -4.2380   23.5120 C.3   105  GLN105      0.1566
     63  C          6.3270   -3.8660   22.7060 C.2   105  GLN105      0.2260
     64  O          7.3880   -4.4800   22.8590 O.2   105  GLN105     -0.2867
     65  CB         4.8890   -3.2680   24.6710 C.3   105  GLN105      0.0367
     66  CG         6.0890   -3.0500   25.5420 C.3   105  GLN105      0.0905
     67  CD         5.6780   -2.3910   26.8320 C.2   105  GLN105      0.2608
     68  OE1        4.5960   -2.6730   27.3420 O.2   105  GLN105     -0.2717
     69  NE2        6.5180   -1.5070   27.3610 N.am  105  GLN105     -0.0878
     70  N          8.7770   -0.5340   21.6280 N.3   107  HIS107     -0.1226
     71  CA         9.1010    0.8080   22.0620 C.3   107  HIS107      0.1752
     72  C          9.4560    1.7380   20.9100 C.2   107  HIS107      0.2595
     73  O          9.9830    1.2950   19.8820 O.2   107  HIS107     -0.2718
     74  CB        10.2330    0.7710   23.0890 C.3   107  HIS107      0.0759
     75  CG         9.7770    0.3520   24.4460 C.ar  107  HIS107      0.0818
     76  ND1        9.3950    1.2580   25.4120 N.ar  107  HIS107     -0.2268
     77  CD2        9.6110   -0.8770   24.9920 C.ar  107  HIS107      0.1154
     78  CE1        9.0160    0.6000   26.4940 C.ar  107  HIS107      0.1986
     79  NE2        9.1360   -0.6930   26.2650 N.ar  107  HIS107     -0.2212
     80  N          9.1440    3.0220   21.0840 N.am  108  LYS108     -0.1980
     81  CA         9.6550    4.0660   20.2010 C.3   108  LYS108      0.1596
     82  C         11.1850    4.0440   20.2700 C.2   108  LYS108      0.2287
     83  O         11.7720    3.5850   21.2590 O.2   108  LYS108     -0.2864
     84  CB         9.1730    5.4630   20.6310 C.3   108  LYS108      0.0298
     85  CG         7.6550    5.6230   20.8970 C.3   108  LYS108      0.0038
     86  CD         7.3380    7.1080   21.1560 C.3   108  LYS108      0.0206
     87  CE         5.8570    7.4010   21.3150 C.3   108  LYS108      0.1093
     88  NZ         5.1220    7.3340   20.0250 N.3   108  LYS108     -0.1314
     89  N         14.3400    5.3370   21.2720 N.3   110  VAL110     -0.1231
     90  CA        14.8150    6.3870   22.1650 C.3   110  VAL110      0.1692
     91  C         16.3030    6.6400   21.9170 C.2   110  VAL110      0.2592
     92  O         16.8450    7.6540   22.3640 O.2   110  VAL110     -0.2718
     93  CB        14.5300    6.1040   23.6560 C.3   110  VAL110      0.0266
     94  CG1       13.0610    6.3070   23.9760 C.3   110  VAL110      0.0020
     95  CG2       14.9800    4.7190   24.0180 C.3   110  VAL110      0.0020
     96  N         16.9640    5.7120   21.2290 N.am  111  TRP111     -0.1976
     97  CA        18.1600    6.0750   20.4800 C.3   111  TRP111      0.1640
     98  C         17.9960    5.6360   19.0200 C.2   111  TRP111      0.2290
     99  O         17.1340    4.8030   18.7150 O.2   111  TRP111     -0.2864
    100  CB        19.4600    5.5600   21.1270 C.3   111  TRP111      0.0576
    101  CG        19.6140    4.0670   21.1770 C.ar  111  TRP111      0.0006
    102  CD1       20.3650    3.2900   20.3340 C.ar  111  TRP111      0.0946
    103  CD2       19.0280    3.1710   22.1330 C.ar  111  TRP111      0.0152
    104  NE1       20.2740    1.9700   20.7060 N.ar  111  TRP111     -0.2442
    105  CE2       19.4590    1.8700   21.8060 C.ar  111  TRP111      0.0810
    106  CE3       18.1850    3.3440   23.2360 C.ar  111  TRP111      0.0012
    107  CZ2       19.0700    0.7470   22.5370 C.ar  111  TRP111      0.0191
    108  CZ3       17.7930    2.2210   23.9670 C.ar  111  TRP111      0.0001
    109  CH2       18.2370    0.9410   23.6130 C.ar  111  TRP111      0.0015
    110  N         13.2930   -1.5610   20.1090 N.3   116  ARG116     -0.1245
    111  CA        13.3410   -2.6990   21.0040 C.3   116  ARG116      0.1563
    112  C         11.9220   -3.0910   21.2840 C.2   116  ARG116      0.2260
    113  O         11.0480   -2.2230   21.3610 O.2   116  ARG116     -0.2867
    114  CB        13.9810   -2.3000   22.3150 C.3   116  ARG116      0.0307
    115  CG        15.4270   -2.6620   22.3990 C.3   116  ARG116      0.0489
    116  CD        16.2760   -1.8680   21.4300 C.3   116  ARG116      0.2205
    117  NE        17.6450   -2.3720   21.4830 N.pl3 116  ARG116     -0.0865
    118  CZ        18.5800   -2.1520   20.5680 C.cat 116  ARG116      0.5346
    119  NH1       18.3250   -1.4070   19.5010 N.pl3 116  ARG116      0.1354
    120  NH2       19.7830   -2.6730   20.7310 N.pl3 116  ARG116      0.1354
    121  N          9.6190   -5.8790   23.9890 N.3   118  VAL118     -0.1245
    122  CA         9.7600   -6.5600   25.2550 C.3   118  VAL118      0.1561
    123  C          8.5670   -7.4580   25.5190 C.2   118  VAL118      0.2260
    124  O          7.4590   -7.1610   25.1080 O.2   118  VAL118     -0.2867
    125  CB         9.9800   -5.5530   26.4220 C.3   118  VAL118      0.0252
    126  CG1        8.8680   -4.5440   26.4730 C.3   118  VAL118      0.0019
    127  CG2       10.1140   -6.2880   27.7590 C.3   118  VAL118      0.0019
    128  N          6.9450   -9.2830   28.7700 N.3   120  TYR120     -0.1241
    129  CA         7.0490   -9.4050   30.2250 C.3   120  TYR120      0.1605
    130  C          5.7610   -9.7100   30.9590 C.2   120  TYR120      0.2264
    131  O          4.6750   -9.3230   30.5400 O.2   120  TYR120     -0.2867
    132  CB         7.6260   -8.1370   30.8310 C.3   120  TYR120      0.0534
    133  CG         6.7370   -6.9270   30.6260 C.ar  120  TYR120     -0.0201
    134  CD1        6.0400   -6.3600   31.6760 C.ar  120  TYR120     -0.0009
    135  CD2        6.6040   -6.3540   29.3750 C.ar  120  TYR120     -0.0009
    136  CE1        5.2450   -5.2730   31.4830 C.ar  120  TYR120      0.0417
    137  CE2        5.8190   -5.2450   29.1760 C.ar  120  TYR120      0.0417
    138  CZ         5.1330   -4.7080   30.2200 C.ar  120  TYR120      0.1957
    139  OH         4.3330   -3.5810   30.0060 O.3   120  TYR120     -0.2866
    140  N          7.5610   -6.2970   36.8700 N.3   142  ASN142     -0.1240
    141  CA         7.5540   -6.5110   35.4240 C.3   142  ASN142      0.1653
    142  C          8.8560   -7.1980   35.1100 C.2   142  ASN142      0.2266
    143  O          9.9180   -6.6140   35.3180 O.2   142  ASN142     -0.2867
    144  CB         7.5260   -5.1700   34.6910 C.3   142  ASN142      0.1155
    145  CG         6.1720   -4.4910   34.7610 C.2   142  ASN142      0.2627
    146  OD1        6.0680   -3.2710   34.6080 O.2   142  ASN142     -0.2716
    147  ND2        5.1250   -5.2750   34.9860 N.am  142  ASN142     -0.0877
    148  N         14.7190   -6.7430   24.2550 N.3   159  ALA159     -0.1245
    149  CA        15.1900   -6.3300   25.5700 C.3   159  ALA159      0.1562
    150  C         14.6580   -7.2870   26.6210 C.2   159  ALA159      0.2260
    151  O         13.5970   -7.8820   26.4480 O.2   159  ALA159     -0.2867
    152  CB        14.7260   -4.9140   25.8590 C.3   159  ALA159      0.0290
    153  N         13.8750   -7.3020   30.8020 N.3   161  ILE161     -0.1245
    154  CA        13.7380   -6.4180   31.9370 C.3   161  ILE161      0.1561
    155  C         13.4970   -7.1490   33.2540 C.2   161  ILE161      0.2260
    156  O         13.0170   -8.2850   33.2900 O.2   161  ILE161     -0.2867
    157  CB        12.5950   -5.3880   31.7270 C.3   161  ILE161      0.0252
    158  CG1       11.2800   -6.0720   31.3530 C.3   161  ILE161      0.0019
    159  CG2       12.9650   -4.4200   30.6560 C.3   161  ILE161      0.0019
    160  CD1       10.0320   -5.1470   31.4250 C.3   161  ILE161      0.0001
    161  N         11.8760   -5.1590   36.5260 N.3   163  VAL163     -0.1245
    162  CA        11.4620   -3.8590   37.0240 C.3   163  VAL163      0.1561
    163  C         10.5570   -4.0690   38.2290 C.2   163  VAL163      0.2260
    164  O          9.8150   -5.0540   38.2980 O.2   163  VAL163     -0.2867
    165  CB        10.6860   -3.0620   35.9280 C.3   163  VAL163      0.0252
    166  CG1       10.1440   -1.7190   36.4560 C.3   163  VAL163      0.0019
    167  CG2       11.5500   -2.8390   34.6940 C.3   163  VAL163      0.0019
    168  N         11.4030    2.6430   42.8940 N.3   191  TYR191     -0.1241
    169  CA        11.2980    2.0600   41.5610 C.3   191  TYR191      0.1605
    170  C         12.6870    1.6080   41.1330 C.2   191  TYR191      0.2264
    171  O         13.6360    2.4310   41.0810 O.2   191  TYR191     -0.2867
    172  CB        10.7930    3.1050   40.5700 C.3   191  TYR191      0.0534
    173  CG        10.8190    2.6870   39.0940 C.ar  191  TYR191     -0.0201
    174  CD1       11.9000    2.9750   38.2850 C.ar  191  TYR191     -0.0009
    175  CD2        9.7380    2.0540   38.5160 C.ar  191  TYR191     -0.0009
    176  CE1       11.9150    2.5990   36.9340 C.ar  191  TYR191      0.0417
    177  CE2        9.7330    1.6880   37.1850 C.ar  191  TYR191      0.0417
    178  CZ        10.8160    1.9620   36.3950 C.ar  191  TYR191      0.1957
    179  OH        10.8030    1.5950   35.0600 O.3   191  TYR191     -0.2866
    180  N         14.9290   -0.5910   38.0930 N.3   193  ALA193     -0.1245
    181  CA        14.8750   -1.1050   36.7410 C.3   193  ALA193      0.1562
    182  C         16.2350   -1.6920   36.3950 C.2   193  ALA193      0.2260
    183  O         17.2640   -1.0210   36.5030 O.2   193  ALA193     -0.2867
    184  CB        14.4610   -0.0320   35.7620 C.3   193  ALA193      0.0290
    185  N         17.6540   -3.3470   33.1040 N.3   195  VAL195     -0.1245
    186  CA        17.3260   -3.6170   31.7000 C.3   195  VAL195      0.1561
    187  C         18.5480   -4.0440   30.8940 C.2   195  VAL195      0.2260
    188  O         19.6260   -3.4250   30.9700 O.2   195  VAL195     -0.2867
    189  CB        16.7060   -2.3780   31.0260 C.3   195  VAL195      0.0252
    190  CG1       16.5700   -2.5940   29.5300 C.3   195  VAL195      0.0019
    191  CG2       15.3760   -2.0150   31.6830 C.3   195  VAL195      0.0019
    192  N         19.3500   -4.0760   27.1660 N.3   197  PRO197     -0.2116
    193  CA        18.9390   -3.4920   25.8880 C.3   197  PRO197      0.1372
    194  C         18.9780   -4.4890   24.7280 C.2   197  PRO197      0.2244
    195  O         18.4070   -4.2050   23.6790 O.2   197  PRO197     -0.2868
    196  CB        19.9560   -2.3670   25.6570 C.3   197  PRO197      0.0268
    197  CG        21.0840   -2.6650   26.5200 C.3   197  PRO197      0.0207
    198  CD        20.5910   -3.4680   27.6830 C.3   197  PRO197      0.0892
    199  N         20.2120    8.5160   27.7990 N.3   209  VAL209     -0.1231
    200  CA        18.8110    8.1950   27.6070 C.3   209  VAL209      0.1692
    201  C         18.1510    7.7420   28.9320 C.2   209  VAL209      0.2591
    202  O         17.0590    8.1860   29.2600 O.2   209  VAL209     -0.2718
    203  CB        18.6250    7.1720   26.4450 C.3   209  VAL209      0.0266
    204  CG1       17.2160    6.6260   26.4100 C.3   209  VAL209      0.0020
    205  CG2       18.9510    7.8430   25.0930 C.3   209  VAL209      0.0020
    206  N         18.8250    6.9060   29.7210 N.am  210  ALA210     -0.1980
    207  CA        18.2690    6.4970   31.0030 C.3   210  ALA210      0.1597
    208  C         18.0570    7.7320   31.8560 C.2   210  ALA210      0.2287
    209  O         16.9730    7.9180   32.3960 O.2   210  ALA210     -0.2864
    210  CB        19.1750    5.4950   31.7070 C.3   210  ALA210      0.0319
    211  N         14.9980    9.7210   30.4240 N.3   213  GLU213     -0.1231
    212  CA        13.6780    9.1060   30.3120 C.3   213  GLU213      0.1699
    213  C         13.0920    8.5940   31.6280 C.2   213  GLU213      0.2592
    214  O         11.8930    8.6200   31.8150 O.2   213  GLU213     -0.2718
    215  CB        13.7190    7.9580   29.3090 C.3   213  GLU213      0.0402
    216  CG        13.8870    8.4030   27.8660 C.3   213  GLU213      0.1161
    217  CD        12.7500    9.3000   27.3820 C.2   213  GLU213      0.3649
    218  OE1       11.5520    8.9510   27.5530 O.co2 213  GLU213     -0.2457
    219  OE2       13.0530   10.3650   26.8070 O.co2 213  GLU213     -0.2457
    220  N         13.9210    8.1160   32.5440 N.am  214  TYR214     -0.1976
    221  CA        13.3660    7.6370   33.8110 C.3   214  TYR214      0.1639
    222  C         12.7450    8.7370   34.6600 C.2   214  TYR214      0.2290
    223  O         11.6070    8.6290   35.0720 O.2   214  TYR214     -0.2864
    224  CB        14.3920    6.8340   34.5920 C.3   214  TYR214      0.0560
    225  CG        14.5930    5.4510   34.0200 C.ar  214  TYR214     -0.0198
    226  CD1       13.6940    4.4400   34.2870 C.ar  214  TYR214     -0.0009
    227  CD2       15.6850    5.1570   33.2120 C.ar  214  TYR214     -0.0009
    228  CE1       13.8660    3.1830   33.7670 C.ar  214  TYR214      0.0417
    229  CE2       15.8720    3.9010   32.7040 C.ar  214  TYR214      0.0417
    230  CZ        14.9650    2.9220   32.9860 C.ar  214  TYR214      0.1957
    231  OH        15.1530    1.6710   32.4910 O.3   214  TYR214     -0.2866
    232  N          9.5170    9.9300   33.0730 N.3   217  PHE217     -0.1241
    233  CA         8.4640    8.9780   33.3650 C.3   217  PHE217      0.1605
    234  C          7.9590    9.1220   34.8000 C.2   217  PHE217      0.2264
    235  O          6.7630    9.1840   35.0260 O.2   217  PHE217     -0.2867
    236  CB         8.9420    7.5520   33.0670 C.3   217  PHE217      0.0534
    237  CG         8.5210    6.5130   34.1000 C.ar  217  PHE217     -0.0203
    238  CD1        7.1830    6.1550   34.2590 C.ar  217  PHE217     -0.0042
    239  CD2        9.4740    5.8750   34.8930 C.ar  217  PHE217     -0.0042
    240  CE1        6.8020    5.1800   35.2040 C.ar  217  PHE217     -0.0003
    241  CE2        9.1060    4.9050   35.8300 C.ar  217  PHE217     -0.0003
    242  CZ         7.7600    4.5610   35.9870 C.ar  217  PHE217     -0.0000
@<TRIPOS>BOND
     1    99    98    2
     2    98    97    1
     3   119   118    1
     4    73    72    2
     5    88    87    1
     6   110   111    1
     7    81    82    1
     8    81    84    1
     9    81    80    1
    10    82    83    2
    11   102   104   ar
    12   102   101   ar
    13    97   100    1
    14    97    96    1
    15   118   120    1
    16   118   117    2
    17    84    85    1
    18   104   105   ar
    19    85    86    1
    20    72    80   am
    21    72    71    1
    22   111   112    1
    23   111   114    1
    24   100   101    1
    25    86    87    1
    26   101   103   ar
    27    96    91   am
    28    89    90    1
    29   112   113    2
    30   116   117    1
    31   116   115    1
    32    70    71    1
    33   105   103   ar
    34   105   107   ar
    35    91    90    1
    36    91    92    2
    37    71    74    1
    38   103   106   ar
    39    90    93    1
    40    56    55    2
    41   114   115    1
    42    55    54    1
    43   107   109   ar
    44    63    64    2
    45    63    62    1
    46    74    75    1
    47   106   108   ar
    48    62    61    1
    49    62    65    1
    50   109   108   ar
    51    49    48    2
    52    93    94    1
    53    93    95    1
    54   195   194    2
    55    54    53    1
    56    54    57    1
    57    59    57    1
    58   121   122    1
    59   148   149    1
    60    48    53   am
    61    48    47    1
    62    75    77   ar
    63    75    76   ar
    64    65    66    1
    65    57    58    1
    66   194   193    1
    67    77    79   ar
    68   205   203    1
    69   124   123    2
    70    47    46    1
    71    47    50    1
    72   122   123    1
    73   122   125    1
    74    76    78   ar
    75    66    67    1
    76   149   152    1
    77   149   150    1
    78   196   193    1
    79   196   197    1
    80    58    60    1
    81   193   192    1
    82    50    51    1
    83    50    52    1
    84    79    78   ar
    85   204   203    1
    86   125   126    1
    87   125   127    1
    88   203   200    1
    89   151   150    2
    90   197   198    1
    91    40    39    2
    92   219   217   ar
    93    67    68    2
    94    67    69   am
    95   192   198    1
    96   217   218   ar
    97   217   216    1
    98   200   199    1
    99   200   201    1
   100    39    38    1
   101   216   215    1
   102    42    43    1
   103    42    41    1
   104    45    43   ar
   105    43    44   ar
   106    41    38    1
   107   128   129    1
   108    17    16    1
   109    17    18    1
   110   201   202    2
   111   201   206   am
   112    38    37    1
   113   137   135   ar
   114   137   138   ar
   115    14    15    2
   116    14    13    1
   117   215   212    1
   118   135   133   ar
   119    16    13    1
   120   190   189    1
   121    37    25   am
   122    18    19    1
   123   206   207    1
   124   139   138    1
   125    13    12    1
   126   138   136   ar
   127   129   132    1
   128   129   130    1
   129    25    26    2
   130    25    24    1
   131   212   211    1
   132   212   213    1
   133    23    24    1
   134   131   130    2
   135   133   132    1
   136   133   134   ar
   137   159   157    1
   138   153   154    1
   139   187   188    2
   140   187   186    1
   141    24    27    1
   142    22    20    1
   143   207   210    1
   144   207   208    1
   145    19    20    2
   146   189   191    1
   147   189   186    1
   148   158   160    1
   149   158   157    1
   150   136   134   ar
   151    20    21    1
   152   213   214    2
   153   213   220   am
   154   186   185    1
   155   157   154    1
   156   208   209    2
   157   154   155    1
   158    33    35   ar
   159    33    30   ar
   160    27    28    1
   161   231   230    1
   162    35    36   ar
   163   220   221    1
   164   229   230   ar
   165   229   227   ar
   166    30    28   ar
   167    30    32   ar
   168    28    29   ar
   169    36    34   ar
   170   230   228   ar
   171   236   233    1
   172   236   237    1
   173   232   233    1
   174    32    34   ar
   175    32    31   ar
   176    29    31   ar
   177   227   225   ar
   178   155   156    2
   179   233   234    1
   180   228   226   ar
   181   221   224    1
   182   221   222    1
   183   225   226   ar
   184   225   224    1
   185   237   238   ar
   186   237   239   ar
   187   238   240   ar
   188   146   145    2
   189   222   223    2
   190   144   145    1
   191   144   141    1
   192   167   165    1
   193   145   147   am
   194   234   235    2
   195   239   241   ar
   196   179   178    1
   197   142   143    2
   198   142   141    1
   199   240   242   ar
   200     4     3    2
   201   141   140    1
   202   184   181    1
   203   241   242   ar
   204     9    11   ar
   205     9     7   ar
   206   165   166    1
   207   165   162    1
   208    11    10   ar
   209   182   183    2
   210   182   181    1
   211   178   176   ar
   212   178   177   ar
   213     3     2    1
   214   161   162    1
   215     7     6   ar
   216   181   180    1
   217   176   174   ar
   218    10     8   ar
   219   162   163    1
   220   177   175   ar
   221     2     1    1
   222     2     5    1
   223     6     8   ar
   224     6     5    1
   225   163   164    2
   226   174   173   ar
   227   175   173   ar
   228   173   172    1
   229   172   169    1
   230   171   170    2
   231   170   169    1
   232   169   168    1
