@<TRIPOS>MOLECULE
tmp/3h41A01.pdb
 86 78 0 0 0
SMALL
GASTEIGER

@<TRIPOS>ATOM
      1  N         14.5750   38.0150   28.4800 N.3   182  ASP182     -0.1239
      2  CA        14.2860   38.9180   27.3600 C.3   182  ASP182      0.1674
      3  C         15.4220   39.0220   26.3270 C.2   182  ASP182      0.2266
      4  O         15.1450   39.1930   25.1190 O.2   182  ASP182     -0.2867
      5  CB        13.9190   40.3250   27.8320 C.3   182  ASP182      0.1410
      6  CG        12.4970   40.4260   28.3690 C.2   182  ASP182      0.3668
      7  OD1       11.6540   39.5040   28.1590 O.co2 182  ASP182     -0.2456
      8  OD2       12.2260   41.4770   29.0100 O.co2 182  ASP182     -0.2456
      9  N         15.0560   36.1220   24.0400 N.3   185  ILE185     -0.1231
     10  CA        13.8920   36.2820   23.2190 C.3   185  ILE185      0.1692
     11  C         14.2080   37.2610   22.0980 C.2   185  ILE185      0.2592
     12  O         13.9140   37.0000   20.9250 O.2   185  ILE185     -0.2718
     13  CB        12.6500   36.7150   24.0740 C.3   185  ILE185      0.0266
     14  CG1       12.2950   35.5630   25.0320 C.3   185  ILE185      0.0019
     15  CG2       11.4900   37.1220   23.1620 C.3   185  ILE185      0.0020
     16  CD1       11.2160   35.8620   26.0670 C.3   185  ILE185      0.0001
     17  N         14.8780   38.3450   22.4640 N.am  186  ASN186     -0.1974
     18  CA        15.2090   39.3710   21.5240 C.3   186  ASN186      0.1688
     19  C         16.1630   38.8190   20.4890 C.2   186  ASN186      0.2292
     20  O         16.0370   39.1270   19.2790 O.2   186  ASN186     -0.2864
     21  CB        15.7520   40.6220   22.2550 C.3   186  ASN186      0.1181
     22  CG        14.6230   41.4650   22.8150 C.2   186  ASN186      0.2629
     23  OD1       13.5320   41.5090   22.2290 O.2   186  ASN186     -0.2716
     24  ND2       14.8410   42.0640   23.9750 N.am  186  ASN186     -0.0877
     25  N         14.0640   36.6930   18.1080 N.3   189  LYS189     -0.1245
     26  CA        13.2880   37.6010   17.2480 C.3   189  LYS189      0.1561
     27  C         14.0280   38.1750   16.0790 C.2   189  LYS189      0.2260
     28  O         13.3940   38.4500   15.0360 O.2   189  LYS189     -0.2867
     29  CB        12.6030   38.7230   18.0500 C.3   189  LYS189      0.0271
     30  CG        11.4760   38.2460   18.9810 C.3   189  LYS189      0.0035
     31  CD        10.9110   39.4000   19.8120 C.3   189  LYS189      0.0206
     32  CE         9.6730   39.0220   20.6180 C.3   189  LYS189      0.1093
     33  NZ         9.1270   40.1980   21.4210 N.3   189  LYS189     -0.1314
     34  N         13.2470   36.1020   12.8740 N.3   191  LEU191     -0.1245
     35  CA        11.8890   35.8680   12.4020 C.3   191  LEU191      0.1561
     36  C         11.8630   35.8940   10.8580 C.2   191  LEU191      0.2260
     37  O         12.4180   36.8040   10.2240 O.2   191  LEU191     -0.2867
     38  CB        10.8860   36.8760   13.0380 C.3   191  LEU191      0.0270
     39  CG        10.5300   36.7040   14.5190 C.3   191  LEU191      0.0019
     40  CD1        9.8510   37.9850   15.0890 C.3   191  LEU191      0.0001
     41  CD2        9.6410   35.4390   14.7330 C.3   191  LEU191      0.0001
     42  N          9.4190   32.7540   30.7570 N.3   242  LYS242     -0.1245
     43  CA        10.1560   33.2200   29.6100 C.3   242  LYS242      0.1561
     44  C         11.5590   32.6040   29.5760 C.2   242  LYS242      0.2260
     45  O         12.2610   32.5680   30.5790 O.2   242  LYS242     -0.2867
     46  CB        10.3000   34.7380   29.6330 C.3   242  LYS242      0.0271
     47  CG         9.0440   35.5090   29.3440 C.3   242  LYS242      0.0035
     48  CD         9.3310   36.9990   29.3740 C.3   242  LYS242      0.0206
     49  CE         8.2730   37.8480   28.7130 C.3   242  LYS242      0.1093
     50  NZ         8.7050   39.2820   28.8050 N.3   242  LYS242     -0.1314
     51  N          8.0460   32.3170   25.3410 N.3   263  ILE263     -0.1231
     52  CA         8.3050   33.7820   25.3270 C.3   263  ILE263      0.1692
     53  C          7.2890   34.5510   26.1720 C.2   263  ILE263      0.2593
     54  O          7.2420   35.7920   26.1360 O.2   263  ILE263     -0.2718
     55  CB         8.4220   34.3560   23.8710 C.3   263  ILE263      0.0266
     56  CG1        7.0660   34.4510   23.1530 C.3   263  ILE263      0.0019
     57  CG2        9.4130   33.5100   23.0390 C.3   263  ILE263      0.0020
     58  CD1        7.0700   35.3320   21.8490 C.3   263  ILE263      0.0001
     59  N          6.5140   33.8090   26.9670 N.am  264  GLY264     -0.1942
     60  CA         5.4630   34.3960   27.8220 C.3   264  GLY264      0.2014
     61  C          4.1430   34.6480   27.1230 C.2   264  GLY264      0.2638
     62  O          4.0410   34.5560   25.8900 O.2   264  GLY264     -0.2714
     63  N          3.1190   34.9570   27.9310 N.am  265  ASP265     -0.1971
     64  CA         1.7560   35.2030   27.4470 C.3   265  ASP265      0.1709
     65  C          1.2110   34.0710   26.5650 C.2   265  ASP265      0.2293
     66  O          0.4480   34.3180   25.6570 O.2   265  ASP265     -0.2864
     67  CB         1.6940   36.5180   26.6920 C.3   265  ASP265      0.1436
     68  CG         2.0450   37.7240   27.5790 C.2   265  ASP265      0.3671
     69  OD1        1.7710   37.7010   28.8050 O.co2 265  ASP265     -0.2456
     70  OD2        2.6050   38.6990   27.0380 O.co2 265  ASP265     -0.2456
     71  N          2.7950   32.1910   24.3630 N.3   267  ASN267     -0.1240
     72  CA         3.4430   32.0590   23.0380 C.3   267  ASN267      0.1653
     73  C          4.8510   31.4640   23.1210 C.2   267  ASN267      0.2266
     74  O          5.4580   31.4240   24.1950 O.2   267  ASN267     -0.2867
     75  CB         3.5050   33.3970   22.3300 C.3   267  ASN267      0.1155
     76  CG         2.1410   33.9230   21.9850 C.2   267  ASN267      0.2627
     77  OD1        1.2580   33.1580   21.5800 O.2   267  ASN267     -0.2716
     78  ND2        1.9300   35.2280   22.2040 N.am  267  ASN267     -0.0877
     79  N          6.7070   32.8880   15.6390 N.3   279  ILE279     -0.1245
     80  CA         6.1090   32.8920   16.9590 C.3   279  ILE279      0.1561
     81  C          4.6760   32.3510   16.8470 C.2   279  ILE279      0.2260
     82  O          3.8820   32.8560   16.0510 O.2   279  ILE279     -0.2867
     83  CB         6.1000   34.3290   17.5490 C.3   279  ILE279      0.0252
     84  CG1        7.5110   34.7500   18.0000 C.3   279  ILE279      0.0019
     85  CG2        5.1060   34.4590   18.6750 C.3   279  ILE279      0.0019
     86  CD1        7.6780   36.2320   18.2780 C.3   279  ILE279      0.0001
@<TRIPOS>BOND
     1    37    36    2
     2    36    35    1
     3    35    34    1
     4    35    38    1
     5    38    39    1
     6    39    41    1
     7    39    40    1
     8    28    27    2
     9    79    80    1
    10    82    81    2
    11    27    26    1
    12    81    80    1
    13    80    83    1
    14    26    29    1
    15    26    25    1
    16    83    84    1
    17    83    85    1
    18    84    86    1
    19    29    30    1
    20    30    31    1
    21    20    19    2
    22    31    32    1
    23    19    18    1
    24    32    33    1
    25    12    11    2
    26    18    21    1
    27    18    17    1
    28    77    76    2
    29    58    56    1
    30    76    78   am
    31    76    75    1
    32    11    17   am
    33    11    10    1
    34    23    22    2
    35    21    22    1
    36    75    72    1
    37    22    24   am
    38    72    73    1
    39    72    71    1
    40    57    55    1
    41    73    74    2
    42    56    55    1
    43    15    13    1
    44    10     9    1
    45    10    13    1
    46    55    52    1
    47    13    14    1
    48    14    16    1
    49     4     3    2
    50    52    51    1
    51    52    53    1
    52    66    65    2
    53    62    61    2
    54    54    53    2
    55    53    59   am
    56     3     2    1
    57    65    64    1
    58    67    64    1
    59    67    68    1
    60    59    60    1
    61    70    68   ar
    62    61    60    1
    63    61    63   am
    64     2     5    1
    65     2     1    1
    66    64    63    1
    67    68    69   ar
    68     5     6    1
    69     7     6   ar
    70     6     8   ar
    71    49    50    1
    72    49    48    1
    73    47    48    1
    74    47    46    1
    75    44    43    1
    76    44    45    2
    77    43    46    1
    78    43    42    1
