@<TRIPOS>MOLECULE
tmp/3h41A03.pdb
 94 89 0 0 0
SMALL
GASTEIGER

@<TRIPOS>ATOM
      1  N         36.9880   26.5470    8.2060 N.3     6  ASP6       -0.1239
      2  CA        37.5780   27.5710    7.3470 C.3     6  ASP6        0.1674
      3  C         36.5340   28.1800    6.4180 C.2     6  ASP6        0.2266
      4  O         36.8860   28.9120    5.5110 O.2     6  ASP6       -0.2867
      5  CB        38.7820   27.0050    6.5630 C.3     6  ASP6        0.1410
      6  CG        39.6430   28.1070    5.9060 C.2     6  ASP6        0.3668
      7  OD1       39.9060   29.1210    6.5620 O.co2   6  ASP6       -0.2456
      8  OD2       40.0330   27.9750    4.7180 O.co2   6  ASP6       -0.2456
      9  N         34.7820   25.6590   -0.6960 N.3    29  ASN29      -0.1226
     10  CA        35.4230   26.6630    0.1240 C.3    29  ASN29       0.1770
     11  C         35.8130   27.7730   -0.8220 C.2    29  ASN29       0.2439
     12  O         36.6940   27.5730   -1.6200 O.2    29  ASN29      -0.2733
     13  CB        36.6680   26.1300    0.8310 C.3    29  ASN29       0.1168
     14  CG        37.2590   27.1520    1.7800 C.2    29  ASN29       0.2627
     15  OD1       36.9620   28.3170    1.6760 O.2    29  ASN29      -0.2716
     16  ND2       38.0930   26.7150    2.7050 N.am   29  ASN29      -0.0877
     17  N         35.1400   28.9330   -0.7490 N.am   30  PRO30      -0.2729
     18  CA        34.0580   29.2750    0.1680 C.3    30  PRO30       0.1401
     19  C         32.7150   28.6230   -0.1580 C.2    30  PRO30       0.2269
     20  O         32.4950   28.1260   -1.2650 O.2    30  PRO30      -0.2865
     21  CB        33.9140   30.7740   -0.0210 C.3    30  PRO30       0.0296
     22  CG        34.3310   30.9980   -1.4470 C.3    30  PRO30       0.0237
     23  CD        35.4030   30.0090   -1.7130 C.3    30  PRO30       0.0939
     24  N         32.6730   29.0940   11.0940 N.3    59  LEU59      -0.1245
     25  CA        34.0090   29.6370   10.9060 C.3    59  LEU59       0.1561
     26  C         34.7330   29.7680   12.2420 C.2    59  LEU59       0.2260
     27  O         34.2000   30.3500   13.2040 O.2    59  LEU59      -0.2867
     28  CB        33.9320   31.0010   10.2310 C.3    59  LEU59       0.0270
     29  CG        35.2900   31.6410    9.9450 C.3    59  LEU59       0.0019
     30  CD1       35.9090   30.9910    8.7460 C.3    59  LEU59       0.0001
     31  CD2       35.0910   33.1880    9.7580 C.3    59  LEU59       0.0001
     32  N         38.3660   41.2760    4.4160 N.3   123  ILE123     -0.1245
     33  CA        39.7300   40.7760    4.6120 C.3   123  ILE123      0.1561
     34  C         40.6430   41.9320    4.1980 C.2   123  ILE123      0.2260
     35  O         40.5010   42.5010    3.1150 O.2   123  ILE123     -0.2867
     36  CB        40.0220   39.5030    3.8150 C.3   123  ILE123      0.0252
     37  CG1       38.9490   38.4250    4.1140 C.3   123  ILE123      0.0019
     38  CG2       41.4450   38.9270    4.1460 C.3   123  ILE123      0.0019
     39  CD1       39.2970   36.9950    3.5740 C.3   123  ILE123      0.0001
     40  N         39.0660   40.2840   -0.8870 N.3   130  LYS130     -0.1231
     41  CA        38.0570   39.3190   -0.4930 C.3   130  LYS130      0.1693
     42  C         37.2760   39.7620    0.7490 C.2   130  LYS130      0.2593
     43  O         37.6830   40.6210    1.5500 O.2   130  LYS130     -0.2718
     44  CB        38.6790   37.9560   -0.2520 C.3   130  LYS130      0.0285
     45  CG        39.4240   37.4190   -1.4270 C.3   130  LYS130      0.0035
     46  CD        39.8130   35.9790   -1.2320 C.3   130  LYS130      0.0206
     47  CE        40.4550   35.4670   -2.4900 C.3   130  LYS130      0.1093
     48  NZ        40.8790   34.0740   -2.3920 N.3   130  LYS130     -0.1314
     49  N         36.1030   39.1670    0.8830 N.am  131  SER131     -0.1938
     50  CA        35.2230   39.4220    2.0030 C.3   131  SER131      0.2055
     51  C         34.4590   38.1240    2.2810 C.2   131  SER131      0.2642
     52  O         34.5290   37.1900    1.4850 O.2   131  SER131     -0.2714
     53  CB        34.2590   40.5530    1.6710 C.3   131  SER131      0.2130
     54  OG        33.4980   40.2790    0.4820 O.3   131  SER131     -0.2179
     55  N         33.7860   38.0450    3.4230 N.am  132  LEU132     -0.1977
     56  CA        33.0790   36.8170    3.8220 C.3   132  LEU132      0.1596
     57  C         31.8320   37.1850    4.6050 C.2   132  LEU132      0.2287
     58  O         31.8880   37.9500    5.5840 O.2   132  LEU132     -0.2864
     59  CB        33.9790   35.9380    4.6960 C.3   132  LEU132      0.0297
     60  CG        33.4040   34.6030    5.1440 C.3   132  LEU132      0.0022
     61  CD1       33.1040   33.7370    3.8800 C.3   132  LEU132      0.0001
     62  CD2       34.3970   33.8800    6.0550 C.3   132  LEU132      0.0001
     63  N         41.3210   35.5970   11.2300 N.3   154  LEU154     -0.1231
     64  CA        40.6350   34.4640   10.5900 C.3   154  LEU154      0.1678
     65  C         41.3900   33.1340   10.8240 C.2   154  LEU154      0.2439
     66  O         42.5970   33.1200   11.0550 O.2   154  LEU154     -0.2733
     67  CB        40.5070   34.6990    9.0870 C.3   154  LEU154      0.0284
     68  CG        39.7230   35.9530    8.7570 C.3   154  LEU154      0.0019
     69  CD1       39.6440   36.1060    7.2530 C.3   154  LEU154      0.0001
     70  CD2       38.3440   35.8940    9.4150 C.3   154  LEU154      0.0001
     71  N         40.6760   32.0050   10.7510 N.am  155  PRO155     -0.2643
     72  CA        41.3220   30.7120   11.0270 C.3   155  PRO155      0.1762
     73  C         42.4660   30.3690   10.0580 C.2   155  PRO155      0.2641
     74  O         43.3200   29.5470   10.3830 O.2   155  PRO155     -0.2712
     75  CB        40.1680   29.6890   10.9050 C.2   155  PRO155     -0.0003
     76  CG        38.9570   30.4180   10.6320 C.2   155  PRO155     -0.0071
     77  CD        39.2100   31.8970   10.6730 C.3   155  PRO155      0.1204
     78  N         42.4710   30.9710    8.8750 N.am  156  ASN156     -0.1970
     79  CA        43.5640   30.7570    7.9550 C.3   156  ASN156      0.1688
     80  C         44.7660   31.6760    8.2130 C.2   156  ASN156      0.2292
     81  O         45.7370   31.6350    7.4550 O.2   156  ASN156     -0.2864
     82  CB        43.1000   30.8620    6.5130 C.3   156  ASN156      0.1181
     83  CG        42.7480   32.2770    6.1010 C.2   156  ASN156      0.2629
     84  OD1       42.7140   33.1900    6.9270 O.2   156  ASN156     -0.2716
     85  ND2       42.5000   32.4650    4.8150 N.am  156  ASN156     -0.0877
     86  N         44.7000   35.0290    8.0280 N.3   158  GLN158     -0.1245
     87  CA        44.4630   36.3730    7.4910 C.3   158  GLN158      0.1566
     88  C         43.7850   37.2490    8.5330 C.2   158  GLN158      0.2260
     89  O         43.2310   36.7710    9.5340 O.2   158  GLN158     -0.2867
     90  CB        43.6150   36.3250    6.2080 C.3   158  GLN158      0.0367
     91  CG        44.3150   35.6910    5.0240 C.3   158  GLN158      0.0905
     92  CD        43.4680   35.7310    3.7700 C.2   158  GLN158      0.2608
     93  OE1       42.3740   35.1150    3.7230 O.2   158  GLN158     -0.2717
     94  NE2       43.9480   36.4630    2.7430 N.am  158  GLN158     -0.0878
@<TRIPOS>BOND
     1    47    48    1
     2    47    46    1
     3    23    22    1
     4    23    17    1
     5    12    11    2
     6    22    21    1
     7    45    46    1
     8    45    44    1
     9    20    19    2
    10    40    41    1
    11    11    17   am
    12    11    10    1
    13    17    18    1
    14     9    10    1
    15    41    44    1
    16    41    42    1
    17    19    18    1
    18    21    18    1
    19    10    13    1
    20    54    53    1
    21    42    49   am
    22    42    43    2
    23    13    14    1
    24    49    50    1
    25    52    51    2
    26    53    50    1
    27    15    14    2
    28    14    16   am
    29    50    51    1
    30    51    55   am
    31    94    92   am
    32    35    34    2
    33    55    56    1
    34    39    37    1
    35    93    92    2
    36    92    91    1
    37    36    37    1
    38    36    38    1
    39    36    33    1
    40    56    57    1
    41    56    59    1
    42    61    60    1
    43    34    33    1
    44    32    33    1
    45    57    58    2
    46    59    60    1
    47     8     6   ar
    48    85    83   am
    49    91    90    1
    50    60    62    1
    51     4     3    2
    52     6     7   ar
    53     6     5    1
    54    83    82    1
    55    83    84    2
    56    90    87    1
    57     3     2    1
    58    82    79    1
    59     5     2    1
    60    69    68    1
    61     2     1    1
    62    81    80    2
    63    87    86    1
    64    87    88    1
    65    79    80    1
    66    79    78    1
    67    88    89    2
    68    30    29    1
    69    68    67    1
    70    68    70    1
    71    78    73   am
    72    67    64    1
    73    31    29    1
    74    29    28    1
    75    73    74    2
    76    73    72    1
    77    28    25    1
    78    64    65    1
    79    64    63    1
    80    76    77    1
    81    76    75    2
    82    77    71    1
    83    71    65   am
    84    71    72    1
    85    65    66    2
    86    75    72    1
    87    25    24    1
    88    25    26    1
    89    26    27    2
