@<TRIPOS>MOLECULE
tmp/3h41A00.pdb
 124 121 0 0 0
SMALL
GASTEIGER

@<TRIPOS>ATOM
      1  N         16.4150   15.4110    5.9390 N.3    48  THR48      -0.1218
      2  CA        15.8670   14.7460    7.1140 C.3    48  THR48       0.1862
      3  C         15.4750   13.2930    6.8260 C.2    48  THR48       0.2287
      4  O         15.8790   12.3700    7.5220 O.2    48  THR48      -0.2866
      5  CB        14.5580   15.4620    7.5920 C.3    48  THR48       0.1770
      6  OG1       14.8400   16.8620    7.7960 O.3    48  THR48      -0.2211
      7  CG2       14.0300   14.8130    8.8500 C.3    48  THR48       0.0375
      8  N         24.1770   15.9190   10.1140 N.3    54  GLU54      -0.1245
      9  CA        24.4570   15.8330   11.5340 C.3    54  GLU54       0.1567
     10  C         24.3170   17.1710   12.2150 C.2    54  GLU54       0.2260
     11  O         23.5750   17.2960   13.1740 O.2    54  GLU54      -0.2867
     12  CB        25.8800   15.3180   11.7270 C.3    54  GLU54       0.0388
     13  CG        26.0780   13.8750   11.3030 C.3    54  GLU54       0.1160
     14  CD        25.5030   12.8730   12.2980 C.2    54  GLU54       0.3649
     15  OE1       24.6440   13.2330   13.1510 O.co2  54  GLU54      -0.2457
     16  OE2       25.9240   11.7000   12.2180 O.co2  54  GLU54      -0.2457
     17  N         13.7650   27.4670    7.6560 N.3   195  TYR195     -0.1241
     18  CA        14.2980   26.2740    8.2910 C.3   195  TYR195      0.1605
     19  C         15.1790   25.4560    7.3760 C.2   195  TYR195      0.2264
     20  O         14.9350   25.3900    6.1880 O.2   195  TYR195     -0.2867
     21  CB        13.1050   25.4320    8.7350 C.3   195  TYR195      0.0534
     22  CG        13.3710   24.1110    9.4370 C.ar  195  TYR195     -0.0201
     23  CD1       13.7110   22.9600    8.7190 C.ar  195  TYR195     -0.0009
     24  CD2       13.1840   23.9970   10.8130 C.ar  195  TYR195     -0.0009
     25  CE1       13.9290   21.7430    9.3840 C.ar  195  TYR195      0.0417
     26  CE2       13.3530   22.7880   11.4610 C.ar  195  TYR195      0.0417
     27  CZ        13.7330   21.6760   10.7500 C.ar  195  TYR195      0.1957
     28  OH        13.8610   20.5000   11.4470 O.3   195  TYR195     -0.2866
     29  N         17.1620   21.4420    7.9380 N.3   197  TRP197     -0.1227
     30  CA        17.6120   20.3470    8.8020 C.3   197  TRP197      0.1737
     31  C         19.0950   20.4940    9.1280 C.2   197  TRP197      0.2595
     32  O         19.9000   20.8170    8.2730 O.2   197  TRP197     -0.2718
     33  CB        17.3240   19.0120    8.1300 C.3   197  TRP197      0.0564
     34  CG        17.5650   17.7740    8.9360 C.ar  197  TRP197      0.0003
     35  CD1       18.5060   16.8190    8.6800 C.ar  197  TRP197      0.0946
     36  CD2       16.8200   17.3070   10.0640 C.ar  197  TRP197      0.0152
     37  NE1       18.4090   15.8050    9.5700 N.ar  197  TRP197     -0.2442
     38  CE2       17.3640   16.0550   10.4250 C.ar  197  TRP197      0.0810
     39  CE3       15.7410   17.8130   10.7920 C.ar  197  TRP197      0.0012
     40  CZ2       16.9040   15.3290   11.5110 C.ar  197  TRP197      0.0191
     41  CZ3       15.2490   17.0710   11.8470 C.ar  197  TRP197      0.0001
     42  CH2       15.8190   15.8280   12.1870 C.ar  197  TRP197      0.0015
     43  N         19.4160   20.2480   10.3970 N.am  198  ALA198     -0.1980
     44  CA        20.7520   20.3870   10.9200 C.3   198  ALA198      0.1597
     45  C         21.2750   21.8340   10.9390 C.2   198  ALA198      0.2287
     46  O         22.4190   22.0580   11.2340 O.2   198  ALA198     -0.2864
     47  CB        21.7810   19.4100   10.1460 C.3   198  ALA198      0.0319
     48  N         17.6080   24.4480   12.2710 N.3   206  ASP206     -0.1239
     49  CA        16.5740   23.5050   12.7290 C.3   206  ASP206      0.1674
     50  C         16.1810   23.8800   14.1360 C.2   206  ASP206      0.2266
     51  O         16.7200   24.8250   14.6990 O.2   206  ASP206     -0.2867
     52  CB        16.9240   21.9890   12.5390 C.3   206  ASP206      0.1410
     53  CG        18.0730   21.4700   13.3900 C.2   206  ASP206      0.3668
     54  OD1       18.6730   22.1870   14.2300 O.co2 206  ASP206     -0.2456
     55  OD2       18.4030   20.2720   13.1750 O.co2 206  ASP206     -0.2456
     56  N         16.4450   22.6360   17.1450 N.3   207  SER207     -0.1217
     57  CA        17.4220   22.4980   18.2170 C.3   207  SER207      0.1889
     58  C         18.6640   23.3340   17.9140 C.2   207  SER207      0.2288
     59  O         19.3480   23.7410   18.8460 O.2   207  SER207     -0.2866
     60  CB        17.7710   21.0320   18.3890 C.3   207  SER207      0.2089
     61  OG        18.1120   20.5110   17.1270 O.3   207  SER207     -0.2183
     62  N         23.3860   19.9970   21.5460 N.3   223  ARG223     -0.1231
     63  CA        22.9990   20.3240   20.1950 C.3   223  ARG223      0.1694
     64  C         21.5860   19.8570   19.8090 C.2   223  ARG223      0.2592
     65  O         20.8760   20.5840   19.1290 O.2   223  ARG223     -0.2718
     66  CB        24.0230   19.7600   19.2060 C.3   223  ARG223      0.0321
     67  CG        23.6280   19.7990   17.7530 C.3   223  ARG223      0.0489
     68  CD        23.5070   21.1550   17.2840 C.3   223  ARG223      0.2205
     69  NE        23.0380   21.3120   15.8910 N.pl3 223  ARG223     -0.0865
     70  CZ        21.7770   21.2470   15.4660 C.cat 223  ARG223      0.5346
     71  NH1       20.7930   20.8690   16.2580 N.pl3 223  ARG223      0.1354
     72  NH2       21.5080   21.5490   14.2090 N.pl3 223  ARG223      0.1354
     73  N         21.2000   18.6460   20.2240 N.am  224  ASP224     -0.1960
     74  CA        19.9600   18.0300   19.7580 C.3   224  ASP224      0.1840
     75  C         18.7960   18.1540   20.7580 C.2   224  ASP224      0.2623
     76  O         18.9850   18.3490   21.9660 O.2   224  ASP224     -0.2715
     77  CB        20.2140   16.5600   19.4030 C.3   224  ASP224      0.1450
     78  CG        21.0800   16.3770   18.1470 C.2   224  ASP224      0.3671
     79  OD1       21.1540   17.2780   17.3220 O.co2 224  ASP224     -0.2456
     80  OD2       21.6960   15.3090   17.9820 O.co2 224  ASP224     -0.2456
     81  N         17.5740   18.0030   20.2560 N.am  225  SER225     -0.1936
     82  CA        16.3780   18.2540   21.0720 C.3   225  SER225      0.2055
     83  C         16.1860   17.2150   22.2000 C.2   225  SER225      0.2643
     84  O         15.7400   17.5700   23.3230 O.2   225  SER225     -0.2714
     85  CB        15.1240   18.3330   20.1950 C.3   225  SER225      0.2130
     86  OG        14.7670   17.0670   19.6660 O.3   225  SER225     -0.2179
     87  N         16.5440   15.9570   21.9430 N.am  226  GLY226     -0.1954
     88  CA        16.3690   14.9050   22.9410 C.3   226  GLY226      0.1869
     89  C         17.2250   15.1920   24.1740 C.2   226  GLY226      0.2309
     90  O         16.7110   15.2930   25.3070 O.2   226  GLY226     -0.2863
     91  N         11.4860   12.5620   21.7010 N.3   257  VAL257     -0.1231
     92  CA        11.4030   14.0130   21.5310 C.3   257  VAL257      0.1692
     93  C         11.8100   14.2990   20.1150 C.2   257  VAL257      0.2592
     94  O         12.7920   13.7430   19.6590 O.2   257  VAL257     -0.2718
     95  CB        12.3550   14.7100   22.5090 C.3   257  VAL257      0.0266
     96  CG1       12.5950   16.2190   22.1320 C.3   257  VAL257      0.0020
     97  CG2       11.7940   14.5810   23.8820 C.3   257  VAL257      0.0020
     98  N         11.0370   15.1200   19.4100 N.am  258  HIS258     -0.1962
     99  CA        11.4320   15.5680   18.0770 C.3   258  HIS258      0.1787
    100  C         11.2180   17.0600   17.8050 C.2   258  HIS258      0.2620
    101  O         11.3840   17.4780   16.6750 O.2   258  HIS258     -0.2715
    102  CB        10.6910   14.7550   16.9950 C.3   258  HIS258      0.0785
    103  CG         9.2140   14.9950   16.9710 C.ar  258  HIS258      0.0821
    104  ND1        8.5940   15.7240   15.9790 N.ar  258  HIS258     -0.2267
    105  CD2        8.2370   14.6350   17.8380 C.ar  258  HIS258      0.1154
    106  CE1        7.2940   15.7730   16.2180 C.ar  258  HIS258      0.1986
    107  NE2        7.0510   15.1270   17.3430 N.ar  258  HIS258     -0.2212
    108  N         10.8460   17.8620   18.7960 N.am  259  HIS259     -0.1959
    109  CA        10.7430   19.3040   18.5800 C.3   259  HIS259      0.1787
    110  C         11.0310   20.0560   19.8670 C.2   259  HIS259      0.2620
    111  O         10.7400   19.5710   20.9650 O.2   259  HIS259     -0.2715
    112  CB         9.3660   19.7070   18.0020 C.3   259  HIS259      0.0785
    113  CG         9.2720   21.1640   17.6690 C.ar  259  HIS259      0.0821
    114  ND1       10.0290   21.7420   16.6710 N.ar  259  HIS259     -0.2267
    115  CD2        8.5810   22.1750   18.2470 C.ar  259  HIS259      0.1154
    116  CE1        9.7730   23.0380   16.6250 C.ar  259  HIS259      0.1986
    117  NE2        8.9110   23.3280   17.5800 N.ar  259  HIS259     -0.2212
    118  N         11.6060   21.2470   19.7200 N.am  260  VAL260     -0.1977
    119  CA        11.8760   22.1100   20.8410 C.3   260  VAL260      0.1596
    120  C         11.5510   23.5400   20.4170 C.2   260  VAL260      0.2287
    121  O         11.7630   23.9270   19.2360 O.2   260  VAL260     -0.2864
    122  CB        13.3080   21.9860   21.3500 C.3   260  VAL260      0.0276
    123  CG1       14.3390   22.2550   20.2240 C.3   260  VAL260      0.0022
    124  CG2       13.5430   22.8860   22.6090 C.3   260  VAL260      0.0022
@<TRIPOS>BOND
     1     1     2    1
     2    20    19    2
     3     3     2    1
     4     3     4    2
     5     2     5    1
     6    19    18    1
     7     5     6    1
     8     5     7    1
     9    17    18    1
    10    29    30    1
    11    33    30    1
    12    33    34    1
    13    32    31    2
    14    18    21    1
    15    35    34   ar
    16    35    37   ar
    17    23    25   ar
    18    23    22   ar
    19    21    22    1
    20    30    31    1
    21    34    36   ar
    22    31    43   am
    23    25    27   ar
    24    22    24   ar
    25    37    38   ar
    26    36    38   ar
    27    36    39   ar
    28     8     9    1
    29    47    44    1
    30    43    44    1
    31    38    40   ar
    32    27    28    1
    33    27    26   ar
    34    39    41   ar
    35    24    26   ar
    36    44    45    1
    37    45    46    2
    38    13    12    1
    39    13    14    1
    40    40    42   ar
    41     9    12    1
    42     9    10    1
    43    41    42   ar
    44    10    11    2
    45    16    14   ar
    46    48    49    1
    47    14    15   ar
    48    52    49    1
    49    52    53    1
    50    49    50    1
    51    55    53   ar
    52    53    54   ar
    53    50    51    2
    54    72    70    1
    55    70    69    2
    56    70    71    1
    57    69    68    1
    58   104   106   ar
    59   104   103   ar
    60   106   107   ar
    61   116   114   ar
    62   116   117   ar
    63   114   113   ar
    64   101   100    2
    65   103   102    1
    66   103   105   ar
    67   102    99    1
    68    61    60    1
    69    56    57    1
    70    68    67    1
    71    79    78   ar
    72   107   105   ar
    73   117   115   ar
    74   113   112    1
    75   113   115   ar
    76    67    66    1
    77   100    99    1
    78   100   108   am
    79    58    57    1
    80    58    59    2
    81    80    78   ar
    82   112   109    1
    83    99    98    1
    84    78    77    1
    85    57    60    1
    86   109   108    1
    87   109   110    1
    88    65    64    2
    89    66    63    1
    90   121   120    2
    91    77    74    1
    92    98    93   am
    93    94    93    2
    94    86    85    1
    95   118   110   am
    96   118   119    1
    97    74    73    1
    98    74    75    1
    99    64    63    1
   100    64    73   am
   101   110   111    2
   102    93    92    1
   103    63    62    1
   104    85    82    1
   105   123   122    1
   106    81    75   am
   107    81    82    1
   108   120   119    1
   109    75    76    2
   110   119   122    1
   111    82    83    1
   112   122   124    1
   113    92    91    1
   114    92    95    1
   115    87    83   am
   116    87    88    1
   117    96    95    1
   118    83    84    2
   119    95    97    1
   120    88    89    1
   121    89    90    2
