@<TRIPOS>MOLECULE
tmp/3h44A00.pdb
 204 200 0 0 0
SMALL
GASTEIGER

@<TRIPOS>ATOM
      1  N       -107.6610   29.8300   21.3560 N.3    66  HIS66      -0.1241
      2  CA      -106.7700   30.5800   20.4610 C.3    66  HIS66       0.1621
      3  C       -106.0380   29.6170   19.5320 C.2    66  HIS66       0.2264
      4  O       -105.9330   29.8680   18.3250 O.2    66  HIS66      -0.2867
      5  CB      -105.7580   31.4700   21.2250 C.3    66  HIS66       0.0745
      6  CG      -104.7560   32.1770   20.3440 C.ar   66  HIS66       0.0817
      7  ND1     -103.4270   32.3020   20.6870 N.ar   66  HIS66      -0.2268
      8  CD2     -104.8850   32.7940   19.1390 C.ar   66  HIS66       0.1154
      9  CE1     -102.7850   32.9630   19.7360 C.ar   66  HIS66       0.1986
     10  NE2     -103.6420   33.2640   18.7780 N.ar   66  HIS66      -0.2212
     11  N       -108.2670   28.2500   16.9950 N.3    69  GLN69      -0.1231
     12  CA      -108.4980   29.2750   15.9870 C.3    69  GLN69       0.1698
     13  C       -107.3970   29.2450   14.9410 C.2    69  GLN69       0.2592
     14  O       -107.7020   29.2180   13.7600 O.2    69  GLN69      -0.2718
     15  CB      -108.7300   30.6580   16.6170 C.3    69  GLN69       0.0381
     16  CG      -108.8140   31.8660   15.6420 C.3    69  GLN69       0.0905
     17  CD      -107.6520   32.8290   15.8310 C.2    69  GLN69       0.2608
     18  OE1     -106.8450   33.0350   14.9270 O.2    69  GLN69      -0.2717
     19  NE2     -107.5420   33.3890   17.0230 N.am   69  GLN69      -0.0878
     20  N       -106.1310   29.2030   15.3540 N.am   70  HIS70      -0.1976
     21  CA      -105.0460   29.0270   14.3730 C.3    70  HIS70       0.1656
     22  C       -105.2370   27.7480   13.5230 C.2    70  HIS70       0.2291
     23  O       -105.1320   27.7930   12.3020 O.2    70  HIS70      -0.2864
     24  CB      -103.6510   29.0880   15.0190 C.3    70  HIS70       0.0771
     25  CG      -103.2270   30.4660   15.4600 C.ar   70  HIS70       0.0820
     26  ND1     -102.0440   31.0460   15.0540 N.ar   70  HIS70      -0.2267
     27  CD2     -103.8040   31.3580   16.3060 C.ar   70  HIS70       0.1154
     28  CE1     -101.9210   32.2410   15.6110 C.ar   70  HIS70       0.1986
     29  NE2     -102.9700   32.4520   16.3840 N.ar   70  HIS70      -0.2212
     30  N       -107.5980   27.0000    9.9900 N.3    73  PHE73      -0.1241
     31  CA      -107.1080   27.4190    8.6760 C.3    73  PHE73       0.1605
     32  C       -106.3370   26.3320    7.9300 C.2    73  PHE73       0.2264
     33  O       -106.2760   26.3190    6.7050 O.2    73  PHE73      -0.2867
     34  CB      -106.2470   28.6610    8.8260 C.3    73  PHE73       0.0534
     35  CG      -107.0360   29.9180    9.1600 C.ar   73  PHE73      -0.0203
     36  CD1     -107.3660   30.2280   10.4850 C.ar   73  PHE73      -0.0042
     37  CD2     -107.4320   30.7920    8.1590 C.ar   73  PHE73      -0.0042
     38  CE1     -108.0720   31.3770   10.8070 C.ar   73  PHE73      -0.0003
     39  CE2     -108.1580   31.9440    8.4710 C.ar   73  PHE73      -0.0003
     40  CZ      -108.4790   32.2330    9.8040 C.ar   73  PHE73      -0.0000
     41  N       -107.6910   37.2060    4.6960 N.3    96  SER96      -0.1202
     42  CA      -108.4400   36.6400    5.8100 C.3    96  SER96       0.2020
     43  C       -107.7880   36.8910    7.1610 C.2    96  SER96       0.2619
     44  O       -106.5920   37.1220    7.2420 O.2    96  SER96      -0.2717
     45  CB      -108.5470   35.1410    5.5980 C.3    96  SER96       0.2103
     46  OG      -109.6400   34.6260    6.3230 O.3    96  SER96      -0.2182
     47  N       -108.5700   36.8490    8.2350 N.am   97  ASN97      -0.1960
     48  CA      -107.9910   36.7140    9.5800 C.3    97  ASN97       0.1819
     49  C       -108.9790   36.2360   10.6190 C.2    97  ASN97       0.2621
     50  O       -110.1340   35.9630   10.3180 O.2    97  ASN97      -0.2715
     51  CB      -107.3250   38.0010   10.0480 C.3    97  ASN97       0.1195
     52  CG      -105.9600   37.7480   10.6480 C.2    97  ASN97       0.2630
     53  OD1     -105.7200   36.6920   11.2590 O.2    97  ASN97      -0.2716
     54  ND2     -105.0450   38.6980   10.4710 N.am   97  ASN97      -0.0877
     55  N       -108.5210   36.1250   11.8470 N.am   98  ALA98      -0.1963
     56  CA      -109.3680   35.6920   12.9220 C.3    98  ALA98       0.1728
     57  C       -108.8040   36.2080   14.2310 C.2    98  ALA98       0.2616
     58  O       -107.6430   36.6000   14.2920 O.2    98  ALA98      -0.2715
     59  CB      -109.4400   34.1840   12.9340 C.3    98  ALA98       0.0334
     60  N       -109.6210   36.2230   15.2730 N.am   99  PHE99      -0.1960
     61  CA      -109.1320   36.5630   16.5950 C.3    99  PHE99       0.1771
     62  C       -110.0100   35.8670   17.6280 C.2    99  PHE99       0.2620
     63  O       -111.1620   35.5020   17.3290 O.2    99  PHE99      -0.2715
     64  CB      -109.0990   38.0990   16.8270 C.3    99  PHE99       0.0574
     65  CG      -110.4700   38.7370   16.8680 C.ar   99  PHE99      -0.0200
     66  CD1     -110.9870   39.3890   15.7360 C.ar   99  PHE99      -0.0042
     67  CD2     -111.2680   38.6540   18.0250 C.ar   99  PHE99      -0.0042
     68  CE1     -112.2800   39.9640   15.7600 C.ar   99  PHE99      -0.0003
     69  CE2     -112.5540   39.2060   18.0510 C.ar   99  PHE99      -0.0003
     70  CZ      -113.0580   39.8690   16.9180 C.ar   99  PHE99      -0.0000
     71  N       -109.4500   35.7160   18.8340 N.am  100  THR100     -0.1937
     72  CA      -110.0940   35.0720   19.9640 C.3   100  THR100      0.2028
     73  C       -110.1120   36.0990   21.1010 C.2   100  THR100      0.2642
     74  O       -109.0520   36.5390   21.5420 O.2   100  THR100     -0.2714
     75  CB      -109.3050   33.7900   20.4060 C.3   100  THR100      0.1808
     76  OG1     -108.9730   32.9860   19.2660 O.3   100  THR100     -0.2208
     77  CG2     -110.1050   32.9380   21.3520 C.3   100  THR100      0.0379
     78  N       -111.3050   36.5100   21.5530 N.am  101  SER101     -0.1949
     79  CA      -111.4580   37.3150   22.7890 C.3   101  SER101      0.1924
     80  C       -111.8760   36.3610   23.9150 C.2   101  SER101      0.2314
     81  O       -111.8010   35.1410   23.7550 O.2   101  SER101     -0.2863
     82  CB      -112.4590   38.4650   22.6070 C.3   101  SER101      0.2116
     83  OG      -113.7170   38.0360   22.1010 O.3   101  SER101     -0.2180
     84  N       -113.0770   35.9160    9.4940 N.3   108  TYR108     -0.1241
     85  CA      -113.5720   36.7160    8.3790 C.3   108  TYR108      0.1605
     86  C       -112.5840   36.6930    7.2210 C.2   108  TYR108      0.2264
     87  O       -111.3790   36.4120    7.4210 O.2   108  TYR108     -0.2867
     88  CB      -113.7860   38.1470    8.8390 C.3   108  TYR108      0.0534
     89  CG      -112.5940   38.6740    9.5810 C.ar  108  TYR108     -0.0201
     90  CD1     -111.5640   39.3120    8.9040 C.ar  108  TYR108     -0.0009
     91  CD2     -112.4820   38.5160   10.9550 C.ar  108  TYR108     -0.0009
     92  CE1     -110.4600   39.7900    9.5740 C.ar  108  TYR108      0.0417
     93  CE2     -111.3730   39.0030   11.6520 C.ar  108  TYR108      0.0417
     94  CZ      -110.3640   39.6380   10.9520 C.ar  108  TYR108      0.1957
     95  OH      -109.2430   40.1180   11.6030 O.3   108  TYR108     -0.2866
     96  N        -97.7010   24.5510   13.7410 N.3   140  GLU140     -0.1245
     97  CA       -98.4240   25.7770   14.0860 C.3   140  GLU140      0.1567
     98  C        -98.3540   26.1350   15.5710 C.2   140  GLU140      0.2260
     99  O        -98.5850   27.2760   15.9310 O.2   140  GLU140     -0.2867
    100  CB       -99.8770   25.7270   13.5930 C.3   140  GLU140      0.0388
    101  CG      -100.6730   27.0420   13.6940 C.3   140  GLU140      0.1160
    102  CD      -100.1350   28.2040   12.8340 C.2   140  GLU140      0.3649
    103  OE1     -100.6080   29.3460   13.0420 O.co2 140  GLU140     -0.2457
    104  OE2      -99.2470   27.9950   11.9720 O.co2 140  GLU140     -0.2457
    105  N        -96.4090   34.4420   18.7700 N.3   147  GLU147     -0.1196
    106  CA       -97.4990   35.4000   19.0040 C.3   147  GLU147      0.1783
    107  C        -97.2660   35.8820   20.4290 C.2   147  GLU147      0.2306
    108  O        -97.1630   37.0680   20.6780 O.2   147  GLU147     -0.2863
    109  CB       -98.9000   34.7380   18.8480 C.2   147  GLU147      0.0071
    110  CG       -99.9250   35.4390   17.8890 C.2   147  GLU147      0.0834
    111  CD      -101.4270   34.9710   17.9770 C.2   147  GLU147      0.3877
    112  OE1     -101.9770   33.9800   17.3730 O.co2 147  GLU147     -0.2406
    113  OE2     -102.1010   35.7250   18.6660 O.co2 147  GLU147     -0.2406
    114  N        -95.4970   39.5890   22.7550 N.3   151  ASN151     -0.1240
    115  CA       -96.2790   40.2760   23.7840 C.3   151  ASN151      0.1653
    116  C        -95.6410   40.3380   25.1580 C.2   151  ASN151      0.2266
    117  O        -96.0440   41.1260   26.0120 O.2   151  ASN151     -0.2867
    118  CB       -97.6180   39.5750   23.9230 C.3   151  ASN151      0.1155
    119  CG       -98.4510   39.6750   22.6710 C.2   151  ASN151      0.2627
    120  OD1      -98.1080   40.4170   21.7460 O.2   151  ASN151     -0.2716
    121  ND2      -99.5600   38.9360   22.6310 N.am  151  ASN151     -0.0877
    122  N        -98.4150   46.9110   27.6170 N.3   156  ALA156     -0.1231
    123  CA       -99.8850   46.8120   27.6320 C.3   156  ALA156      0.1694
    124  C       -100.3790   45.4090   27.9430 C.2   156  ALA156      0.2592
    125  O       -101.4030   45.2440   28.6100 O.2   156  ALA156     -0.2718
    126  CB      -100.4970   47.3170   26.3310 C.3   156  ALA156      0.0304
    127  N        -99.6540   44.4030   27.4670 N.am  157  TRP157     -0.1976
    128  CA      -100.0860   43.0090   27.6100 C.3   157  TRP157      0.1640
    129  C        -99.8310   42.5050   29.0180 C.2   157  TRP157      0.2290
    130  O       -100.6590   41.8000   29.5860 O.2   157  TRP157     -0.2864
    131  CB       -99.3610   42.1170   26.6120 C.3   157  TRP157      0.0576
    132  CG      -100.0000   42.0990   25.2660 C.ar  157  TRP157      0.0006
    133  CD1      -99.6300   42.8200   24.1800 C.ar  157  TRP157      0.0946
    134  CD2     -101.1160   41.3030   24.8540 C.ar  157  TRP157      0.0152
    135  NE1     -100.4450   42.5410   23.1190 N.ar  157  TRP157     -0.2442
    136  CE2     -101.3650   41.6070   23.5000 C.ar  157  TRP157      0.0810
    137  CE3     -101.9370   40.3710   25.5020 C.ar  157  TRP157      0.0012
    138  CZ2     -102.3930   41.0120   22.7710 C.ar  157  TRP157      0.0191
    139  CZ3     -102.9660   39.7840   24.7780 C.ar  157  TRP157      0.0001
    140  CH2     -103.1840   40.1070   23.4220 C.ar  157  TRP157      0.0015
    141  N       -102.3510   43.8280   31.1340 N.3   160  PHE160     -0.1241
    142  CA      -103.6500   43.2600   30.8340 C.3   160  PHE160      0.1605
    143  C       -103.8410   41.9430   31.5840 C.2   160  PHE160      0.2264
    144  O       -104.9450   41.6800   32.1190 O.2   160  PHE160     -0.2867
    145  CB      -103.7930   43.1000   29.3210 C.3   160  PHE160      0.0534
    146  CG      -104.8550   42.1210   28.8940 C.ar  160  PHE160     -0.0203
    147  CD1     -104.5140   40.8190   28.5340 C.ar  160  PHE160     -0.0042
    148  CD2     -106.1910   42.5130   28.8050 C.ar  160  PHE160     -0.0042
    149  CE1     -105.4830   39.9180   28.1270 C.ar  160  PHE160     -0.0003
    150  CE2     -107.1770   41.6010   28.3840 C.ar  160  PHE160     -0.0003
    151  CZ      -106.8130   40.3020   28.0420 C.ar  160  PHE160     -0.0000
    152  N       -105.1650   33.5510   28.0700 N.3   177  GLY177     -0.1210
    153  CA      -105.8470   33.2450   26.7990 C.3   177  GLY177      0.1956
    154  C       -104.9790   32.9220   25.5990 C.2   177  GLY177      0.2612
    155  O       -105.3760   32.1320   24.7380 O.2   177  GLY177     -0.2717
    156  N       -103.8050   33.5420   25.5370 N.am  178  THR178     -0.1952
    157  CA      -102.8830   33.3530   24.4230 C.3   178  THR178      0.1897
    158  C       -102.3410   31.9240   24.3350 C.2   178  THR178      0.2313
    159  O       -102.4270   31.3000   23.2810 O.2   178  THR178     -0.2863
    160  CB      -101.7220   34.3480   24.4850 C.3   178  THR178      0.1794
    161  OG1     -102.2680   35.6620   24.4600 O.3   178  THR178     -0.2208
    162  CG2     -100.7680   34.1800   23.3120 C.3   178  THR178      0.0378
    163  N        -95.3870   33.3900    3.0000 N.3   778  PHE778     -0.1241
    164  CA       -96.0370   33.1640    4.2780 C.3   778  PHE778      0.1605
    165  C        -96.0770   31.6740    4.5930 C.2   778  PHE778      0.2264
    166  O        -95.5690   31.2250    5.6350 O.2   778  PHE778     -0.2867
    167  CB       -97.4640   33.7070    4.2810 C.3   778  PHE778      0.0534
    168  CG       -98.1270   33.6410    5.6390 C.ar  778  PHE778     -0.0203
    169  CD1      -98.0140   34.7060    6.5410 C.ar  778  PHE778     -0.0042
    170  CD2      -98.8500   32.4990    6.0350 C.ar  778  PHE778     -0.0042
    171  CE1      -98.6340   34.6390    7.8200 C.ar  778  PHE778     -0.0003
    172  CE2      -99.4690   32.4230    7.3020 C.ar  778  PHE778     -0.0003
    173  CZ       -99.3620   33.4900    8.1920 C.ar  778  PHE778     -0.0000
    174  N        -93.4520   30.7530    7.3650 N.3   782  ARG782     -0.1245
    175  CA       -94.1950   30.5560    8.6160 C.3   782  ARG782      0.1563
    176  C        -94.8150   29.1770    8.7360 C.2   782  ARG782      0.2260
    177  O        -94.3970   28.4150    9.6000 O.2   782  ARG782     -0.2867
    178  CB       -95.2460   31.6460    8.9010 C.3   782  ARG782      0.0307
    179  CG       -96.1990   31.2230   10.0260 C.3   782  ARG782      0.0489
    180  CD       -96.7850   32.3740   10.7640 C.3   782  ARG782      0.2205
    181  NE       -98.2060   32.1900   11.0740 N.pl3 782  ARG782     -0.0865
    182  CZ       -98.9690   33.1240   11.6440 C.cat 782  ARG782      0.5346
    183  NH1      -98.4550   34.3000   11.9800 N.pl3 782  ARG782      0.1354
    184  NH2     -100.2510   32.9020   11.8820 N.pl3 782  ARG782      0.1354
    185  N        -93.7340   34.2540   14.0330 N.3   789  TYR789     -0.1227
    186  CA       -95.1000   34.6740   13.8720 C.3   789  TYR789      0.1736
    187  C        -95.1870   35.8100   12.8770 C.2   789  TYR789      0.2595
    188  O        -96.1000   35.8470   12.0630 O.2   789  TYR789     -0.2718
    189  CB       -95.6460   35.1470   15.2050 C.3   789  TYR789      0.0548
    190  CG       -97.0120   35.7640   15.1070 C.ar  789  TYR789     -0.0200
    191  CD1      -98.1430   34.9510   14.9350 C.ar  789  TYR789     -0.0009
    192  CD2      -97.1890   37.1640   15.1900 C.ar  789  TYR789     -0.0009
    193  CE1      -99.4150   35.5080   14.8440 C.ar  789  TYR789      0.0417
    194  CE2      -98.4600   37.7260   15.1190 C.ar  789  TYR789      0.0417
    195  CZ       -99.5490   36.8820   14.9500 C.ar  789  TYR789      0.1957
    196  OH      -100.7960   37.3700   14.8930 O.3   789  TYR789     -0.2866
    197  N        -94.2600   36.7590   12.9890 N.am  790  ILE790     -0.1980
    198  CA       -94.1870   37.8580   12.0630 C.3   790  ILE790      0.1595
    199  C        -93.3530   37.4060   10.8670 C.2   790  ILE790      0.2287
    200  O        -92.1470   37.1590   11.0020 O.2   790  ILE790     -0.2864
    201  CB       -93.5910   39.0960   12.7340 C.3   790  ILE790      0.0276
    202  CG1      -94.5990   39.6940   13.7000 C.3   790  ILE790      0.0022
    203  CG2      -93.2250   40.1550   11.7170 C.3   790  ILE790      0.0022
    204  CD1      -93.9960   40.8020   14.5420 C.3   790  ILE790      0.0001
@<TRIPOS>BOND
     1   163   164    1
     2   164   167    1
     3   164   165    1
     4   167   168    1
     5   165   166    2
     6    41    42    1
     7    45    42    1
     8    45    46    1
     9   168   170   ar
    10   168   169   ar
    11    42    43    1
    12   170   172   ar
    13   169   171   ar
    14    33    32    2
    15    43    44    2
    16    43    47   am
    17    86    87    2
    18    86    85    1
    19   172   173   ar
    20   174   175    1
    21   171   173   ar
    22    32    31    1
    23    37    39   ar
    24    37    35   ar
    25    47    48    1
    26    85    88    1
    27    85    84    1
    28    39    40   ar
    29   175   176    1
    30   175   178    1
    31    31    34    1
    32    31    30    1
    33   176   177    2
    34    34    35    1
    35    88    89    1
    36   178   179    1
    37    90    92   ar
    38    90    89   ar
    39    35    36   ar
    40    92    94   ar
    41    48    51    1
    42    48    49    1
    43    89    91   ar
    44    40    38   ar
    45   179   180    1
    46    51    52    1
    47    50    49    2
    48    54    52   am
    49    36    38   ar
    50    49    55   am
    51    52    53    2
    52   180   181    1
    53   199   200    2
    54   199   198    1
    55    94    95    1
    56    94    93   ar
    57    91    93   ar
    58   181   182    2
    59   182   184    1
    60   182   183    1
    61   203   201    1
    62    55    56    1
    63   104   102   ar
    64   188   187    2
    65   198   201    1
    66   198   197    1
    67    23    22    2
    68   201   202    1
    69   102   103   ar
    70   102   101    1
    71   187   197   am
    72   187   186    1
    73    56    59    1
    74    56    57    1
    75    22    21    1
    76   100   101    1
    77   100    97    1
    78   202   204    1
    79    96    97    1
    80    14    13    2
    81   186   185    1
    82   186   189    1
    83    97    98    1
    84    57    58    2
    85    57    60   am
    86    21    24    1
    87    21    20    1
    88   193   191   ar
    89   193   195   ar
    90   196   195    1
    91    18    17    2
    92   191   190   ar
    93    13    20   am
    94    13    12    1
    95   195   194   ar
    96    24    25    1
    97    26    25   ar
    98    26    28   ar
    99   190   192   ar
   100   190   189    1
   101   194   192   ar
   102    60    61    1
   103    25    27   ar
   104    98    99    2
   105    28    29   ar
   106    16    17    1
   107    16    15    1
   108    66    68   ar
   109    66    65   ar
   110    68    70   ar
   111    17    19   am
   112    12    15    1
   113    12    11    1
   114    27    29   ar
   115    61    64    1
   116    61    62    1
   117    64    65    1
   118    65    67   ar
   119    70    69   ar
   120    63    62    2
   121   112   111   ar
   122    62    71   am
   123   110   111    1
   124   110   109    2
   125   111   113   ar
   126    67    69   ar
   127     4     3    2
   128   105   106    1
   129    10     8   ar
   130    10     9   ar
   131    71    72    1
   132   109   106    1
   133   106   107    1
   134     8     6   ar
   135    76    75    1
   136     3     2    1
   137     9     7   ar
   138    72    75    1
   139    72    73    1
   140     6     7   ar
   141     6     5    1
   142    75    77    1
   143   107   108    2
   144     2     5    1
   145     2     1    1
   146    73    74    2
   147    73    78   am
   148    78    79    1
   149   120   119    2
   150    83    82    1
   151    82    79    1
   152   121   119   am
   153   119   118    1
   154   114   115    1
   155   138   140   ar
   156   138   136   ar
   157    79    80    1
   158   135   136   ar
   159   135   133   ar
   160   159   158    2
   161   162   160    1
   162   140   139   ar
   163   136   134   ar
   164    81    80    2
   165   115   118    1
   166   115   116    1
   167   133   132   ar
   168   158   157    1
   169   157   160    1
   170   157   156    1
   171   161   160    1
   172   155   154    2
   173   139   137   ar
   174   134   132   ar
   175   134   137   ar
   176   116   117    2
   177   132   131    1
   178   156   154   am
   179   154   153    1
   180   126   123    1
   181   131   128    1
   182   153   152    1
   183   127   128    1
   184   127   124   am
   185   128   129    1
   186   122   123    1
   187   123   124    1
   188   124   125    2
   189   151   149   ar
   190   151   150   ar
   191   149   147   ar
   192   150   148   ar
   193   147   146   ar
   194   148   146   ar
   195   146   145    1
   196   129   130    2
   197   145   142    1
   198   142   141    1
   199   142   143    1
   200   143   144    2
