@<TRIPOS>MOLECULE
tmp/3h44B00.pdb
 157 155 0 0 0
SMALL
GASTEIGER

@<TRIPOS>ATOM
      1  N       -107.1100    6.5430  -45.1940 N.3    66  HIS66      -0.1241
      2  CA      -106.4860    5.3190  -44.6480 C.3    66  HIS66       0.1621
      3  C       -105.5240    4.7120  -45.6730 C.2    66  HIS66       0.2264
      4  O       -104.3630    4.4090  -45.3630 O.2    66  HIS66      -0.2867
      5  CB      -107.5100    4.2610  -44.1870 C.3    66  HIS66       0.0745
      6  CG      -106.8870    3.0170  -43.6010 C.ar   66  HIS66       0.0817
      7  ND1     -107.3960    1.7570  -43.8270 N.ar   66  HIS66      -0.2268
      8  CD2     -105.7900    2.8380  -42.8140 C.ar   66  HIS66       0.1154
      9  CE1     -106.6480    0.8600  -43.2010 C.ar   66  HIS66       0.1986
     10  NE2     -105.6630    1.4860  -42.5830 N.ar   66  HIS66      -0.2212
     11  N       -102.3430    6.7220  -46.1900 N.3    69  GLN69      -0.1231
     12  CA      -101.5030    6.3690  -45.0440 C.3    69  GLN69       0.1698
     13  C       -100.7450    5.0400  -45.2450 C.2    69  GLN69       0.2592
     14  O        -99.5580    4.9530  -44.9290 O.2    69  GLN69      -0.2718
     15  CB      -102.3250    6.3220  -43.7540 C.3    69  GLN69       0.0381
     16  CG      -101.5470    5.7770  -42.5400 C.3    69  GLN69       0.0905
     17  CD      -102.2940    4.7020  -41.7700 C.2    69  GLN69       0.2608
     18  OE1     -101.8640    3.5480  -41.6940 O.2    69  GLN69      -0.2717
     19  NE2     -103.4160    5.0770  -41.1870 N.am   69  GLN69      -0.0878
     20  N       -101.4170    4.0080  -45.7560 N.am   70  HIS70      -0.1976
     21  CA      -100.7190    2.7630  -46.0730 C.3    70  HIS70       0.1656
     22  C        -99.6310    3.0420  -47.1270 C.2    70  HIS70       0.2291
     23  O        -98.4750    2.5990  -46.9780 O.2    70  HIS70      -0.2864
     24  CB      -101.6900    1.6510  -46.5170 C.3    70  HIS70       0.0771
     25  CG      -102.3640    0.9260  -45.3810 C.ar   70  HIS70       0.0820
     26  ND1     -102.1160   -0.3980  -45.0910 N.ar   70  HIS70      -0.2267
     27  CD2     -103.2980    1.3350  -44.4850 C.ar   70  HIS70       0.1154
     28  CE1     -102.8610   -0.7700  -44.0620 C.ar   70  HIS70       0.1986
     29  NE2     -103.5890    0.2620  -43.6750 N.ar   70  HIS70      -0.2212
     30  N        -95.7060    4.6860  -47.0850 N.3    73  PHE73      -0.1241
     31  CA       -94.6100    3.8350  -46.6480 C.3    73  PHE73       0.1605
     32  C        -93.8430    3.2310  -47.8290 C.2    73  PHE73       0.2264
     33  O        -92.6510    2.9500  -47.7250 O.2    73  PHE73      -0.2867
     34  CB       -95.1310    2.7510  -45.6860 C.3    73  PHE73       0.0534
     35  CG       -95.4370    3.2790  -44.2930 C.ar   73  PHE73      -0.0203
     36  CD1      -96.7180    3.7370  -43.9640 C.ar   73  PHE73      -0.0042
     37  CD2      -94.4350    3.3590  -43.3230 C.ar   73  PHE73      -0.0042
     38  CE1      -96.9920    4.2470  -42.6880 C.ar   73  PHE73      -0.0003
     39  CE2      -94.7070    3.8690  -42.0550 C.ar   73  PHE73      -0.0003
     40  CZ       -95.9830    4.3040  -41.7370 C.ar   73  PHE73      -0.0000
     41  N        -91.7380    1.1510  -36.8850 N.3    96  SER96      -0.1202
     42  CA       -92.6120    2.2190  -37.3740 C.3    96  SER96       0.2020
     43  C        -94.0650    1.8190  -37.5280 C.2    96  SER96       0.2619
     44  O        -94.3790    0.6470  -37.6600 O.2    96  SER96      -0.2717
     45  CB       -92.1010    2.7640  -38.6980 C.3    96  SER96       0.2103
     46  OG       -92.7490    3.9740  -39.0140 O.3    96  SER96      -0.2182
     47  N        -94.9470    2.8130  -37.5080 N.am   97  ASN97      -0.1960
     48  CA       -96.3860    2.5980  -37.6840 C.3    97  ASN97       0.1819
     49  C        -97.1600    3.9090  -37.8090 C.2    97  ASN97       0.2621
     50  O        -96.5910    4.9860  -37.6870 O.2    97  ASN97      -0.2715
     51  CB       -96.9700    1.7560  -36.5400 C.3    97  ASN97       0.1195
     52  CG       -98.1370    0.8660  -36.9870 C.2    97  ASN97       0.2630
     53  OD1      -98.6700    0.9950  -38.1090 O.2    97  ASN97      -0.2716
     54  ND2      -98.5400   -0.0500  -36.0970 N.am   97  ASN97      -0.0877
     55  N        -98.4640    3.7940  -38.0320 N.am   98  ALA98      -0.1963
     56  CA       -99.3100    4.9260  -38.3330 C.3    98  ALA98       0.1728
     57  C       -100.7820    4.6070  -38.0310 C.2    98  ALA98       0.2616
     58  O       -101.1800    3.4330  -37.9700 O.2    98  ALA98      -0.2715
     59  CB       -99.1420    5.2960  -39.7950 C.3    98  ALA98       0.0334
     60  N       -101.5850    5.6520  -37.8360 N.am   99  PHE99      -0.1960
     61  CA      -103.0350    5.4860  -37.7600 C.3    99  PHE99       0.1771
     62  C       -103.7910    6.6520  -38.4190 C.2    99  PHE99       0.2620
     63  O       -103.2490    7.7540  -38.5300 O.2    99  PHE99      -0.2715
     64  CB      -103.5070    5.2140  -36.3140 C.3    99  PHE99       0.0574
     65  CG      -103.3880    6.3960  -35.3780 C.ar   99  PHE99      -0.0200
     66  CD1     -102.2690    6.5310  -34.5330 C.ar   99  PHE99      -0.0042
     67  CD2     -104.4000    7.3640  -35.3140 C.ar   99  PHE99      -0.0042
     68  CE1     -102.1500    7.6230  -33.6430 C.ar   99  PHE99      -0.0003
     69  CE2     -104.2910    8.4700  -34.4240 C.ar   99  PHE99      -0.0003
     70  CZ      -103.1650    8.5890  -33.5870 C.ar   99  PHE99      -0.0000
     71  N       -105.0250    6.3820  -38.8670 N.am  100  THR100     -0.1951
     72  CA      -105.9060    7.3650  -39.5090 C.3   100  THR100      0.1897
     73  C       -107.2200    7.4360  -38.7350 C.2   100  THR100      0.2313
     74  O       -107.9520    6.4510  -38.6740 O.2   100  THR100     -0.2863
     75  CB      -106.2150    6.9730  -40.9780 C.3   100  THR100      0.1794
     76  OG1     -105.0030    6.8510  -41.7040 O.3   100  THR100     -0.2208
     77  CG2     -107.0420    8.0160  -41.6740 C.3   100  THR100      0.0378
     78  N        -95.3480    7.6510  -37.0910 N.3   108  TYR108     -0.1241
     79  CA       -94.2600    7.6300  -36.0940 C.3   108  TYR108      0.1605
     80  C        -93.2480    6.4940  -36.2720 C.2   108  TYR108      0.2264
     81  O        -93.5830    5.4350  -36.8040 O.2   108  TYR108     -0.2867
     82  CB       -94.8450    7.5700  -34.6770 C.3   108  TYR108      0.0534
     83  CG       -95.8820    6.4980  -34.5090 C.ar  108  TYR108     -0.0201
     84  CD1      -95.5320    5.2200  -34.0730 C.ar  108  TYR108     -0.0009
     85  CD2      -97.2190    6.7580  -34.8050 C.ar  108  TYR108     -0.0009
     86  CE1      -96.5020    4.2200  -33.9200 C.ar  108  TYR108      0.0417
     87  CE2      -98.1930    5.7810  -34.6590 C.ar  108  TYR108      0.0417
     88  CZ       -97.8360    4.5120  -34.2120 C.ar  108  TYR108      0.1957
     89  OH       -98.8240    3.5540  -34.0800 O.3   108  TYR108     -0.2866
     90  N       -107.4660   -5.6460  -43.6390 N.3   147  GLU147     -0.1245
     91  CA      -107.7650   -4.9010  -42.3680 C.3   147  GLU147      0.1567
     92  C       -109.2910   -4.9610  -42.1840 C.2   147  GLU147      0.2260
     93  O       -109.7660   -5.3260  -41.1160 O.2   147  GLU147     -0.2867
     94  CB      -107.3440   -3.3960  -42.3280 C.3   147  GLU147      0.0388
     95  CG      -105.8440   -2.9440  -42.3010 C.3   147  GLU147      0.1160
     96  CD      -105.6280   -1.4210  -41.8630 C.2   147  GLU147      0.3649
     97  OE1     -104.9220   -0.5890  -42.5430 O.co2 147  GLU147     -0.2457
     98  OE2     -106.1920   -1.0600  -40.8040 O.co2 147  GLU147     -0.2457
     99  N       -116.5310   -2.9350  -33.9060 N.3   157  TRP157     -0.1241
    100  CA      -116.5070   -2.3090  -35.2390 C.3   157  TRP157      0.1605
    101  C       -117.8910   -2.1750  -35.8770 C.2   157  TRP157      0.2264
    102  O       -118.2470   -1.1050  -36.3700 O.2   157  TRP157     -0.2867
    103  CB      -115.5290   -3.0120  -36.1870 C.3   157  TRP157      0.0550
    104  CG      -114.0910   -2.6580  -35.8880 C.ar  157  TRP157      0.0003
    105  CD1     -113.2100   -3.3850  -35.1470 C.ar  157  TRP157      0.0946
    106  CD2     -113.3830   -1.4750  -36.2950 C.ar  157  TRP157      0.0152
    107  NE1     -111.9990   -2.7440  -35.0690 N.ar  157  TRP157     -0.2442
    108  CE2     -112.0740   -1.5660  -35.7580 C.ar  157  TRP157      0.0810
    109  CE3     -113.7270   -0.3410  -37.0500 C.ar  157  TRP157      0.0012
    110  CZ2     -111.1000   -0.5690  -35.9540 C.ar  157  TRP157      0.0191
    111  CZ3     -112.7580    0.6570  -37.2420 C.ar  157  TRP157      0.0001
    112  CH2     -111.4560    0.5280  -36.6960 C.ar  157  TRP157      0.0015
    113  N       -114.7580    4.8080  -43.0050 N.3   177  GLY177     -0.1210
    114  CA      -113.3730    5.2530  -42.9520 C.3   177  GLY177      0.1956
    115  C       -112.3280    4.2610  -43.4310 C.2   177  GLY177      0.2612
    116  O       -111.3410    4.6520  -44.0590 O.2   177  GLY177     -0.2717
    117  N       -112.5270    2.9820  -43.1350 N.am  178  THR178     -0.1952
    118  CA      -111.4870    1.9790  -43.3810 C.3   178  THR178      0.1897
    119  C       -111.1900    1.8500  -44.8640 C.2   178  THR178      0.2313
    120  O       -110.0230    1.7520  -45.2650 O.2   178  THR178     -0.2863
    121  CB      -111.8490    0.5580  -42.8300 C.3   178  THR178      0.1794
    122  OG1     -112.4500    0.6760  -41.5370 O.3   178  THR178     -0.2208
    123  CG2     -110.5990   -0.3260  -42.7210 C.3   178  THR178      0.0378
    124  N        -91.9830  -10.0660  -43.4310 N.3   778  PHE778     -0.1241
    125  CA       -93.0610   -9.1180  -43.5890 C.3   778  PHE778      0.1605
    126  C        -93.1080   -8.6290  -45.0300 C.2   778  PHE778      0.2264
    127  O        -94.1800   -8.6010  -45.6620 O.2   778  PHE778     -0.2867
    128  CB       -92.8540   -7.9390  -42.6410 C.3   778  PHE778      0.0534
    129  CG       -93.9910   -6.9620  -42.6310 C.ar  778  PHE778     -0.0203
    130  CD1      -95.0330   -7.0960  -41.7180 C.ar  778  PHE778     -0.0042
    131  CD2      -94.0260   -5.8980  -43.5350 C.ar  778  PHE778     -0.0042
    132  CE1      -96.1150   -6.1770  -41.7020 C.ar  778  PHE778     -0.0003
    133  CE2      -95.0870   -4.9700  -43.5250 C.ar  778  PHE778     -0.0003
    134  CZ       -96.1350   -5.1100  -42.6060 C.ar  778  PHE778     -0.0000
    135  N        -96.2680  -10.2100  -46.8630 N.3   782  ARG782     -0.1245
    136  CA       -97.3030   -9.1620  -46.8930 C.3   782  ARG782      0.1563
    137  C        -97.1640   -8.1680  -48.0570 C.2   782  ARG782      0.2260
    138  O        -98.0030   -8.1820  -48.9860 O.2   782  ARG782     -0.2867
    139  CB       -97.4840   -8.4040  -45.5690 C.3   782  ARG782      0.0307
    140  CG       -98.7060   -7.4680  -45.6470 C.3   782  ARG782      0.0489
    141  CD       -98.9540   -6.6690  -44.3950 C.3   782  ARG782      0.2205
    142  NE       -99.6260   -5.4050  -44.6930 N.pl3 782  ARG782     -0.0865
    143  CZ       -99.9290   -4.4720  -43.7890 C.cat 782  ARG782      0.5346
    144  NH1      -99.6440   -4.6540  -42.5150 N.pl3 782  ARG782      0.1354
    145  NH2     -100.5250   -3.3480  -44.1620 N.pl3 782  ARG782      0.1354
    146  N       -103.3250   -9.1970  -44.2190 N.3   789  TYR789     -0.1241
    147  CA      -102.9860   -8.0810  -43.3620 C.3   789  TYR789      0.1605
    148  C       -102.1000   -8.4860  -42.1730 C.2   789  TYR789      0.2264
    149  O       -101.1310   -7.8020  -41.8470 O.2   789  TYR789     -0.2867
    150  CB      -104.2600   -7.4260  -42.8600 C.3   789  TYR789      0.0534
    151  CG      -103.9660   -6.2910  -41.9390 C.ar  789  TYR789     -0.0201
    152  CD1     -103.2300   -5.1870  -42.3750 C.ar  789  TYR789     -0.0009
    153  CD2     -104.4010   -6.3260  -40.6180 C.ar  789  TYR789     -0.0009
    154  CE1     -102.9450   -4.1460  -41.5210 C.ar  789  TYR789      0.0417
    155  CE2     -104.1290   -5.2920  -39.7500 C.ar  789  TYR789      0.0417
    156  CZ      -103.4020   -4.2080  -40.2060 C.ar  789  TYR789      0.1957
    157  OH      -103.1440   -3.1900  -39.3320 O.3   789  TYR789     -0.2866
@<TRIPOS>BOND
     1   138   137    2
     2   137   136    1
     3    32    33    2
     4    32    31    1
     5    22    23    2
     6    22    21    1
     7    30    31    1
     8   136   135    1
     9   136   139    1
    10    31    34    1
    11    24    21    1
    12    24    25    1
    13    11    12    1
    14    21    20    1
    15    20    13   am
    16    34    35    1
    17     3     4    2
    18     3     2    1
    19   127   126    2
    20   140   139    1
    21   140   141    1
    22    25    26   ar
    23    25    27   ar
    24   120   119    2
    25    13    12    1
    26    13    14    2
    27     1     2    1
    28    26    28   ar
    29    12    15    1
    30   126   125    1
    31   119   118    1
    32   142   141    1
    33   142   143    2
    34     2     5    1
    35    27    29   ar
    36    35    36   ar
    37    35    37   ar
    38   146   147    1
    39     5     6    1
    40   145   143    1
    41    28    29   ar
    42   116   115    2
    43    36    38   ar
    44     7     6   ar
    45     7     9   ar
    46   143   144    1
    47    15    16    1
    48    90    91    1
    49     6     8   ar
    50   125   124    1
    51   125   128    1
    52   131   133   ar
    53   131   129   ar
    54   133   134   ar
    55   115   117   am
    56   115   114    1
    57   118   117    1
    58   118   121    1
    59   147   150    1
    60   147   148    1
    61    37    39   ar
    62     9    10   ar
    63   113   114    1
    64   150   151    1
    65   121   123    1
    66   121   122    1
    67     8    10   ar
    68    38    40   ar
    69   128   129    1
    70   129   130   ar
    71   134   132   ar
    72    97    96   ar
    73    16    17    1
    74   152   151   ar
    75   152   154   ar
    76    91    94    1
    77    91    92    1
    78    94    95    1
    79    95    96    1
    80    92    93    2
    81   148   149    2
    82    39    40   ar
    83   151   153   ar
    84    96    98   ar
    85    17    18    2
    86    17    19   am
    87   130   132   ar
    88    76    75    1
    89    77    75    1
    90   154   156   ar
    91    75    72    1
    92   153   155   ar
    93   156   155   ar
    94   156   157    1
    95    59    56    1
    96    72    71    1
    97    72    73    1
    98    46    45    1
    99    71    62   am
   100    73    74    2
   101    45    42    1
   102    63    62    2
   103    62    61    1
   104    56    55    1
   105    56    57    1
   106    53    52    2
   107    55    49   am
   108    57    58    2
   109    57    60   am
   110    60    61    1
   111    49    50    2
   112    49    48    1
   113    61    64    1
   114    48    47    1
   115    48    51    1
   116    44    43    2
   117    43    47   am
   118    43    42    1
   119    42    41    1
   120   111   109   ar
   121   111   112   ar
   122    78    79    1
   123   109   106   ar
   124    52    51    1
   125    52    54   am
   126    81    80    2
   127   112   110   ar
   128   102   101    2
   129    64    65    1
   130   106   104   ar
   131   106   108   ar
   132    80    79    1
   133   103   104    1
   134   103   100    1
   135    79    82    1
   136   110   108   ar
   137   104   105   ar
   138   101   100    1
   139   108   107   ar
   140    65    67   ar
   141    65    66   ar
   142    67    69   ar
   143   100    99    1
   144   105   107   ar
   145    85    87   ar
   146    85    83   ar
   147    82    83    1
   148    87    88   ar
   149    66    68   ar
   150    83    84   ar
   151    69    70   ar
   152    88    89    1
   153    88    86   ar
   154    84    86   ar
   155    68    70   ar
