@<TRIPOS>MOLECULE
tmp/3h4gA01.pdb
 150 154 0 0 0
SMALL
GASTEIGER

@<TRIPOS>ATOM
      1  N          6.7350  -25.4830  -11.3640 N.3    22  TRP22      -0.1241
      2  CA         6.4940  -26.6110  -10.4540 C.3    22  TRP22       0.1605
      3  C          6.7230  -27.9300  -11.1990 C.2    22  TRP22       0.2264
      4  O          6.1520  -28.1510  -12.2720 O.2    22  TRP22      -0.2867
      5  CB         5.0820  -26.5590   -9.8470 C.3    22  TRP22       0.0550
      6  CG         4.7230  -27.7560   -8.9520 C.ar   22  TRP22       0.0003
      7  CD1        5.5480  -28.4160   -8.0690 C.ar   22  TRP22       0.0946
      8  CD2        3.4410  -28.3830   -8.8440 C.ar   22  TRP22       0.0152
      9  NE1        4.8530  -29.4320   -7.4380 N.ar   22  TRP22      -0.2442
     10  CE2        3.5600  -29.4330   -7.8960 C.ar   22  TRP22       0.0810
     11  CE3        2.2000  -28.1690   -9.4660 C.ar   22  TRP22       0.0012
     12  CZ2        2.4800  -30.2610   -7.5540 C.ar   22  TRP22       0.0191
     13  CZ3        1.1260  -28.9940   -9.1250 C.ar   22  TRP22       0.0001
     14  CH2        1.2750  -30.0210   -8.1700 C.ar   22  TRP22       0.0015
     15  N          9.2600  -23.7780   -2.4760 N.3    49  ILE49      -0.1231
     16  CA         8.8340  -25.1740   -2.2580 C.3    49  ILE49       0.1692
     17  C          9.1000  -26.0890   -3.4690 C.2    49  ILE49       0.2592
     18  O          9.1840  -27.3110   -3.3170 O.2    49  ILE49      -0.2718
     19  CB         7.3550  -25.2630   -1.7430 C.3    49  ILE49       0.0266
     20  CG1        7.0490  -26.6480   -1.1430 C.3    49  ILE49       0.0019
     21  CG2        6.3600  -24.8840   -2.8290 C.3    49  ILE49       0.0020
     22  CD1        7.8340  -26.9490    0.1270 C.3    49  ILE49       0.0001
     23  N          9.2830  -25.5050   -4.6550 N.am   50  TYR50      -0.1976
     24  CA         9.5280  -26.3170   -5.8650 C.3    50  TYR50       0.1639
     25  C         10.9200  -26.9610   -5.9040 C.2    50  TYR50       0.2290
     26  O         11.1750  -27.8310   -6.7390 O.2    50  TYR50      -0.2864
     27  CB         9.2770  -25.5220   -7.1600 C.3    50  TYR50       0.0560
     28  CG         7.9060  -24.8810   -7.2660 C.ar   50  TYR50      -0.0198
     29  CD1        6.8360  -25.3070   -6.4660 C.ar   50  TYR50      -0.0009
     30  CD2        7.6730  -23.8540   -8.1840 C.ar   50  TYR50      -0.0009
     31  CE1        5.5840  -24.6990   -6.5520 C.ar   50  TYR50       0.0417
     32  CE2        6.4110  -23.2530   -8.2930 C.ar   50  TYR50       0.0417
     33  CZ         5.3790  -23.6840   -7.4770 C.ar   50  TYR50       0.1957
     34  OH         4.1460  -23.0800   -7.5680 O.3    50  TYR50      -0.2866
     35  N          6.7820  -19.8680    1.6170 N.3    82  TRP82      -0.1241
     36  CA         6.2340  -21.1780    1.9960 C.3    82  TRP82       0.1605
     37  C          5.5910  -21.1940    3.3990 C.2    82  TRP82       0.2264
     38  O          5.9040  -20.3520    4.2430 O.2    82  TRP82      -0.2867
     39  CB         7.2740  -22.3010    1.8220 C.3    82  TRP82       0.0550
     40  CG         6.6940  -23.6690    2.1210 C.ar   82  TRP82       0.0003
     41  CD1        7.0780  -24.5310    3.1200 C.ar   82  TRP82       0.0946
     42  CD2        5.5890  -24.2910    1.4580 C.ar   82  TRP82       0.0152
     43  NE1        6.2880  -25.6640    3.0940 N.ar   82  TRP82      -0.2442
     44  CE2        5.3620  -25.5360    2.0910 C.ar   82  TRP82       0.0810
     45  CE3        4.7680  -23.9210    0.3810 C.ar   82  TRP82       0.0012
     46  CZ2        4.3540  -26.4190    1.6750 C.ar   82  TRP82       0.0191
     47  CZ3        3.7580  -24.7940   -0.0230 C.ar   82  TRP82       0.0001
     48  CH2        3.5610  -26.0310    0.6260 C.ar   82  TRP82       0.0015
     49  N          2.0410  -18.2190   -0.1810 N.3   113  HIS113     -0.1226
     50  CA         1.6950  -19.4040   -0.9780 C.3   113  HIS113      0.1752
     51  C          0.3340  -19.9920   -0.6050 C.2   113  HIS113      0.2596
     52  O         -0.4410  -20.3790   -1.4750 O.2   113  HIS113     -0.2718
     53  CB         2.8050  -20.4670   -0.8540 C.3   113  HIS113      0.0759
     54  CG         2.9450  -21.3540   -2.0590 C.ar  113  HIS113      0.0818
     55  ND1        4.1710  -21.7560   -2.5500 N.ar  113  HIS113     -0.2268
     56  CD2        2.0160  -21.9050   -2.8750 C.ar  113  HIS113      0.1154
     57  CE1        3.9900  -22.5270   -3.6090 C.ar  113  HIS113      0.1986
     58  NE2        2.6910  -22.6400   -3.8210 N.ar  113  HIS113     -0.2212
     59  N          0.0590  -20.0580    0.6960 N.am  114  TRP114     -0.1976
     60  CA        -1.1970  -20.5610    1.2330 C.3   114  TRP114      0.1640
     61  C         -1.5700  -19.6730    2.4240 C.2   114  TRP114      0.2290
     62  O         -0.6820  -19.0700    3.0230 O.2   114  TRP114     -0.2864
     63  CB        -1.0410  -22.0230    1.6670 C.3   114  TRP114      0.0576
     64  CG        -0.8890  -22.9770    0.5070 C.ar  114  TRP114      0.0006
     65  CD1        0.2820  -23.3720   -0.0860 C.ar  114  TRP114      0.0946
     66  CD2       -1.9420  -23.6500   -0.1920 C.ar  114  TRP114      0.0152
     67  NE1        0.0190  -24.2440   -1.1190 N.ar  114  TRP114     -0.2442
     68  CE2       -1.3400  -24.4280   -1.2070 C.ar  114  TRP114      0.0810
     69  CE3       -3.3390  -23.6590   -0.0690 C.ar  114  TRP114      0.0012
     70  CZ2       -2.0870  -25.2180   -2.0870 C.ar  114  TRP114      0.0191
     71  CZ3       -4.0860  -24.4470   -0.9440 C.ar  114  TRP114      0.0001
     72  CH2       -3.4550  -25.2150   -1.9440 C.ar  114  TRP114      0.0015
     73  N          7.4280  -29.9000    5.2220 N.3   125  PHE125     -0.1241
     74  CA         6.1910  -30.5920    5.5480 C.3   125  PHE125      0.1605
     75  C          6.3270  -31.2820    6.9050 C.2   125  PHE125      0.2264
     76  O          6.4920  -32.5050    6.9600 O.2   125  PHE125     -0.2867
     77  CB         5.8320  -31.5990    4.4500 C.3   125  PHE125      0.0534
     78  CG         5.4970  -30.9650    3.1290 C.ar  125  PHE125     -0.0203
     79  CD1        4.2020  -30.5210    2.8640 C.ar  125  PHE125     -0.0042
     80  CD2        6.4750  -30.8070    2.1490 C.ar  125  PHE125     -0.0042
     81  CE1        3.8820  -29.9280    1.6390 C.ar  125  PHE125     -0.0003
     82  CE2        6.1640  -30.2270    0.9210 C.ar  125  PHE125     -0.0003
     83  CZ         4.8650  -29.7820    0.6680 C.ar  125  PHE125     -0.0000
     84  N         -3.3010  -20.4730  -12.1630 N.3   210  TYR210     -0.1241
     85  CA        -2.3960  -21.6080  -12.1270 C.3   210  TYR210      0.1605
     86  C         -3.0750  -22.8830  -12.6020 C.2   210  TYR210      0.2264
     87  O         -4.2870  -22.9320  -12.7190 O.2   210  TYR210     -0.2867
     88  CB        -1.6520  -21.7460  -10.7880 C.3   210  TYR210      0.0534
     89  CG        -2.3490  -22.3490   -9.5730 C.ar  210  TYR210     -0.0201
     90  CD1       -2.8090  -23.6730   -9.5620 C.ar  210  TYR210     -0.0009
     91  CD2       -2.4360  -21.6190   -8.3910 C.ar  210  TYR210     -0.0009
     92  CE1       -3.3880  -24.2280   -8.4020 C.ar  210  TYR210      0.0417
     93  CE2       -3.0140  -22.1540   -7.2370 C.ar  210  TYR210      0.0417
     94  CZ        -3.4730  -23.4570   -7.2420 C.ar  210  TYR210      0.1957
     95  OH        -4.0330  -23.9700   -6.0940 O.3   210  TYR210     -0.2866
     96  N         -1.4440  -37.5870   -8.5330 N.3   220  TRP220     -0.1241
     97  CA        -2.5670  -38.1630   -7.8820 C.3   220  TRP220      0.1605
     98  C         -3.8690  -38.1450   -8.5970 C.2   220  TRP220      0.2264
     99  O         -4.8410  -37.7990   -7.9770 O.2   220  TRP220     -0.2867
    100  CB        -2.7630  -37.5050   -6.5290 C.3   220  TRP220      0.0550
    101  CG        -3.5590  -36.2050   -6.5420 C.ar  220  TRP220      0.0003
    102  CD1       -4.9160  -36.0710   -6.4650 C.ar  220  TRP220      0.0946
    103  CD2       -3.0370  -34.8850   -6.5610 C.ar  220  TRP220      0.0152
    104  NE1       -5.2540  -34.7470   -6.4490 N.ar  220  TRP220     -0.2442
    105  CE2       -4.1180  -34.0030   -6.5030 C.ar  220  TRP220      0.0810
    106  CE3       -1.7680  -34.3650   -6.6730 C.ar  220  TRP220      0.0012
    107  CZ2       -3.9590  -32.6600   -6.5370 C.ar  220  TRP220      0.0191
    108  CZ3       -1.6290  -33.0700   -6.7080 C.ar  220  TRP220      0.0001
    109  CH2       -2.7080  -32.2180   -6.6420 C.ar  220  TRP220      0.0015
    110  N         -6.2160  -29.2640   -8.0190 N.3   299  ILE299     -0.1231
    111  CA        -5.0850  -29.0510   -7.1120 C.3   299  ILE299      0.1692
    112  C         -5.5510  -28.8610   -5.6700 C.2   299  ILE299      0.2592
    113  O         -6.0090  -27.7900   -5.2800 O.2   299  ILE299     -0.2718
    114  CB        -4.1950  -27.8680   -7.5860 C.3   299  ILE299      0.0266
    115  CG1       -3.8890  -27.9960   -9.0890 C.3   299  ILE299      0.0019
    116  CG2       -2.9090  -27.7500   -6.7380 C.3   299  ILE299      0.0020
    117  CD1       -3.2010  -29.3050   -9.5070 C.3   299  ILE299      0.0001
    118  N         -5.4500  -29.9430   -4.9060 N.am  300  VAL300     -0.1966
    119  CA        -5.8690  -30.0000   -3.5090 C.3   300  VAL300      0.1712
    120  C         -4.7660  -30.7460   -2.7540 C.2   300  VAL300      0.2458
    121  O         -4.3100  -31.7850   -3.2240 O.2   300  VAL300     -0.2730
    122  CB        -7.2440  -30.7440   -3.3410 C.3   300  VAL300      0.0289
    123  CG1       -7.6260  -30.8900   -1.8720 C.3   300  VAL300      0.0023
    124  CG2       -8.3530  -30.0450   -4.1260 C.3   300  VAL300      0.0023
    125  N         -4.2950  -30.1960   -1.6170 N.am  301  PRO301     -0.2716
    126  CA        -3.3400  -30.9290   -0.7780 C.3   301  PRO301      0.1536
    127  C         -3.9110  -32.2720   -0.3110 C.2   301  PRO301      0.2598
    128  O         -5.0200  -32.3180    0.2420 O.2   301  PRO301     -0.2715
    129  CB        -3.1260  -29.9810    0.4070 C.3   301  PRO301      0.0310
    130  CG        -3.4090  -28.6180   -0.1580 C.3   301  PRO301      0.0237
    131  CD        -4.5780  -28.8540   -1.0680 C.3   301  PRO301      0.0939
    132  N         -3.1630  -33.3490   -0.5570 N.am  302  MET302     -0.1978
    133  CA        -3.6310  -34.7160   -0.2950 C.3   302  MET302      0.1605
    134  C         -2.6730  -35.4890    0.6070 C.2   302  MET302      0.2287
    135  O         -1.4780  -35.1780    0.6690 O.2   302  MET302     -0.2864
    136  CB        -3.7940  -35.4920   -1.6090 C.3   302  MET302      0.0413
    137  CG        -4.7070  -34.8560   -2.6450 C.3   302  MET302      0.0598
    138  SD        -6.4320  -34.7780   -2.1380 S.3   302  MET302     -0.1393
    139  CE        -7.0460  -36.3440   -2.7650 C.3   302  MET302      0.0692
    140  N         -5.7540  -33.4080    2.7860 N.3   308  ARG308     -0.1245
    141  CA        -4.8820  -33.2970    3.9440 C.3   308  ARG308      0.1563
    142  C         -5.2380  -32.1070    4.8360 C.2   308  ARG308      0.2260
    143  O         -5.3110  -32.2350    6.0640 O.2   308  ARG308     -0.2867
    144  CB        -3.4290  -33.1910    3.4830 C.3   308  ARG308      0.0307
    145  CG        -2.4070  -33.3630    4.5950 C.3   308  ARG308      0.0489
    146  CD        -1.0230  -32.9790    4.1090 C.3   308  ARG308      0.2205
    147  NE        -0.9750  -31.5790    3.6930 N.pl3 308  ARG308     -0.0865
    148  CZ        -0.2170  -31.1180    2.7020 C.cat 308  ARG308      0.5346
    149  NH1        0.5640  -31.9450    2.0130 N.pl3 308  ARG308      0.1354
    150  NH2       -0.2490  -29.8310    2.3910 N.pl3 308  ARG308      0.1354
@<TRIPOS>BOND
     1    87    86    2
     2    86    85    1
     3     4     3    2
     4    84    85    1
     5    85    88    1
     6     1     2    1
     7     3     2    1
     8    88    89    1
     9     2     5    1
    10     5     6    1
    11    89    90   ar
    12    89    91   ar
    13    90    92   ar
    14   117   115    1
    15    11    13   ar
    16    11     8   ar
    17    13    14   ar
    18   115   114    1
    19     6     8   ar
    20     6     7   ar
    21     8    10   ar
    22    98    99    2
    23    98    97    1
    24    96    97    1
    25    92    94   ar
    26    91    93   ar
    27    32    30   ar
    28    32    33   ar
    29    30    28   ar
    30    14    12   ar
    31     7     9   ar
    32   110   111    1
    33    10    12   ar
    34    10     9   ar
    35    97   100    1
    36   114   111    1
    37   114   116    1
    38    34    33    1
    39    33    31   ar
    40    28    27    1
    41    28    29   ar
    42    94    93   ar
    43    94    95    1
    44    27    24    1
    45   111   112    1
    46    26    25    2
    47   108   106   ar
    48   108   109   ar
    49   106   103   ar
    50   109   107   ar
    51   103   101   ar
    52   103   105   ar
    53    31    29   ar
    54   101   100    1
    55   101   102   ar
    56   107   105   ar
    57   105   104   ar
    58   102   104   ar
    59    25    24    1
    60    24    23    1
    61   112   113    2
    62   112   118   am
    63   118   119    1
    64    23    17   am
    65   124   122    1
    66    58    57   ar
    67    58    56   ar
    68    57    55   ar
    69   119   122    1
    70   119   120    1
    71    17    18    2
    72    17    16    1
    73   122   123    1
    74   121   120    2
    75    56    54   ar
    76    21    19    1
    77   139   138    1
    78   120   125   am
    79   137   138    1
    80   137   136    1
    81    55    54   ar
    82    15    16    1
    83    16    19    1
    84    70    72   ar
    85    70    68   ar
    86    54    53    1
    87    72    71   ar
    88    19    20    1
    89   125   131    1
    90   125   126    1
    91   136   133    1
    92    52    51    2
    93    68    67   ar
    94    68    66   ar
    95    20    22    1
    96    67    65   ar
    97   131   130    1
    98    50    53    1
    99    50    51    1
   100    50    49    1
   101    71    69   ar
   102   126   127    1
   103   126   129    1
   104    51    59   am
   105   132   127   am
   106   132   133    1
   107   127   128    2
   108   133   134    1
   109    66    69   ar
   110    66    64   ar
   111   130   129    1
   112    65    64   ar
   113    47    45   ar
   114    47    48   ar
   115    45    42   ar
   116    64    63    1
   117   134   135    2
   118    48    46   ar
   119    83    82   ar
   120    83    81   ar
   121    59    60    1
   122    82    80   ar
   123    60    63    1
   124    60    61    1
   125    42    44   ar
   126    42    40   ar
   127    35    36    1
   128    81    79   ar
   129    46    44   ar
   130    39    36    1
   131    39    40    1
   132    36    37    1
   133   149   148    1
   134    44    43   ar
   135    40    41   ar
   136    80    78   ar
   137   150   148    1
   138    61    62    2
   139   148   147    2
   140   140   141    1
   141    79    78   ar
   142    43    41   ar
   143    78    77    1
   144    37    38    2
   145   144   141    1
   146   144   145    1
   147   147   146    1
   148   141   142    1
   149   146   145    1
   150    77    74    1
   151   142   143    2
   152    73    74    1
   153    74    75    1
   154    75    76    2
