@<TRIPOS>MOLECULE
tmp/3h4iA00.pdb
 210 200 0 0 0
SMALL
GASTEIGER

@<TRIPOS>ATOM
      1  N         29.1840   26.0970   15.8710 N.3     9  SER9       -0.1202
      2  CA        29.0360   27.4500   15.3500 C.3     9  SER9        0.2020
      3  C         30.0540   27.7140   14.2440 C.2     9  SER9        0.2619
      4  O         30.8140   26.8240   13.8560 O.2     9  SER9       -0.2717
      5  CB        29.2000   28.4620   16.4720 C.3     9  SER9        0.2103
      6  OG        30.5030   28.3740   16.9980 O.3     9  SER9       -0.2182
      7  N         30.0870   28.9450   13.7430 N.am   10  ARG10      -0.1965
      8  CA        30.9900   29.2670   12.6440 C.3    10  ARG10       0.1729
      9  C         32.4450   28.9310   12.9800 C.2    10  ARG10       0.2617
     10  O         33.1800   28.4070   12.1350 O.2    10  ARG10      -0.2715
     11  CB        30.8740   30.7450   12.2620 C.3    10  ARG10       0.0348
     12  CG        31.8120   31.1720   11.1290 C.3    10  ARG10       0.0492
     13  CD        31.4670   30.5160    9.7950 C.3    10  ARG10       0.2205
     14  NE        32.3360   31.0010    8.7210 N.pl3  10  ARG10      -0.0865
     15  CZ        32.2020   32.1920    8.1330 C.cat  10  ARG10       0.5346
     16  NH1       31.2280   33.0160    8.4990 N.pl3  10  ARG10       0.1354
     17  NH2       33.0360   32.5610    7.1710 N.pl3  10  ARG10       0.1354
     18  N         32.8500   29.2150   14.2160 N.am   11  GLY11      -0.1940
     19  CA        34.2250   28.9500   14.6310 C.3    11  GLY11       0.2014
     20  C         34.6170   27.4830   14.5990 C.2    11  GLY11       0.2638
     21  O         35.7770   27.1430   14.3760 O.2    11  GLY11      -0.2714
     22  N         33.6520   26.6030   14.8390 N.am   12  ASP12      -0.1971
     23  CA        33.9050   25.1640   14.7930 C.3    12  ASP12       0.1709
     24  C         33.9390   24.6430   13.3760 C.2    12  ASP12       0.2293
     25  O         34.5010   23.5870   13.1130 O.2    12  ASP12      -0.2864
     26  CB        32.8170   24.4250   15.5560 C.3    12  ASP12       0.1436
     27  CG        32.7710   24.8190   16.9940 C.2    12  ASP12       0.3671
     28  OD1       33.8550   24.9010   17.6180 O.co2  12  ASP12      -0.2456
     29  OD2       31.6500   25.0690   17.4930 O.co2  12  ASP12      -0.2456
     30  N         34.4430   26.7850   10.2240 N.3    14  GLU14      -0.1231
     31  CA        35.3370   27.4220    9.2700 C.3    14  GLU14       0.1684
     32  C         36.6860   26.6860    9.1160 C.2    14  GLU14       0.2434
     33  O         37.1510   26.5020    7.9910 O.2    14  GLU14      -0.2733
     34  CB        35.5190   28.9040    9.6290 C.3    14  GLU14       0.0402
     35  CG        36.3680   29.7010    8.6420 C.3    14  GLU14       0.1161
     36  CD        35.7060   29.9580    7.3010 C.2    14  GLU14       0.3649
     37  OE1       34.4690   29.7870    7.1530 O.co2  14  GLU14      -0.2457
     38  OE2       36.4590   30.3520    6.3790 O.co2  14  GLU14      -0.2457
     39  N         37.3150   26.2580   10.2350 N.am   15  PRO15      -0.2729
     40  CA        38.5660   25.5050   10.0820 C.3    15  PRO15       0.1401
     41  C         38.4020   24.2200    9.2730 C.2    15  PRO15       0.2269
     42  O         39.2940   23.8410    8.5260 O.2    15  PRO15      -0.2865
     43  CB        38.9680   25.1990   11.5280 C.3    15  PRO15       0.0296
     44  CG        38.3370   26.3060   12.3030 C.3    15  PRO15       0.0237
     45  CD        37.0040   26.4710   11.6600 C.3    15  PRO15       0.0939
     46  N         40.2830   23.4490   18.9630 N.3   123  LEU123     -0.1245
     47  CA        40.6580   24.7470   18.4060 C.3   123  LEU123      0.1561
     48  C         41.3300   25.6840   19.4060 C.2   123  LEU123      0.2260
     49  O         41.8740   26.7170   19.0160 O.2   123  LEU123     -0.2867
     50  CB        39.4290   25.4160   17.7700 C.3   123  LEU123      0.0270
     51  CG        38.7460   24.5840   16.6790 C.3   123  LEU123      0.0019
     52  CD1       37.4820   25.2750   16.2100 C.3   123  LEU123      0.0001
     53  CD2       39.6870   24.2950   15.4940 C.3   123  LEU123      0.0001
     54  N         40.8740   23.2830   25.8270 N.3   127  HIS127     -0.1241
     55  CA        39.8960   22.2310   25.5370 C.3   127  HIS127      0.1621
     56  C         40.5230   20.8530   25.2850 C.2   127  HIS127      0.2264
     57  O         39.8110   19.8640   25.0820 O.2   127  HIS127     -0.2867
     58  CB        38.9920   22.6410   24.3670 C.3   127  HIS127      0.0745
     59  CG        38.1910   23.8830   24.6250 C.ar  127  HIS127      0.0817
     60  ND1       37.8180   24.2850   25.8900 N.ar  127  HIS127     -0.2268
     61  CD2       37.6760   24.8010   23.7740 C.ar  127  HIS127      0.1154
     62  CE1       37.1200   25.4050   25.8070 C.ar  127  HIS127      0.1986
     63  NE2       37.0150   25.7360   24.5330 N.ar  127  HIS127     -0.2212
     64  N         41.1430   33.6720    1.6040 N.3   204  ASP204     -0.1239
     65  CA        39.8260   34.1660    1.2180 C.3   204  ASP204      0.1674
     66  C         39.8950   35.0120   -0.0490 C.2   204  ASP204      0.2266
     67  O         40.4790   36.1000   -0.0450 O.2   204  ASP204     -0.2867
     68  CB        39.2160   34.9590    2.3790 C.3   204  ASP204      0.1410
     69  CG        37.7120   35.1590    2.2450 C.2   204  ASP204      0.3668
     70  OD1       37.1500   34.8710    1.1630 O.co2 204  ASP204     -0.2456
     71  OD2       37.0940   35.6210    3.2310 O.co2 204  ASP204     -0.2456
     72  N         37.0990   35.9620   -1.7700 N.3   206  ARG206     -0.1245
     73  CA        35.8210   36.6380   -1.9880 C.3   206  ARG206      0.1563
     74  C         36.0080   38.1480   -2.0320 C.2   206  ARG206      0.2260
     75  O         36.6910   38.7110   -1.1830 O.2   206  ARG206     -0.2867
     76  CB        34.8160   36.2790   -0.8940 C.3   206  ARG206      0.0307
     77  CG        34.4510   34.8000   -0.8690 C.3   206  ARG206      0.0489
     78  CD        33.6050   34.4520    0.3480 C.3   206  ARG206      0.2205
     79  NE        34.2980   34.7450    1.6070 N.pl3 206  ARG206     -0.0865
     80  CZ        33.7230   34.7340    2.8070 C.cat 206  ARG206      0.5346
     81  NH1       34.4410   35.0350    3.8860 N.pl3 206  ARG206      0.1354
     82  NH2       32.4310   34.4190    2.9210 N.pl3 206  ARG206      0.1354
     83  N         36.2110   48.1570   12.9970 N.3   224  TYR224     -0.1241
     84  CA        35.2400   47.0610   12.9070 C.3   224  TYR224      0.1605
     85  C         34.7840   46.6550   14.2970 C.2   224  TYR224      0.2264
     86  O         35.5890   46.5950   15.2290 O.2   224  TYR224     -0.2867
     87  CB        35.8910   45.8660   12.2250 C.3   224  TYR224      0.0534
     88  CG        35.0820   44.5870   12.1240 C.ar  224  TYR224     -0.0201
     89  CD1       34.5260   44.2060   10.9110 C.ar  224  TYR224     -0.0009
     90  CD2       34.9420   43.7190   13.2110 C.ar  224  TYR224     -0.0009
     91  CE1       33.8230   43.0140   10.7840 C.ar  224  TYR224      0.0417
     92  CE2       34.2340   42.5310   13.0950 C.ar  224  TYR224      0.0417
     93  CZ        33.6950   42.1830   11.8770 C.ar  224  TYR224      0.1957
     94  OH        33.0210   40.9990   11.7340 O.3   224  TYR224     -0.2866
     95  N         30.5270   37.8920   16.3330 N.3   228  GLY228     -0.1210
     96  CA        30.6120   36.5480   15.7520 C.3   228  GLY228      0.1956
     97  C         29.3180   35.7680   15.8470 C.2   228  GLY228      0.2613
     98  O         28.2370   36.3100   15.5870 O.2   228  GLY228     -0.2717
     99  N         29.4170   34.5000   16.2370 N.am  229  SER229     -0.1938
    100  CA        28.2390   33.6300   16.3490 C.3   229  SER229      0.2055
    101  C         27.5000   33.8050   17.6610 C.2   229  SER229      0.2643
    102  O         26.3970   33.2850   17.8210 O.2   229  SER229     -0.2714
    103  CB        28.6540   32.1650   16.2420 C.3   229  SER229      0.2130
    104  OG        29.2570   31.9060   14.9880 O.3   229  SER229     -0.2179
    105  N         28.1170   34.5060   18.6070 N.am  230  GLY230     -0.1954
    106  CA        27.6210   34.5200   19.9720 C.3   230  GLY230      0.1869
    107  C         26.7550   35.7170   20.2780 C.2   230  GLY230      0.2309
    108  O         26.5510   36.5840   19.4200 O.2   230  GLY230     -0.2863
    109  N         29.4530   44.6490   12.2560 N.3   254  SER254     -0.1217
    110  CA        29.0210   43.3320   11.8100 C.3   254  SER254      0.1889
    111  C         27.7740   42.9140   12.5820 C.2   254  SER254      0.2288
    112  O         27.7910   42.8600   13.8080 O.2   254  SER254     -0.2866
    113  CB        30.1390   42.3210   12.0230 C.3   254  SER254      0.2089
    114  OG        29.6870   41.0150   11.7110 O.3   254  SER254     -0.2183
    115  N         26.8900   42.1540    6.7310 N.3   273  GLY273     -0.1210
    116  CA        26.7240   40.7300    6.9970 C.3   273  GLY273      0.1956
    117  C         28.0730   40.0410    6.8620 C.2   273  GLY273      0.2612
    118  O         29.1050   40.5890    7.2530 O.2   273  GLY273     -0.2717
    119  N         28.0690   38.8490    6.2770 N.am  274  GLU274     -0.1965
    120  CA        29.2980   38.1020    6.0460 C.3   274  GLU274      0.1733
    121  C         30.2570   38.8800    5.1460 C.2   274  GLU274      0.2616
    122  O         29.8580   39.3570    4.0790 O.2   274  GLU274     -0.2715
    123  CB        28.9520   36.7600    5.3960 C.3   274  GLU274      0.0429
    124  CG        30.1470   35.9450    4.9070 C.3   274  GLU274      0.1163
    125  CD        30.9480   35.2950    6.0190 C.2   274  GLU274      0.3649
    126  OE1       30.5370   35.3570    7.2010 O.co2 274  GLU274     -0.2457
    127  OE2       32.0020   34.7060    5.6950 O.co2 274  GLU274     -0.2457
    128  N         31.5230   38.9780    5.5630 N.am  275  VAL275     -0.1977
    129  CA        32.5510   39.6850    4.7910 C.3   275  VAL275      0.1596
    130  C         33.8600   38.9120    4.7620 C.2   275  VAL275      0.2287
    131  O         34.0870   38.0200    5.5750 O.2   275  VAL275     -0.2864
    132  CB        32.8490   41.1150    5.3470 C.3   275  VAL275      0.0276
    133  CG1       31.6010   41.9840    5.3220 C.3   275  VAL275      0.0022
    134  CG2       33.4340   41.0520    6.7590 C.3   275  VAL275      0.0022
    135  N         37.0610   38.8330    5.9920 N.3   277  HIS277     -0.1241
    136  CA        37.8410   39.3650    7.1050 C.3   277  HIS277      0.1621
    137  C         39.3090   39.5620    6.7790 C.2   277  HIS277      0.2264
    138  O         39.9230   40.5390    7.2000 O.2   277  HIS277     -0.2867
    139  CB        37.7650   38.4210    8.3010 C.3   277  HIS277      0.0745
    140  CG        36.5780   38.6390    9.1820 C.ar  277  HIS277      0.0817
    141  ND1       36.2540   37.7670   10.1990 N.ar  277  HIS277     -0.2268
    142  CD2       35.6460   39.6230    9.2170 C.ar  277  HIS277      0.1154
    143  CE1       35.1840   38.2110   10.8330 C.ar  277  HIS277      0.1986
    144  NE2       34.7930   39.3350   10.2570 N.ar  277  HIS277     -0.2212
    145  N         34.7660   39.6810   20.0620 N.3   290  HIS290     -0.1241
    146  CA        34.4650   38.8290   21.2140 C.3   290  HIS290      0.1621
    147  C         35.6010   37.9340   21.6850 C.2   290  HIS290      0.2264
    148  O         35.5170   37.3790   22.7670 O.2   290  HIS290     -0.2867
    149  CB        33.2370   37.9590   20.9150 C.3   290  HIS290      0.0745
    150  CG        33.3860   37.0750   19.7150 C.ar  290  HIS290      0.0817
    151  ND1       33.7650   37.5500   18.4780 N.ar  290  HIS290     -0.2268
    152  CD2       33.1540   35.7490   19.5560 C.ar  290  HIS290      0.1154
    153  CE1       33.7870   36.5510   17.6150 C.ar  290  HIS290      0.1986
    154  NE2       33.4100   35.4490   18.2390 N.ar  290  HIS290     -0.2212
    155  N         36.7340   35.1390   19.9050 N.3   292  GLY292     -0.1210
    156  CA        36.6470   33.7730   19.3840 C.3   292  GLY292      0.1956
    157  C         37.9960   33.3550   18.8220 C.2   292  GLY292      0.2612
    158  O         38.7670   34.2060   18.3640 O.2   292  GLY292     -0.2717
    159  N         38.2940   32.0590   18.8450 N.am  293  ALA293     -0.1965
    160  CA        39.6090   31.5700   18.4160 C.3   293  ALA293      0.1728
    161  C         39.9280   31.9970   16.9830 C.2   293  ALA293      0.2617
    162  O         41.0210   32.5150   16.7020 O.2   293  ALA293     -0.2715
    163  CB        39.6800   30.0490   18.5560 C.3   293  ALA293      0.0334
    164  N         38.9690   31.7770   16.0830 N.am  294  GLY294     -0.1940
    165  CA        39.1580   32.0620   14.6680 C.3   294  GLY294      0.2014
    166  C         39.2230   33.5450   14.3740 C.2   294  GLY294      0.2639
    167  O         40.0380   33.9850   13.5670 O.2   294  GLY294     -0.2714
    168  N         38.3590   34.3200   15.0200 N.am  295  THR295     -0.1950
    169  CA        38.3540   35.7680   14.8240 C.3   295  THR295      0.1897
    170  C         39.6510   36.3800   15.3440 C.2   295  THR295      0.2313
    171  O         40.2730   37.1960   14.6610 O.2   295  THR295     -0.2863
    172  CB        37.1250   36.4240   15.4780 C.3   295  THR295      0.1794
    173  OG1       35.9480   35.8380   14.9090 O.3   295  THR295     -0.2208
    174  CG2       37.0930   37.9380   15.2250 C.3   295  THR295      0.0378
    175  N         42.3760   35.6100   12.8550 N.3   298  ALA298     -0.1245
    176  CA        42.2790   36.4300   11.6580 C.3   298  ALA298      0.1562
    177  C         42.7260   37.8750   11.8990 C.2   298  ALA298      0.2260
    178  O         43.4200   38.4720   11.0710 O.2   298  ALA298     -0.2867
    179  CB        40.8570   36.4020   11.1390 C.3   298  ALA298      0.0290
    180  N         32.3480   34.7450   26.9790 N.3   312  LYS312     -0.1231
    181  CA        32.2450   33.4350   27.6260 C.3   312  LYS312      0.1693
    182  C         33.3230   32.4620   27.1640 C.2   312  LYS312      0.2592
    183  O         34.1000   32.7590   26.2500 O.2   312  LYS312     -0.2718
    184  CB        30.8590   32.8210   27.3740 C.3   312  LYS312      0.0285
    185  CG        30.5460   32.5170   25.9120 C.3   312  LYS312      0.0035
    186  CD        29.1610   31.8760   25.7530 C.3   312  LYS312      0.0206
    187  CE        28.0370   32.8620   26.0750 C.3   312  LYS312      0.1093
    188  NZ        26.6800   32.2580   25.9170 N.3   312  LYS312     -0.1314
    189  N         33.3510   31.2940   27.8040 N.am  313  ALA313     -0.1966
    190  CA        34.1620   30.1530   27.3700 C.3   313  ALA313      0.1728
    191  C         35.6530   30.4760   27.2400 C.2   313  ALA313      0.2616
    192  O         36.2660   30.9290   28.2030 O.2   313  ALA313     -0.2715
    193  CB        33.6020   29.5550   26.0770 C.3   313  ALA313      0.0334
    194  N         36.2200   30.2410   26.0540 N.am  314  ASP314     -0.1957
    195  CA        37.6440   30.4710   25.7900 C.3   314  ASP314      0.1840
    196  C         37.9970   31.9300   25.4790 C.2   314  ASP314      0.2621
    197  O         39.1620   32.2620   25.2630 O.2   314  ASP314     -0.2715
    198  CB        38.1400   29.5500   24.6570 C.3   314  ASP314      0.1450
    199  CG        37.3270   29.6860   23.3670 C.2   314  ASP314      0.3671
    200  OD1       36.2600   30.3420   23.3770 O.co2 314  ASP314     -0.2456
    201  OD2       37.7560   29.1210   22.3360 O.co2 314  ASP314     -0.2456
    202  N         37.0020   32.8090   25.4790 N.am  315  GLN315     -0.1977
    203  CA        37.2300   34.1890   25.0440 C.3   315  GLN315      0.1601
    204  C         38.1190   35.0070   25.9950 C.2   315  GLN315      0.2287
    205  O         38.9840   35.7530   25.5270 O.2   315  GLN315     -0.2864
    206  CB        35.9040   34.8710   24.7000 C.3   315  GLN315      0.0394
    207  CG        35.2210   34.1730   23.5080 C.3   315  GLN315      0.0908
    208  CD        33.7230   34.3870   23.4240 C.2   315  GLN315      0.2608
    209  OE1       33.0170   33.6640   22.7090 O.2   315  GLN315     -0.2717
    210  NE2       33.2290   35.3760   24.1360 N.am  315  GLN315     -0.0878
@<TRIPOS>BOND
     1    74    73    1
     2    74    75    2
     3    73    72    1
     4    73    76    1
     5    76    77    1
     6    77    78    1
     7    66    67    2
     8    66    65    1
     9    78    79    1
    10    70    69   ar
    11    65    64    1
    12    65    68    1
    13    79    80    2
    14    69    68    1
    15    69    71   ar
    16    80    82    1
    17    80    81    1
    18   122   121    2
    19   130   129    1
    20   130   131    2
    21   129   132    1
    22   129   128    1
    23   124   123    1
    24   124   125    1
    25   121   128   am
    26   121   120    1
    27   133   132    1
    28   132   134    1
    29   123   120    1
    30   127   125   ar
    31   135   136    1
    32   125   126   ar
    33   120   119    1
    34   119   117   am
    35    38    36   ar
    36   115   116    1
    37   137   136    1
    38   137   138    2
    39   117   116    1
    40   117   118    2
    41   136   139    1
    42    37    36   ar
    43    17    15    1
    44    36    35    1
    45    33    32    2
    46    15    16    1
    47    15    14    2
    48   139   140    1
    49    42    41    2
    50    35    34    1
    51    14    13    1
    52    32    31    1
    53    32    39   am
    54   140   142   ar
    55   140   141   ar
    56   142   144   ar
    57    31    34    1
    58    31    30    1
    59    41    40    1
    60    13    12    1
    61    40    39    1
    62    40    43    1
    63   141   143   ar
    64    39    45    1
    65   144   143   ar
    66    91    89   ar
    67    91    93   ar
    68    89    88   ar
    69   178   177    2
    70    12    11    1
    71   179   176    1
    72    43    44    1
    73   176   177    1
    74   176   175    1
    75    45    44    1
    76   114   113    1
    77    94    93    1
    78   110   113    1
    79   110   109    1
    80   110   111    1
    81    93    92   ar
    82    88    87    1
    83    88    90   ar
    84    10     9    2
    85    87    84    1
    86    11     8    1
    87   111   112    2
    88     8     9    1
    89     8     7    1
    90    84    83    1
    91    84    85    1
    92     9    18   am
    93    92    90   ar
    94    25    24    2
    95    24    23    1
    96   167   166    2
    97     7     3   am
    98     4     3    2
    99    18    19    1
   100     3     2    1
   101    85    86    2
   102   166   165    1
   103   166   168   am
   104    21    20    2
   105    20    19    1
   106    20    22   am
   107   171   170    2
   108   165   164    1
   109    23    22    1
   110    23    26    1
   111   169   168    1
   112   169   170    1
   113   169   172    1
   114   173   172    1
   115   104   103    1
   116   174   172    1
   117     2     1    1
   118     2     5    1
   119    53    51    1
   120    26    27    1
   121    98    97    2
   122    96    97    1
   123    96    95    1
   124    97    99   am
   125   164   161   am
   126    52    51    1
   127    99   100    1
   128   103   100    1
   129   100   101    1
   130     5     6    1
   131    51    50    1
   132   162   161    2
   133   161   160    1
   134    27    29   ar
   135    27    28   ar
   136   153   154   ar
   137   153   151   ar
   138   101   102    2
   139   101   105   am
   140    50    47    1
   141   154   152   ar
   142   158   157    2
   143    47    46    1
   144    47    48    1
   145   160   163    1
   146   160   159    1
   147   151   150   ar
   148   105   106    1
   149   157   159   am
   150   157   156    1
   151    49    48    2
   152   156   155    1
   153   108   107    2
   154   152   150   ar
   155   150   149    1
   156   106   107    1
   157   145   146    1
   158   149   146    1
   159   146   147    1
   160   147   148    2
   161   201   199   ar
   162   209   208    2
   163   199   200   ar
   164   199   198    1
   165   208   207    1
   166   208   210   am
   167   207   206    1
   168    61    63   ar
   169    61    59   ar
   170    58    59    1
   171    58    55    1
   172    63    62   ar
   173    59    60   ar
   174   198   195    1
   175   206   203    1
   176   203   202    1
   177   203   204    1
   178    57    56    2
   179   197   196    2
   180    56    55    1
   181   202   196   am
   182   196   195    1
   183   205   204    2
   184    55    54    1
   185   186   185    1
   186   186   187    1
   187   195   194    1
   188    62    60   ar
   189   185   184    1
   190   188   187    1
   191   194   191   am
   192   193   190    1
   193   183   182    2
   194   180   181    1
   195   182   181    1
   196   182   189   am
   197   191   190    1
   198   191   192    2
   199   190   189    1
   200   184   181    1
