@<TRIPOS>MOLECULE
tmp/3h4kA03.pdb
 116 109 0 0 0
SMALL
GASTEIGER

@<TRIPOS>ATOM
      1  N         34.0680   27.6640   22.0300 N.3     5  TRP5       -0.1241
      2  CA        34.1470   26.3810   22.7300 C.3     5  TRP5        0.1605
      3  C         32.8260   25.9900   23.3910 C.2     5  TRP5        0.2264
      4  O         32.4300   24.8260   23.3440 O.2     5  TRP5       -0.2867
      5  CB        35.2730   26.3990   23.7760 C.3     5  TRP5        0.0550
      6  CG        35.2750   25.1960   24.6820 C.ar    5  TRP5        0.0003
      7  CD1       35.8640   23.9910   24.4390 C.ar    5  TRP5        0.0946
      8  CD2       34.6460   25.0830   25.9660 C.ar    5  TRP5        0.0152
      9  NE1       35.6470   23.1330   25.4920 N.ar    5  TRP5       -0.2442
     10  CE2       34.9000   23.7770   26.4420 C.ar    5  TRP5        0.0810
     11  CE3       33.8910   25.9570   26.7610 C.ar    5  TRP5        0.0012
     12  CZ2       34.4300   23.3240   27.6780 C.ar    5  TRP5        0.0191
     13  CZ3       33.4210   25.5050   27.9910 C.ar    5  TRP5        0.0001
     14  CH2       33.6940   24.1990   28.4370 C.ar    5  TRP5        0.0015
     15  N         29.8780   24.9850   20.7860 N.3     8  LYS8       -0.1231
     16  CA        30.1770   23.6500   20.2700 C.3     8  LYS8        0.1693
     17  C         29.9470   22.5650   21.3230 C.2     8  LYS8        0.2592
     18  O         29.3740   21.5200   21.0210 O.2     8  LYS8       -0.2718
     19  CB        31.6120   23.5850   19.7400 C.3     8  LYS8        0.0285
     20  CG        31.8670   24.4200   18.4920 C.3     8  LYS8        0.0035
     21  CD        33.3400   24.4030   18.0860 C.3     8  LYS8        0.0206
     22  CE        33.6750   23.2060   17.2010 C.3     8  LYS8        0.1093
     23  NZ        35.1170   23.1710   16.8180 N.3     8  LYS8       -0.1314
     24  N         30.3860   22.8310   22.5530 N.am    9  THR9       -0.1953
     25  CA        30.2090   21.9090   23.6760 C.3     9  THR9        0.1897
     26  C         28.7290   21.6500   23.9790 C.2     9  THR9        0.2313
     27  O         28.3210   20.5020   24.1460 O.2     9  THR9       -0.2863
     28  CB        30.9360   22.4250   24.9470 C.3     9  THR9        0.1794
     29  OG1       32.3470   22.4870   24.7010 O.3     9  THR9       -0.2208
     30  CG2       30.6790   21.5180   26.1430 C.3     9  THR9        0.0378
     31  N         26.7980   19.7330   21.0590 N.3    12  SER12      -0.1217
     32  CA        27.2740   18.3820   20.7570 C.3    12  SER12       0.1889
     33  C         27.0760   17.3870   21.8980 C.2    12  SER12       0.2288
     34  O         26.8190   16.2090   21.6530 O.2    12  SER12      -0.2866
     35  CB        28.7430   18.4100   20.3270 C.3    12  SER12       0.2089
     36  OG        29.1480   17.1490   19.8290 O.3    12  SER12      -0.2183
     37  N         25.5420   11.8120   15.6720 N.3   247  LYS247     -0.1245
     38  CA        26.9140   11.7250   15.1840 C.3   247  LYS247      0.1561
     39  C         27.2120   10.3150   14.6870 C.2   247  LYS247      0.2260
     40  O         26.7430    9.3340   15.2640 O.2   247  LYS247     -0.2867
     41  CB        27.9080   12.1230   16.2820 C.3   247  LYS247      0.0271
     42  CG        27.7390   13.5440   16.8270 C.3   247  LYS247      0.0035
     43  CD        28.0840   14.6100   15.7860 C.3   247  LYS247      0.0206
     44  CE        28.1270   16.0060   16.3960 C.3   247  LYS247      0.1093
     45  NZ        26.8100   16.4490   16.9230 N.3   247  LYS247     -0.1314
     46  N         40.6840   16.5840   13.4370 N.3   415  ASP415     -0.1239
     47  CA        39.7860   16.1290   14.5020 C.3   415  ASP415      0.1674
     48  C         38.8820   14.9810   14.0290 C.2   415  ASP415      0.2266
     49  O         37.7970   14.7580   14.5800 O.2   415  ASP415     -0.2867
     50  CB        38.9660   17.3000   15.0690 C.3   415  ASP415      0.1410
     51  CG        37.9140   17.8270   14.0950 C.2   415  ASP415      0.3668
     52  OD1       38.0390   17.6140   12.8700 O.co2 415  ASP415     -0.2456
     53  OD2       36.9520   18.4680   14.5630 O.co2 415  ASP415     -0.2456
     54  N         32.3380   11.0930   11.2020 N.3   424  TYR424     -0.1241
     55  CA        33.7460   11.0210   11.5630 C.3   424  TYR424      0.1605
     56  C         34.3110    9.6630   11.1800 C.2   424  TYR424      0.2264
     57  O         33.5630    8.6990   11.0330 O.2   424  TYR424     -0.2867
     58  CB        33.9160   11.2640   13.0650 C.3   424  TYR424      0.0534
     59  CG        33.5410   12.6620   13.5000 C.ar  424  TYR424     -0.0201
     60  CD1       34.5130   13.6460   13.6410 C.ar  424  TYR424     -0.0009
     61  CD2       32.2110   13.0040   13.7620 C.ar  424  TYR424     -0.0009
     62  CE1       34.1810   14.9360   14.0310 C.ar  424  TYR424      0.0417
     63  CE2       31.8660   14.2960   14.1520 C.ar  424  TYR424      0.0417
     64  CZ        32.8600   15.2560   14.2860 C.ar  424  TYR424      0.1957
     65  OH        32.5390   16.5340   14.6780 O.3   424  TYR424     -0.2866
     66  N         38.0980   11.4780   20.5070 N.3   447  LEU447     -0.1245
     67  CA        36.9580   11.9800   19.7370 C.3   447  LEU447      0.1561
     68  C         35.6790   11.9670   20.5730 C.2   447  LEU447      0.2260
     69  O         34.9400   12.9540   20.6030 O.2   447  LEU447     -0.2867
     70  CB        36.7640   11.1690   18.4500 C.3   447  LEU447      0.0270
     71  CG        35.5650   11.4790   17.5440 C.3   447  LEU447      0.0019
     72  CD1       35.5830   12.9210   17.0460 C.3   447  LEU447      0.0001
     73  CD2       35.5310   10.5120   16.3720 C.3   447  LEU447      0.0001
     74  N         35.7140   14.7810   23.0370 N.3   450  ARG450     -0.1231
     75  CA        35.4530   16.0870   22.4300 C.3   450  ARG450      0.1694
     76  C         33.9660   16.2610   22.1240 C.2   450  ARG450      0.2591
     77  O         33.3890   17.3230   22.3800 O.2   450  ARG450     -0.2718
     78  CB        36.2890   16.2820   21.1600 C.3   450  ARG450      0.0321
     79  CG        37.7980   16.2620   21.3940 C.3   450  ARG450      0.0489
     80  CD        38.5720   16.8090   20.2030 C.3   450  ARG450      0.2205
     81  NE        38.3360   16.0410   18.9810 N.pl3 450  ARG450     -0.0865
     82  CZ        39.0710   15.0080   18.5780 C.cat 450  ARG450      0.5346
     83  NH1       40.1100   14.5940   19.2940 N.pl3 450  ARG450      0.1354
     84  NH2       38.7640   14.3840   17.4500 N.pl3 450  ARG450      0.1354
     85  N         33.3540   15.2030   21.5970 N.am  451  LEU451     -0.1980
     86  CA        31.9480   15.2290   21.1950 C.3   451  LEU451      0.1596
     87  C         30.9810   15.3840   22.3670 C.2   451  LEU451      0.2287
     88  O         30.0440   16.1770   22.2980 O.2   451  LEU451     -0.2864
     89  CB        31.5900   13.9640   20.4050 C.3   451  LEU451      0.0297
     90  CG        32.0610   13.8090   18.9560 C.3   451  LEU451      0.0022
     91  CD1       32.0200   12.3470   18.5400 C.3   451  LEU451      0.0001
     92  CD2       31.2160   14.6530   18.0170 C.3   451  LEU451      0.0001
     93  N         33.0410   17.8430   26.0920 N.3   454  GLY454     -0.1210
     94  CA        33.5810   19.1920   25.9070 C.3   454  GLY454      0.1956
     95  C         35.0950   19.3110   25.9510 C.2   454  GLY454      0.2612
     96  O         35.6290   20.3970   26.1910 O.2   454  GLY454     -0.2717
     97  N         35.7880   18.1970   25.7200 N.am  455  ALA455     -0.1965
     98  CA        37.2490   18.1900   25.6600 C.3   455  ALA455      0.1728
     99  C         37.7350   18.8450   24.3680 C.2   455  ALA455      0.2616
    100  O         36.9790   18.9600   23.3990 O.2   455  ALA455     -0.2715
    101  CB        37.7780   16.7660   25.7750 C.3   455  ALA455      0.0334
    102  N         38.9960   19.2720   24.3610 N.am  456  THR456     -0.1951
    103  CA        39.5860   19.9370   23.1980 C.3   456  THR456      0.1897
    104  C         40.7760   19.1730   22.6230 C.2   456  THR456      0.2313
    105  O         41.2040   19.4390   21.4970 O.2   456  THR456     -0.2863
    106  CB        40.0490   21.3770   23.5320 C.3   456  THR456      0.1794
    107  OG1       40.8370   21.3630   24.7310 O.3   456  THR456     -0.2208
    108  CG2       38.8590   22.2990   23.7220 C.3   456  THR456      0.0378
    109  N         43.2890   16.9510   20.8230 N.3   458  LEU458     -0.1245
    110  CA        43.3620   16.1800   19.5860 C.3   458  LEU458      0.1561
    111  C         44.3520   15.0320   19.7340 C.2   458  LEU458      0.2260
    112  O         45.2150   15.0570   20.6160 O.2   458  LEU458     -0.2867
    113  CB        43.7900   17.0760   18.4180 C.3   458  LEU458      0.0270
    114  CG        43.0280   18.3760   18.1390 C.3   458  LEU458      0.0019
    115  CD1       43.8070   19.2310   17.1480 C.3   458  LEU458      0.0001
    116  CD2       41.6090   18.1100   17.6350 C.3   458  LEU458      0.0001
@<TRIPOS>BOND
     1    57    56    2
     2    56    55    1
     3    54    55    1
     4    55    58    1
     5    52    51   ar
     6    58    59    1
     7    46    47    1
     8    59    60   ar
     9    59    61   ar
    10    60    62   ar
    11    61    63   ar
    12    48    47    1
    13    48    49    2
    14    62    64   ar
    15    51    53   ar
    16    51    50    1
    17    63    64   ar
    18    64    65    1
    19    47    50    1
    20    39    38    1
    21    39    40    2
    22    38    37    1
    23    38    41    1
    24    43    44    1
    25    43    42    1
    26    41    42    1
    27    73    71    1
    28    44    45    1
    29    23    22    1
    30    72    71    1
    31   115   114    1
    32    22    21    1
    33    84    82    1
    34    71    70    1
    35   116   114    1
    36    92    90    1
    37    21    20    1
    38   114   113    1
    39   113   110    1
    40    70    67    1
    41    20    19    1
    42    91    90    1
    43    82    81    2
    44    82    83    1
    45    90    89    1
    46    81    80    1
    47   110   111    1
    48   110   109    1
    49   111   112    2
    50    67    66    1
    51    67    68    1
    52    19    16    1
    53    36    35    1
    54    80    79    1
    55    16    15    1
    56    16    17    1
    57    35    32    1
    58    89    86    1
    59    68    69    2
    60    32    31    1
    61    32    33    1
    62    18    17    2
    63    78    79    1
    64    78    75    1
    65    86    85    1
    66    86    87    1
    67    17    24   am
    68   105   104    2
    69    85    76   am
    70    34    33    2
    71     1     2    1
    72    76    77    2
    73    76    75    1
    74    88    87    2
    75    75    74    1
    76    24    25    1
    77   104   103    1
    78     2     3    1
    79     2     5    1
    80   103   106    1
    81   103   102    1
    82     4     3    2
    83   100    99    2
    84   106   108    1
    85   106   107    1
    86    25    26    1
    87    25    28    1
    88     5     6    1
    89    26    27    2
    90   102    99   am
    91    99    98    1
    92     7     6   ar
    93     7     9   ar
    94     6     8   ar
    95    29    28    1
    96    28    30    1
    97     9    10   ar
    98    98    97    1
    99    98   101    1
   100    97    95   am
   101    94    95    1
   102    94    93    1
   103    95    96    2
   104     8    10   ar
   105     8    11   ar
   106    10    12   ar
   107    11    13   ar
   108    12    14   ar
   109    13    14   ar
