@<TRIPOS>MOLECULE
tmp/3h4lB00.pdb
 145 135 0 0 0
SMALL
GASTEIGER

@<TRIPOS>ATOM
      1  N         58.0310    3.8400   36.2420 N.3    25  GLU25      -0.1231
      2  CA        59.1670    4.6400   36.7010 C.3    25  GLU25       0.1699
      3  C         59.0820    6.1030   36.2910 C.2    25  GLU25       0.2592
      4  O         59.4070    7.0030   37.0810 O.2    25  GLU25      -0.2718
      5  CB        60.4780    4.0320   36.1970 C.3    25  GLU25       0.0402
      6  CG        60.7270    2.5950   36.6840 C.3    25  GLU25       0.1161
      7  CD        60.9360    2.5000   38.1890 C.2    25  GLU25       0.3649
      8  OE1       60.7010    3.4980   38.9070 O.co2  25  GLU25      -0.2457
      9  OE2       61.3320    1.4120   38.6610 O.co2  25  GLU25      -0.2457
     10  N         58.6360    6.3410   35.0620 N.am   26  LEU26      -0.1980
     11  CA        58.5000    7.7010   34.5640 C.3    26  LEU26       0.1596
     12  C         57.3370    8.4670   35.2200 C.2    26  LEU26       0.2287
     13  O         57.5010    9.6220   35.6360 O.2    26  LEU26      -0.2864
     14  CB        58.3390    7.6760   33.0450 C.3    26  LEU26       0.0297
     15  CG        59.5690    7.0730   32.3650 C.3    26  LEU26       0.0022
     16  CD1       59.3200    6.9590   30.8710 C.3    26  LEU26       0.0001
     17  CD2       60.8040    7.9330   32.6680 C.3    26  LEU26       0.0001
     18  N         55.8720    7.8320   38.1330 N.3    28  ASP28      -0.1225
     19  CA        56.2700    8.0170   39.5280 C.3    28  ASP28       0.1805
     20  C         57.1920    9.2160   39.6840 C.2    28  ASP28       0.2598
     21  O         57.0120   10.0400   40.5860 O.2    28  ASP28      -0.2718
     22  CB        56.9900    6.7760   40.0640 C.3    28  ASP28       0.1424
     23  CG        56.0350    5.7090   40.5410 C.2    28  ASP28       0.3668
     24  OD1       54.8160    5.9190   40.4240 O.co2  28  ASP28      -0.2456
     25  OD2       56.5000    4.6580   41.0380 O.co2  28  ASP28      -0.2456
     26  N         58.1870    9.3170   38.8120 N.am   29  ASN29      -0.1960
     27  CA        59.0940   10.4350   38.9030 C.3    29  ASN29       0.1819
     28  C         58.3880   11.7730   38.6860 C.2    29  ASN29       0.2622
     29  O         58.6560   12.7420   39.3960 O.2    29  ASN29      -0.2715
     30  CB        60.2480   10.2550   37.9260 C.3    29  ASN29       0.1195
     31  CG        61.2460    9.2410   38.4190 C.2    29  ASN29       0.2630
     32  OD1       61.2790    8.9270   39.6050 O.2    29  ASN29      -0.2716
     33  ND2       62.0740    8.7270   37.5200 N.am   29  ASN29      -0.0877
     34  N         57.4800   11.8200   37.7190 N.am   30  SER30      -0.1950
     35  CA        56.7460   13.0500   37.4440 C.3    30  SER30       0.1924
     36  C         55.9160   13.4230   38.6650 C.2    30  SER30       0.2314
     37  O         55.9790   14.5510   39.1390 O.2    30  SER30      -0.2863
     38  CB        55.8390   12.8870   36.2110 C.3    30  SER30       0.2116
     39  OG        56.6120   12.8150   35.0190 O.3    30  SER30      -0.2180
     40  N         56.3920   12.6500   41.6700 N.3    32  ASP32      -0.1225
     41  CA        57.3340   13.0630   42.7160 C.3    32  ASP32       0.1805
     42  C         57.8130   14.4870   42.4720 C.2    32  ASP32       0.2597
     43  O         58.2320   15.1770   43.3990 O.2    32  ASP32      -0.2718
     44  CB        58.5830   12.1650   42.7550 C.3    32  ASP32       0.1424
     45  CG        58.2960   10.7590   43.2470 C.2    32  ASP32       0.3668
     46  OD1       57.4110   10.5960   44.1140 O.co2  32  ASP32      -0.2456
     47  OD2       58.9790    9.8180   42.7770 O.co2  32  ASP32      -0.2456
     48  N         57.7710   14.9140   41.2150 N.am   33  ALA33      -0.1979
     49  CA        58.2220   16.2500   40.8580 C.3    33  ALA33       0.1597
     50  C         57.1200   17.2930   41.0210 C.2    33  ALA33       0.2287
     51  O         57.2570   18.4360   40.5810 O.2    33  ALA33      -0.2864
     52  CB        58.7490   16.2520   39.4290 C.3    33  ALA33       0.0319
     53  N         55.9420   16.3750   31.9390 N.3    54  ASP54      -0.1239
     54  CA        55.2440   16.9230   33.0840 C.3    54  ASP54       0.1674
     55  C         55.6160   18.3890   33.2750 C.2    54  ASP54       0.2266
     56  O         56.5590   18.8920   32.6560 O.2    54  ASP54      -0.2867
     57  CB        55.6020   16.1360   34.3430 C.3    54  ASP54       0.1410
     58  CG        57.0620   16.2660   34.7160 C.2    54  ASP54       0.3668
     59  OD1       57.5590   17.4100   34.8190 O.co2  54  ASP54      -0.2456
     60  OD2       57.7190   15.2220   34.9210 O.co2  54  ASP54      -0.2456
     61  N         61.1460   20.1270   37.6810 N.3    58  GLY58      -0.1210
     62  CA        62.3100   20.0320   36.8130 C.3    58  GLY58       0.1956
     63  C         63.5440   19.5270   37.5410 C.2    58  GLY58       0.2611
     64  O         63.5060   19.3090   38.7450 O.2    58  GLY58      -0.2717
     65  N         64.6470   19.3550   36.8190 N.am   59  ILE59      -0.1979
     66  CA        65.8800   18.8400   37.4090 C.3    59  ILE59       0.1595
     67  C         66.9290   19.9260   37.6300 C.2    59  ILE59       0.2287
     68  O         67.2230   20.6990   36.7260 O.2    59  ILE59      -0.2864
     69  CB        66.5180   17.7620   36.4920 C.3    59  ILE59       0.0276
     70  CG1       65.4980   16.6680   36.1780 C.3    59  ILE59       0.0022
     71  CG2       67.7610   17.1710   37.1560 C.3    59  ILE59       0.0022
     72  CD1       65.8880   15.8070   34.9850 C.3    59  ILE59       0.0001
     73  N         72.5780   18.5570   39.0500 N.3    63  ASN63      -0.1240
     74  CA        72.3760   17.1110   39.0790 C.3    63  ASN63       0.1653
     75  C         72.5570   16.4410   37.7210 C.2    63  ASN63       0.2266
     76  O         72.7360   15.2290   37.6490 O.2    63  ASN63      -0.2867
     77  CB        70.9810   16.7750   39.6370 C.3    63  ASN63       0.1155
     78  CG        70.9010   16.9170   41.1570 C.2    63  ASN63       0.2627
     79  OD1       69.8630   16.6640   41.7690 O.2    63  ASN63      -0.2716
     80  ND2       72.0060   17.3180   41.7700 N.am   63  ASN63      -0.0877
     81  N         72.8440   12.4260   37.4600 N.3    67  LEU67      -0.1245
     82  CA        71.4830   11.9340   37.4800 C.3    67  LEU67       0.1561
     83  C         71.3280   10.4410   37.1800 C.2    67  LEU67       0.2260
     84  O         70.6300    9.7390   37.9020 O.2    67  LEU67      -0.2867
     85  CB        70.6290   12.7470   36.5100 C.3    67  LEU67       0.0270
     86  CG        69.1330   12.6350   36.7900 C.3    67  LEU67       0.0019
     87  CD1       68.8690   13.1520   38.1900 C.3    67  LEU67       0.0001
     88  CD2       68.3380   13.4310   35.7650 C.3    67  LEU67       0.0001
     89  N         70.6070    8.6770   42.7760 N.3    91  ARG91      -0.1231
     90  CA        69.3890    8.3080   43.4710 C.3    91  ARG91       0.1694
     91  C         68.6620    7.2530   42.6670 C.2    91  ARG91       0.2593
     92  O         68.7280    7.2420   41.4390 O.2    91  ARG91      -0.2718
     93  CB        68.4680    9.5180   43.6580 C.3    91  ARG91       0.0321
     94  CG        68.9510   10.5390   44.6740 C.3    91  ARG91       0.0489
     95  CD        67.9390   11.6780   44.8560 C.3    91  ARG91       0.2205
     96  NE        67.8820   12.5710   43.7010 N.pl3  91  ARG91      -0.0865
     97  CZ        68.8790   13.3640   43.3180 C.cat  91  ARG91       0.5346
     98  NH1       70.0170   13.3800   44.0050 N.pl3  91  ARG91       0.1354
     99  NH2       68.7460   14.1310   42.2390 N.pl3  91  ARG91       0.1354
    100  N         67.9800    6.3600   43.3770 N.am   92  GLY92      -0.1942
    101  CA        67.2120    5.3180   42.7290 C.3    92  GLY92       0.2014
    102  C         67.9640    4.3560   41.8370 C.2    92  GLY92       0.2639
    103  O         69.1830    4.1920   41.9480 O.2    92  GLY92      -0.2714
    104  N         67.2110    3.7270   40.9380 N.am   93  GLU93      -0.1963
    105  CA        67.7550    2.7520   40.0110 C.3    93  GLU93       0.1733
    106  C         67.1700    2.8910   38.6170 C.2    93  GLU93       0.2616
    107  O         67.7170    2.3610   37.6470 O.2    93  GLU93      -0.2715
    108  CB        67.4620    1.3370   40.5210 C.3    93  GLU93       0.0429
    109  CG        68.4090    0.8440   41.5790 C.3    93  GLU93       0.1163
    110  CD        68.0960   -0.5700   42.0030 C.2    93  GLU93       0.3649
    111  OE1       67.1030   -0.7550   42.7410 O.co2  93  GLU93      -0.2457
    112  OE2       68.8350   -1.4990   41.5950 O.co2  93  GLU93      -0.2457
    113  N         66.0610    3.6060   38.5120 N.am   94  ALA94      -0.1963
    114  CA        65.3920    3.7420   37.2290 C.3    94  ALA94       0.1728
    115  C         66.1870    4.4160   36.1240 C.2    94  ALA94       0.2616
    116  O         66.5450    3.7750   35.1420 O.2    94  ALA94      -0.2715
    117  CB        64.0520    4.4400   37.4100 C.3    94  ALA94       0.0334
    118  N         66.4650    5.7030   36.2530 N.am   95  LEU95      -0.1963
    119  CA        67.1860    6.3530   35.1760 C.3    95  LEU95       0.1728
    120  C         68.5060    5.6550   34.9100 C.2    95  LEU95       0.2616
    121  O         68.9360    5.5260   33.7620 O.2    95  LEU95      -0.2715
    122  CB        67.4100    7.8390   35.4830 C.3    95  LEU95       0.0311
    123  CG        66.1630    8.7210   35.4640 C.3    95  LEU95       0.0022
    124  CD1       66.5900   10.1370   35.1510 C.3    95  LEU95       0.0001
    125  CD2       65.1800    8.2480   34.4140 C.3    95  LEU95       0.0001
    126  N         69.1350    5.1880   35.9780 N.am   96  SER96      -0.1950
    127  CA        70.4090    4.5030   35.8680 C.3    96  SER96       0.1924
    128  C         70.2500    3.2300   35.0420 C.2    96  SER96       0.2314
    129  O         71.1590    2.8370   34.3110 O.2    96  SER96      -0.2863
    130  CB        70.9200    4.1560   37.2640 C.3    96  SER96       0.2116
    131  OG        72.3210    4.0190   37.2390 O.3    96  SER96      -0.2180
    132  N         59.7280   18.6630   32.9920 N.3   138  THR138     -0.1218
    133  CA        60.7150   17.7720   32.4210 C.3   138  THR138      0.1862
    134  C         60.0790   16.8300   31.4140 C.2   138  THR138      0.2287
    135  O         58.8980   16.4780   31.5310 O.2   138  THR138     -0.2866
    136  CB        61.3750   16.9490   33.5370 C.3   138  THR138      0.1770
    137  OG1       61.9390   17.8420   34.5050 O.3   138  THR138     -0.2211
    138  CG2       62.4640   16.0460   32.9830 C.3   138  THR138      0.0375
    139  N         61.0440   13.1600   29.6050 N.3   140  VAL140     -0.1245
    140  CA        61.9530   12.0210   29.5390 C.3   140  VAL140      0.1561
    141  C         61.5500   11.1510   28.3440 C.2   140  VAL140      0.2260
    142  O         60.3750   10.7720   28.1800 O.2   140  VAL140     -0.2867
    143  CB        61.9140   11.1790   30.8380 C.3   140  VAL140      0.0252
    144  CG1       63.0000   10.1020   30.8030 C.3   140  VAL140      0.0019
    145  CG2       62.1200   12.0770   32.0430 C.3   140  VAL140      0.0019
@<TRIPOS>BOND
     1   142   141    2
     2   141   140    1
     3   140   139    1
     4   140   143    1
     5   144   143    1
     6   143   145    1
     7    16    15    1
     8   134   135    2
     9   134   133    1
    10    53    54    1
    11    15    17    1
    12    15    14    1
    13   133   132    1
    14   133   136    1
    15    56    55    2
    16   138   136    1
    17    14    11    1
    18    54    55    1
    19    54    57    1
    20   136   137    1
    21   121   120    2
    22   129   128    2
    23    57    58    1
    24   125   123    1
    25    11    10    1
    26    11    12    1
    27    58    59   ar
    28    58    60   ar
    29   120   119    1
    30   120   126   am
    31    72    70    1
    32    39    38    1
    33   128   127    1
    34    10     3   am
    35   116   115    2
    36   124   123    1
    37   119   122    1
    38   119   118    1
    39    12    13    2
    40   123   122    1
    41    88    86    1
    42   127   126    1
    43   127   130    1
    44   115   118   am
    45   115   114    1
    46    70    69    1
    47     5     6    1
    48     5     2    1
    49    38    35    1
    50     1     2    1
    51     3     2    1
    52     3     4    2
    53    69    71    1
    54    69    66    1
    55    85    86    1
    56    85    82    1
    57     6     7    1
    58    68    67    2
    59    86    87    1
    60    62    63    1
    61    62    61    1
    62    65    66    1
    63    65    63   am
    64    83    82    1
    65    83    84    2
    66   114   117    1
    67   114   113    1
    68   131   130    1
    69    66    67    1
    70    35    34    1
    71    35    36    1
    72    81    82    1
    73    33    31   am
    74    63    64    2
    75   107   106    2
    76    76    75    2
    77    34    28   am
    78    75    74    1
    79    30    31    1
    80    30    27    1
    81    18    19    1
    82     7     9   ar
    83     7     8   ar
    84    31    32    2
    85   113   106   am
    86   106   105    1
    87    36    37    2
    88    28    27    1
    89    28    29    2
    90    26    27    1
    91    26    20   am
    92    73    74    1
    93    74    77    1
    94    52    49    1
    95    19    20    1
    96    19    22    1
    97    77    78    1
    98    20    21    2
    99   105   108    1
   100   105   104    1
   101    22    23    1
   102    24    23   ar
   103   108   109    1
   104    23    25   ar
   105    51    50    2
   106    49    50    1
   107    49    48    1
   108   104   102   am
   109    78    79    2
   110    78    80   am
   111    48    42   am
   112    92    91    2
   113   109   110    1
   114   112   110   ar
   115    40    41    1
   116   102   103    2
   117   102   101    1
   118   110   111   ar
   119    99    97    1
   120    42    41    1
   121    42    43    2
   122    91   100   am
   123    91    90    1
   124    41    44    1
   125   101   100    1
   126    44    45    1
   127    89    90    1
   128    47    45   ar
   129    45    46   ar
   130    97    96    2
   131    97    98    1
   132    90    93    1
   133    93    94    1
   134    96    95    1
   135    94    95    1
