@<TRIPOS>MOLECULE
tmp/3h4mB00.pdb
 137 131 0 0 0
SMALL
GASTEIGER

@<TRIPOS>ATOM
      1  N         45.6090  -66.1860    1.1170 N.3    14  ASP14      -0.1225
      2  CA        47.0220  -66.3320    1.4200 C.3    14  ASP14       0.1805
      3  C         47.7400  -67.1760    0.3720 C.2    14  ASP14       0.2598
      4  O         48.8430  -67.6660    0.6080 O.2    14  ASP14      -0.2718
      5  CB        47.2100  -66.9060    2.8140 C.3    14  ASP14       0.1424
      6  CG        46.3840  -66.1680    3.8610 C.2    14  ASP14       0.3668
      7  OD1       46.5530  -64.9400    3.9700 O.co2  14  ASP14      -0.2456
      8  OD2       45.5620  -66.8080    4.5750 O.co2  14  ASP14      -0.2456
      9  N         47.1310  -67.3280   -0.7990 N.am   15  ILE15      -0.1966
     10  CA        47.7730  -68.0900   -1.8630 C.3    15  ILE15       0.1727
     11  C         47.9470  -67.2410   -3.1090 C.2    15  ILE15       0.2616
     12  O         46.9860  -66.9090   -3.7800 O.2    15  ILE15      -0.2715
     13  CB        46.9860  -69.3660   -2.1940 C.3    15  ILE15       0.0290
     14  CG1       46.9790  -70.3000   -0.9680 C.3    15  ILE15       0.0022
     15  CG2       47.5970  -70.0640   -3.4100 C.3    15  ILE15       0.0023
     16  CD1       45.9140  -71.4310   -1.0080 C.3    15  ILE15       0.0001
     17  N         49.1770  -66.8830   -3.4340 N.am   16  GLY16      -0.1955
     18  CA        49.3950  -65.9560   -4.5260 C.3    16  GLY16       0.1869
     19  C         49.9150  -66.6610   -5.7490 C.2    16  GLY16       0.2309
     20  O         50.3920  -67.7830   -5.6780 O.2    16  GLY16      -0.2863
     21  N         48.5820  -68.0400   -8.1550 N.3    18  LEU18      -0.1245
     22  CA        47.7350  -69.0530   -8.7750 C.3    18  LEU18       0.1561
     23  C         46.3000  -68.6450   -9.1160 C.2    18  LEU18       0.2260
     24  O         45.3810  -69.4460   -9.1090 O.2    18  LEU18      -0.2867
     25  CB        47.7620  -70.2880   -7.9150 C.3    18  LEU18       0.0270
     26  CG        49.1990  -70.7640   -7.7590 C.3    18  LEU18       0.0019
     27  CD1       49.3190  -71.5850   -6.5150 C.3    18  LEU18       0.0001
     28  CD2       49.6890  -71.5240   -8.9680 C.3    18  LEU18       0.0001
     29  N         58.0570  -78.7960   -6.1970 N.3    56  PRO56      -0.2102
     30  CA        57.6630  -78.7790   -4.7930 C.3    56  PRO56       0.1504
     31  C         57.6940  -77.3810   -4.1950 C.2    56  PRO56       0.2576
     32  O         58.5400  -76.5740   -4.5480 O.2    56  PRO56      -0.2718
     33  CB        58.7090  -79.6730   -4.1110 C.3    56  PRO56       0.0282
     34  CG        59.4940  -80.2870   -5.2020 C.3    56  PRO56       0.0208
     35  CD        59.3860  -79.3810   -6.3780 C.3    56  PRO56       0.0893
     36  N         56.7800  -77.1090   -3.2730 N.am   57  GLY57      -0.1943
     37  CA        56.6960  -75.7880   -2.6550 C.3    57  GLY57       0.2014
     38  C         56.0660  -74.7660   -3.5850 C.2    57  GLY57       0.2640
     39  O         56.4410  -73.6020   -3.6100 O.2    57  GLY57      -0.2714
     40  N         55.0710  -75.2040   -4.3320 N.am   58  THR58      -0.1936
     41  CA        54.4170  -74.3580   -5.2920 C.3    58  THR58       0.2028
     42  C         53.0670  -73.8550   -4.7990 C.2    58  THR58       0.2643
     43  O         52.7090  -72.7060   -5.0220 O.2    58  THR58      -0.2714
     44  CB        54.2270  -75.1300   -6.5610 C.3    58  THR58       0.1808
     45  OG1       55.4110  -74.9850   -7.3470 O.3    58  THR58      -0.2208
     46  CG2       53.0590  -74.5880   -7.3080 C.3    58  THR58       0.0379
     47  N         52.3270  -74.7210   -4.1150 N.am   59  GLY59      -0.1939
     48  CA        51.0450  -74.3470   -3.5470 C.3    59  GLY59       0.2014
     49  C         50.0270  -75.4620   -3.5960 C.2    59  GLY59       0.2639
     50  O         48.8850  -75.2850   -3.1990 O.2    59  GLY59      -0.2714
     51  N         50.4420  -76.6220   -4.0800 N.am   60  LYS60      -0.1963
     52  CA        49.5180  -77.7120   -4.2860 C.3    60  LYS60       0.1728
     53  C         48.8490  -78.0660   -2.9610 C.2    60  LYS60       0.2617
     54  O         47.6210  -77.9640   -2.8480 O.2    60  LYS60      -0.2715
     55  CB        50.2330  -78.8980   -4.9100 C.3    60  LYS60       0.0311
     56  CG        50.5900  -78.7010   -6.3770 C.3    60  LYS60       0.0038
     57  CD        51.8000  -79.5520   -6.7820 C.3    60  LYS60       0.0206
     58  CE        53.1060  -79.0160   -6.1800 C.3    60  LYS60       0.1093
     59  NZ        54.1010  -80.1100   -5.9530 N.3    60  LYS60      -0.1314
     60  N         49.6290  -78.4440   -1.9470 N.am   61  THR61      -0.1937
     61  CA        49.0280  -78.7140   -0.6480 C.3    61  THR61       0.2028
     62  C         48.1940  -77.5290   -0.1830 C.2    61  THR61       0.2642
     63  O         47.0890  -77.6960    0.3390 O.2    61  THR61      -0.2714
     64  CB        50.0560  -79.0110    0.4120 C.3    61  THR61       0.1808
     65  OG1       50.7630  -80.2020    0.0620 O.3    61  THR61      -0.2208
     66  CG2       49.3610  -79.2370    1.7190 C.3    61  THR61       0.0379
     67  N         48.7280  -76.3270   -0.3860 N.am   62  LEU62      -0.1977
     68  CA        48.0440  -75.1180    0.0290 C.3    62  LEU62       0.1596
     69  C         46.6500  -74.9940   -0.5630 C.2    62  LEU62       0.2287
     70  O         45.6960  -74.7720    0.1690 O.2    62  LEU62      -0.2864
     71  CB        48.8540  -73.8910   -0.3330 C.3    62  LEU62       0.0297
     72  CG        49.7070  -73.2380    0.7450 C.3    62  LEU62       0.0022
     73  CD1       50.1010  -71.8520    0.2710 C.3    62  LEU62       0.0001
     74  CD2       48.9490  -73.1800    2.0610 C.3    62  LEU62       0.0001
     75  N         44.0140  -85.5090    0.3120 N.3   111  PHE111     -0.1241
     76  CA        45.0950  -84.9980   -0.4970 C.3   111  PHE111      0.1605
     77  C         46.1790  -86.0370   -0.5340 C.2   111  PHE111      0.2264
     78  O         46.7950  -86.3290    0.4820 O.2   111  PHE111     -0.2867
     79  CB        45.6360  -83.6730    0.0560 C.3   111  PHE111      0.0534
     80  CG        46.8400  -83.1670   -0.6700 C.ar  111  PHE111     -0.0203
     81  CD1       46.7150  -82.5220   -1.8750 C.ar  111  PHE111     -0.0042
     82  CD2       48.0960  -83.3390   -0.1480 C.ar  111  PHE111     -0.0042
     83  CE1       47.8240  -82.0580   -2.5440 C.ar  111  PHE111     -0.0003
     84  CE2       49.2040  -82.8780   -0.8170 C.ar  111  PHE111     -0.0003
     85  CZ        49.0620  -82.2420   -2.0210 C.ar  111  PHE111     -0.0000
     86  N         49.6610  -86.5160   -1.4630 N.3   113  ASP113     -0.1239
     87  CA        50.9350  -85.9150   -1.8540 C.3   113  ASP113      0.1674
     88  C         51.7490  -86.9910   -2.5400 C.2   113  ASP113      0.2266
     89  O         51.6670  -88.1570   -2.1550 O.2   113  ASP113     -0.2867
     90  CB        51.7000  -85.4380   -0.6120 C.3   113  ASP113      0.1410
     91  CG        52.5960  -84.2450   -0.8920 C.2   113  ASP113      0.3668
     92  OD1       52.6940  -83.8500   -2.0830 O.co2 113  ASP113     -0.2456
     93  OD2       53.1840  -83.7030    0.0890 O.co2 113  ASP113     -0.2456
     94  N         52.8430  -63.1130   -3.7700 N.3   192  ILE192     -0.1245
     95  CA        53.1840  -64.0090   -2.6710 C.3   192  ILE192      0.1561
     96  C         53.9870  -63.2820   -1.5940 C.2   192  ILE192      0.2260
     97  O         53.7570  -63.4780   -0.3990 O.2   192  ILE192     -0.2867
     98  CB        54.0000  -65.2070   -3.1600 C.3   192  ILE192      0.0252
     99  CG1       53.1880  -66.0380   -4.1420 C.3   192  ILE192      0.0019
    100  CG2       54.4680  -66.0460   -1.9770 C.3   192  ILE192      0.0019
    101  CD1       54.0460  -66.7050   -5.1760 C.3   192  ILE192      0.0001
    102  N         51.8300  -61.2790    0.4560 N.3   195  ILE195     -0.1231
    103  CA        51.1000  -62.1310    1.3970 C.3   195  ILE195      0.1692
    104  C         51.9360  -62.4350    2.6370 C.2   195  ILE195      0.2592
    105  O         51.4850  -62.2360    3.7670 O.2   195  ILE195     -0.2718
    106  CB        50.6920  -63.4630    0.8090 C.3   195  ILE195      0.0266
    107  CG1       49.6010  -63.2730   -0.2320 C.3   195  ILE195      0.0019
    108  CG2       50.1750  -64.3330    1.9150 C.3   195  ILE195      0.0020
    109  CD1       49.2450  -64.5090   -1.0200 C.3   195  ILE195      0.0001
    110  N         53.1650  -62.8910    2.4220 N.am  196  HIS196     -0.1976
    111  CA        53.9900  -63.2910    3.5300 C.3   196  HIS196      0.1656
    112  C         54.5520  -62.1650    4.3520 C.2   196  HIS196      0.2291
    113  O         55.0060  -62.3830    5.4570 O.2   196  HIS196     -0.2864
    114  CB        55.0670  -64.2780    3.0910 C.3   196  HIS196      0.0771
    115  CG        54.5290  -65.6590    2.9020 C.ar  196  HIS196      0.0820
    116  ND1       54.4690  -66.2730    1.6710 N.ar  196  HIS196     -0.2267
    117  CD2       53.9470  -66.5120    3.7780 C.ar  196  HIS196      0.1154
    118  CE1       53.9070  -67.4600    1.8010 C.ar  196  HIS196      0.1986
    119  NE2       53.5800  -67.6280    3.0690 N.ar  196  HIS196     -0.2212
    120  N         57.0150  -70.4100   -4.1940 N.3   220  GLY220     -0.1210
    121  CA        56.3710  -69.9600   -2.9610 C.3   220  GLY220      0.1956
    122  C         57.0940  -70.3170   -1.6680 C.2   220  GLY220      0.2611
    123  O         57.3490  -69.4460   -0.8360 O.2   220  GLY220     -0.2717
    124  N         57.4400  -71.5900   -1.4980 N.am  221  ALA221     -0.1979
    125  CA        58.1480  -72.0450   -0.2950 C.3   221  ALA221      0.1597
    126  C         59.4600  -71.3080   -0.0340 C.2   221  ALA221      0.2287
    127  O         59.8090  -71.0280    1.1170 O.2   221  ALA221     -0.2864
    128  CB        58.3890  -73.5470   -0.3560 C.3   221  ALA221      0.0319
    129  N         58.7340  -67.5490    1.0980 N.3   224  LYS224     -0.1245
    130  CA        58.4450  -67.5380    2.5360 C.3   224  LYS224      0.1561
    131  C         59.7400  -67.6300    3.2930 C.2   224  LYS224      0.2260
    132  O         59.9580  -66.9160    4.2630 O.2   224  LYS224     -0.2867
    133  CB        57.6280  -68.7600    2.9300 C.3   224  LYS224      0.0271
    134  CG        56.5600  -68.4710    3.9410 C.3   224  LYS224      0.0035
    135  CD        57.0930  -68.2710    5.3280 C.3   224  LYS224      0.0206
    136  CE        56.0780  -67.5050    6.1670 C.3   224  LYS224      0.1093
    137  NZ        55.7970  -68.2050    7.4470 N.3   224  LYS224     -0.1314
@<TRIPOS>BOND
     1    23    24    2
     2    23    22    1
     3    28    26    1
     4    22    21    1
     5    22    25    1
     6    25    26    1
     7    26    27    1
     8    45    44    1
     9    46    44    1
    10    57    56    1
    11    57    58    1
    12    44    41    1
    13    35    29    1
    14    35    34    1
    15    56    55    1
    16    29    30    1
    17    58    59    1
    18    19    20    2
    19    19    18    1
    20    41    42    1
    21    41    40    1
    22    34    33    1
    23   101    99    1
    24    43    42    2
    25    55    52    1
    26    42    47   am
    27    30    31    1
    28    30    33    1
    29    32    31    2
    30    18    17    1
    31    40    38   am
    32    52    51    1
    33    52    53    1
    34    31    36   am
    35   120   121    1
    36    99    98    1
    37    47    48    1
    38    51    49   am
    39    12    11    2
    40    94    95    1
    41    39    38    2
    42    49    48    1
    43    49    50    2
    44    38    37    1
    45    17    11   am
    46    15    13    1
    47    36    37    1
    48    98    95    1
    49    98   100    1
    50    11    10    1
    51    53    54    2
    52    53    60   am
    53   121   122    1
    54    95    96    1
    55    83    85   ar
    56    83    81   ar
    57    88    89    2
    58    88    87    1
    59    13    10    1
    60    13    14    1
    61    92    91   ar
    62    85    84   ar
    63    60    61    1
    64    81    80   ar
    65    10     9    1
    66    87    86    1
    67    87    90    1
    68   122   124   am
    69   122   123    2
    70    96    97    2
    71   124   125    1
    72   109   107    1
    73    16    14    1
    74    91    90    1
    75    91    93   ar
    76    84    82   ar
    77     9     3   am
    78    80    82   ar
    79    80    79    1
    80    61    62    1
    81    61    64    1
    82    69    68    1
    83    69    70    2
    84    77    76    1
    85    77    78    2
    86    76    79    1
    87    76    75    1
    88    67    62   am
    89    67    68    1
    90   128   125    1
    91    71    68    1
    92    71    72    1
    93   125   126    1
    94   107   106    1
    95    62    63    2
    96   126   127    2
    97    65    64    1
    98    73    72    1
    99     3     4    2
   100     3     2    1
   101    64    66    1
   102   102   103    1
   103    72    74    1
   104   106   103    1
   105   106   108    1
   106   129   130    1
   107     1     2    1
   108   103   104    1
   109     2     5    1
   110   116   118   ar
   111   116   115   ar
   112   118   119   ar
   113   110   104   am
   114   110   111    1
   115   130   133    1
   116   130   131    1
   117   104   105    2
   118     5     6    1
   119   115   114    1
   120   115   117   ar
   121   133   134    1
   122   119   117   ar
   123   114   111    1
   124   131   132    2
   125   111   112    1
   126     6     7   ar
   127     6     8   ar
   128   134   135    1
   129   112   113    2
   130   135   136    1
   131   136   137    1
