@<TRIPOS>MOLECULE
tmp/3h4nB02.pdb
 150 146 0 0 0
SMALL
GASTEIGER

@<TRIPOS>ATOM
      1  N          4.4880   13.3700   35.4640 N.3     5  LEU5       -0.1231
      2  CA         5.2220   12.4830   36.3600 C.3     5  LEU5        0.1693
      3  C          6.5150   13.2160   36.7040 C.2     5  LEU5        0.2592
      4  O          7.4080   13.3370   35.8590 O.2     5  LEU5       -0.2718
      5  CB         5.4680   11.1280   35.6740 C.3     5  LEU5        0.0284
      6  CG         4.1870   10.4150   35.2250 C.3     5  LEU5        0.0019
      7  CD1        4.5590    9.1550   34.4540 C.3     5  LEU5        0.0001
      8  CD2        3.2790   10.1140   36.4320 C.3     5  LEU5        0.0001
      9  N          6.6000   13.7440   37.9230 N.am    6  GLU6       -0.1966
     10  CA         7.6700   14.6700   38.2650 C.3     6  GLU6        0.1733
     11  C          9.0180   13.9870   38.4430 C.2     6  GLU6        0.2616
     12  O          9.1160   12.8910   38.9940 O.2     6  GLU6       -0.2715
     13  CB         7.3220   15.4860   39.5090 C.3     6  GLU6        0.0429
     14  CG         6.0620   16.3400   39.3470 C.3     6  GLU6        0.1163
     15  CD         5.8800   17.4130   40.4140 C.2     6  GLU6        0.3649
     16  OE1        6.5440   17.3460   41.4660 O.co2   6  GLU6       -0.2457
     17  OE2        5.0460   18.3230   40.2070 O.co2   6  GLU6       -0.2457
     18  N         10.0650   14.6450   37.9630 N.am    7  ALA7       -0.1963
     19  CA        11.4140   14.1100   38.0630 C.3     7  ALA7        0.1728
     20  C         12.4210   15.2520   38.1020 C.2     7  ALA7        0.2616
     21  O         12.2700   16.2480   37.3920 O.2     7  ALA7       -0.2715
     22  CB        11.6770   13.1860   36.8950 C.3     7  ALA7        0.0334
     23  N         13.4570   15.1030   38.9220 N.am    8  LYS8       -0.1963
     24  CA        14.4470   16.1610   39.1290 C.3     8  LYS8        0.1728
     25  C         15.2050   16.5080   37.8650 C.2     8  LYS8        0.2616
     26  O         15.6620   17.6360   37.7250 O.2     8  LYS8       -0.2715
     27  CB        15.4650   15.7490   40.2000 C.3     8  LYS8        0.0311
     28  CG        14.9410   15.7820   41.6090 C.3     8  LYS8        0.0038
     29  CD        15.8940   16.4680   42.5610 C.3     8  LYS8        0.0206
     30  CE        15.1590   16.9840   43.7790 C.3     8  LYS8        0.1093
     31  NZ        14.5050   15.8710   44.5220 N.3     8  LYS8       -0.1314
     32  N         15.3250   15.5400   36.9630 N.am    9  ASN9       -0.1972
     33  CA        16.0590   15.6930   35.7200 C.3     9  ASN9        0.1688
     34  C         15.1660   16.1300   34.5440 C.2     9  ASN9        0.2292
     35  O         15.6310   16.2380   33.4200 O.2     9  ASN9       -0.2864
     36  CB        16.8380   14.3940   35.3900 C.3     9  ASN9        0.1181
     37  CG        15.9380   13.1700   35.2900 C.2     9  ASN9        0.2629
     38  OD1       15.0170   13.0030   36.0920 O.2     9  ASN9       -0.2716
     39  ND2       16.1990   12.3140   34.3060 N.am    9  ASN9       -0.0877
     40  N          8.1810   14.0500   33.1540 N.3    12  VAL12      -0.1245
     41  CA         7.7810   13.1790   32.0630 C.3    12  VAL12       0.1561
     42  C          6.2720   13.3210   31.8350 C.2    12  VAL12       0.2260
     43  O          5.4860   13.2980   32.7870 O.2    12  VAL12      -0.2867
     44  CB         8.1090   11.6880   32.4110 C.3    12  VAL12       0.0252
     45  CG1        7.6540   10.7590   31.3060 C.3    12  VAL12       0.0019
     46  CG2        9.5840   11.5170   32.6880 C.3    12  VAL12       0.0019
     47  N          4.4680    4.1220   41.5090 N.3    41  MET41      -0.1230
     48  CA         5.0410    5.1510   40.6530 C.3    41  MET41       0.1702
     49  C          6.3280    5.7310   41.2420 C.2    41  MET41       0.2593
     50  O          6.3970    6.1100   42.3980 O.2    41  MET41      -0.2718
     51  CB         4.0210    6.2640   40.3870 C.3    41  MET41       0.0401
     52  CG         4.5530    7.3830   39.4830 C.3    41  MET41       0.0596
     53  SD         5.1290    6.8430   37.8590 S.3    41  MET41      -0.1393
     54  CE         3.5970    6.2400   37.1980 C.3    41  MET41       0.0692
     55  N          7.3370    5.8120   40.3880 N.am   42  GLY42      -0.1942
     56  CA         8.6830    6.2240   40.7540 C.3    42  GLY42       0.2014
     57  C          9.6370    5.7160   39.6960 C.2    42  GLY42       0.2638
     58  O          9.2250    5.0180   38.7790 O.2    42  GLY42      -0.2714
     59  N         10.9110    6.0430   39.8430 N.am   43  LYS43      -0.1977
     60  CA        11.9150    5.6750   38.8660 C.3    43  LYS43       0.1596
     61  C         11.9460    4.1800   38.5700 C.2    43  LYS43       0.2287
     62  O         11.9730    3.7640   37.4170 O.2    43  LYS43      -0.2864
     63  CB        13.3050    6.1160   39.3410 C.3    43  LYS43       0.0298
     64  CG        14.4240    5.6370   38.4240 C.3    43  LYS43       0.0038
     65  CD        15.7710    6.2360   38.7280 C.3    43  LYS43       0.0206
     66  CE        16.3320    5.7650   40.0460 C.3    43  LYS43       0.1093
     67  NZ        16.5490    4.2930   40.1830 N.3    43  LYS43      -0.1314
     68  N          8.8350    2.8850   36.7670 N.3    46  ALA46      -0.1231
     69  CA         8.7150    3.5060   35.4470 C.3    46  ALA46       0.1694
     70  C          9.7720    3.0070   34.4640 C.2    46  ALA46       0.2592
     71  O          9.4590    2.6980   33.3150 O.2    46  ALA46      -0.2718
     72  CB         8.7950    5.0110   35.5470 C.3    46  ALA46       0.0304
     73  N         11.0300    2.9300   34.8880 N.am   47  HIS47      -0.1976
     74  CA        12.0610    2.4130   33.9870 C.3    47  HIS47       0.1656
     75  C         11.7980    0.9570   33.6050 C.2    47  HIS47       0.2291
     76  O         12.0100    0.5850   32.4550 O.2    47  HIS47      -0.2864
     77  CB        13.4610    2.6420   34.5470 C.3    47  HIS47       0.0771
     78  CG        13.8700    4.0840   34.5600 C.ar   47  HIS47       0.0820
     79  ND1       15.0470    4.5100   35.1350 N.ar   47  HIS47      -0.2267
     80  CD2       13.2570    5.1980   34.0750 C.ar   47  HIS47       0.1154
     81  CE1       15.1340    5.8270   35.0090 C.ar   47  HIS47       0.1986
     82  NE2       14.0640    6.2680   34.3650 N.ar   47  HIS47      -0.2212
     83  N          7.5390    1.3590   31.7440 N.3    50  CYS50      -0.1221
     84  CA         7.4270    2.2650   30.6190 C.3    50  CYS50       0.1808
     85  C          8.4760    1.9250   29.5640 C.2    50  CYS50       0.2601
     86  O          8.1400    1.5960   28.4280 O.2    50  CYS50      -0.2717
     87  CB         7.5970    3.7180   31.0860 C.3    50  CYS50       0.0970
     88  SG         6.5930    4.2730   32.4920 S.3    50  CYS50      -0.0800
     89  N          9.7580    2.0140   29.9220 N.am   51  THR51      -0.1953
     90  CA        10.8230    1.7360   28.9550 C.3    51  THR51       0.1897
     91  C         10.7390    0.2880   28.4990 C.2    51  THR51       0.2313
     92  O         10.9990   -0.0070   27.3310 O.2    51  THR51      -0.2863
     93  CB        12.1900    2.0160   29.5750 C.3    51  THR51       0.1794
     94  OG1       12.1580    3.3180   30.1650 O.3    51  THR51      -0.2208
     95  CG2       13.3140    2.0510   28.5170 C.3    51  THR51       0.0378
     96  N          8.2210   -0.0780   25.6520 N.3    54  HIS54      -0.1241
     97  CA         8.7120    0.6230   24.4790 C.3    54  HIS54       0.1621
     98  C          9.8020   -0.1880   23.7720 C.2    54  HIS54       0.2264
     99  O          9.7980   -0.3400   22.5520 O.2    54  HIS54      -0.2867
    100  CB         9.2300    1.9900   24.8900 C.3    54  HIS54       0.0745
    101  CG         8.1650    2.9000   25.4070 C.ar   54  HIS54       0.0817
    102  ND1        8.4450    4.1670   25.8540 N.ar   54  HIS54      -0.2268
    103  CD2        6.8410    2.7110   25.6290 C.ar   54  HIS54       0.1154
    104  CE1        7.3300    4.7600   26.2260 C.ar   54  HIS54       0.1986
    105  NE2        6.3340    3.9070   26.0800 N.ar   54  HIS54      -0.2212
    106  N          9.3640    6.0310   23.3650 N.3    61  PRO61      -0.2102
    107  CA        10.6730    6.5550   23.7770 C.3    61  PRO61       0.1504
    108  C         11.5010    5.6140   24.6320 C.2    61  PRO61       0.2576
    109  O         11.0110    5.0190   25.5950 O.2    61  PRO61      -0.2718
    110  CB        10.3050    7.8200   24.5580 C.3    61  PRO61       0.0282
    111  CG         8.9330    7.6220   24.9910 C.3    61  PRO61       0.0208
    112  CD         8.2610    6.8300   23.9130 C.3    61  PRO61       0.0893
    113  N         12.7770    5.4830   24.2810 N.am   62  THR62      -0.1939
    114  CA        13.6970    4.6630   25.0750 C.3    62  THR62       0.2028
    115  C         14.9490    5.3890   25.5610 C.2    62  THR62       0.2642
    116  O         15.7300    4.7940   26.3150 O.2    62  THR62      -0.2714
    117  CB        14.1330    3.4370   24.2730 C.3    62  THR62       0.1808
    118  OG1       14.7710    3.8780   23.0750 O.3    62  THR62      -0.2208
    119  CG2       12.9150    2.5990   23.8100 C.3    62  THR62       0.0379
    120  N         15.1400    6.6320   25.1260 N.am   63  LYS63      -0.1963
    121  CA        16.3050    7.4430   25.4990 C.3    63  LYS63       0.1728
    122  C         15.8840    8.4270   26.5940 C.2    63  LYS63       0.2616
    123  O         14.7500    8.8970   26.6030 O.2    63  LYS63      -0.2715
    124  CB        16.8240    8.2610   24.3060 C.3    63  LYS63       0.0311
    125  CG        17.3070    7.4790   23.0910 C.3    63  LYS63       0.0038
    126  CD        18.3640    6.4490   23.4320 C.3    63  LYS63       0.0206
    127  CE        17.8170    5.0610   23.2730 C.3    63  LYS63       0.1093
    128  NZ        17.6060    4.7250   21.8320 N.3    63  LYS63      -0.1314
    129  N         16.8090    8.7780   27.4860 N.am   64  CYS64      -0.1968
    130  CA        16.4930    9.6470   28.6350 C.3    64  CYS64       0.1712
    131  C         15.7370   10.9120   28.2380 C.2    64  CYS64       0.2296
    132  O         14.6860   11.2120   28.7850 O.2    64  CYS64      -0.2864
    133  CB        17.7620   10.0650   29.3950 C.3    64  CYS64       0.0983
    134  SG        19.0150    8.7830   29.6170 S.3    64  CYS64      -0.0798
    135  N         11.9290   11.0520   27.1640 N.3    67  CYS67      -0.1221
    136  CA        10.9150   11.0830   28.2250 C.3    67  CYS67       0.1808
    137  C         11.0520   12.2850   29.1440 C.2    67  CYS67       0.2601
    138  O         10.0660   12.9500   29.4620 O.2    67  CYS67      -0.2717
    139  CB        10.9910    9.8260   29.0880 C.3    67  CYS67       0.0970
    140  SG        10.2720    8.4050   28.2520 S.3    67  CYS67      -0.0800
    141  N         12.2720   12.5390   29.6010 N.am   68  HIS68      -0.1975
    142  CA        12.5720   13.6200   30.5370 C.3    68  HIS68       0.1656
    143  C         12.7420   14.9220   29.7400 C.2    68  HIS68       0.2291
    144  O         13.8250   15.2390   29.2740 O.2    68  HIS68      -0.2864
    145  CB        13.8250   13.2550   31.3760 C.3    68  HIS68       0.0771
    146  CG        13.6050   12.1090   32.3220 C.ar   68  HIS68       0.0820
    147  ND1       12.8370   12.2190   33.4580 N.ar   68  HIS68      -0.2267
    148  CD2       14.0510   10.8300   32.2980 C.ar   68  HIS68       0.1154
    149  CE1       12.8050   11.0570   34.0870 C.ar   68  HIS68       0.1986
    150  NE2       13.5270   10.1910   33.4000 N.ar   68  HIS68      -0.2212
@<TRIPOS>BOND
     1   128   127    1
     2    99    98    2
     3   118   117    1
     4   125   126    1
     5   125   124    1
     6   127   126    1
     7   106   107    1
     8   106   112    1
     9    98    97    1
    10   107   110    1
    11   107   108    1
    12   119   117    1
    13   112   111    1
    14   117   114    1
    15   113   108   am
    16   113   114    1
    17   124   121    1
    18    97   100    1
    19    97    96    1
    20   110   111    1
    21   108   109    2
    22   100   101    1
    23   114   115    1
    24   120   121    1
    25   120   115   am
    26   101   103   ar
    27   101   102   ar
    28   121   122    1
    29   115   116    2
    30   103   105   ar
    31   102   104   ar
    32   105   104   ar
    33   122   123    2
    34   122   129   am
    35   135   136    1
    36    92    91    2
    37   129   130    1
    38   136   139    1
    39   136   137    1
    40   131   130    1
    41   131   132    2
    42   140   139    1
    43    86    85    2
    44    91    90    1
    45    95    93    1
    46   130   133    1
    47    90    93    1
    48    90    89    1
    49   137   138    2
    50   137   141   am
    51   144   143    2
    52   133   134    1
    53    85    89   am
    54    85    84    1
    55    93    94    1
    56   141   142    1
    57   143   142    1
    58   142   145    1
    59    84    87    1
    60    84    83    1
    61    87    88    1
    62    45    44    1
    63   145   146    1
    64    42    41    1
    65    42    43    2
    66    41    44    1
    67    41    40    1
    68   148   146   ar
    69   148   150   ar
    70   146   147   ar
    71    44    46    1
    72    76    75    2
    73    71    70    2
    74   150   149   ar
    75    35    34    2
    76   147   149   ar
    77    75    74    1
    78    74    77    1
    79    74    73    1
    80    80    82   ar
    81    80    78   ar
    82    39    37   am
    83    82    81   ar
    84     7     6    1
    85    70    73   am
    86    70    69    1
    87    34    33    1
    88    77    78    1
    89    78    79   ar
    90    81    79   ar
    91     6     5    1
    92     6     8    1
    93    37    36    1
    94    37    38    2
    95    36    33    1
    96    69    72    1
    97    69    68    1
    98     1     2    1
    99     5     2    1
   100    33    32    1
   101     4     3    2
   102     2     3    1
   103     3     9   am
   104    22    19    1
   105    32    25   am
   106    54    53    1
   107    21    20    2
   108    62    61    2
   109    26    25    2
   110    53    52    1
   111    25    24    1
   112     9    10    1
   113    18    19    1
   114    18    11   am
   115    19    20    1
   116    20    23   am
   117    10    11    1
   118    10    13    1
   119    64    65    1
   120    64    63    1
   121    11    12    2
   122    61    60    1
   123    65    66    1
   124    58    57    2
   125    60    63    1
   126    60    59    1
   127    23    24    1
   128    24    27    1
   129    14    13    1
   130    14    15    1
   131    52    51    1
   132    57    59   am
   133    57    56    1
   134    66    67    1
   135    27    28    1
   136    17    15   ar
   137    51    48    1
   138    55    56    1
   139    55    49   am
   140    15    16   ar
   141    48    49    1
   142    48    47    1
   143    49    50    2
   144    28    29    1
   145    29    30    1
   146    30    31    1
