@<TRIPOS>MOLECULE
tmp/3h4nB00.pdb
 177 171 0 0 0
SMALL
GASTEIGER

@<TRIPOS>ATOM
      1  N         -6.3990   15.6890   28.6660 N.3     1  LYS1       -0.1245
      2  CA        -5.5770   16.0430   29.8580 C.3     1  LYS1        0.1561
      3  C         -4.4370   15.0430   30.0080 C.2     1  LYS1        0.2260
      4  O         -4.6690   13.8320   30.0580 O.2     1  LYS1       -0.2867
      5  CB        -6.4400   16.0280   31.1190 C.3     1  LYS1        0.0271
      6  CG        -5.7320   16.5470   32.3670 C.3     1  LYS1        0.0035
      7  CD        -5.5720   15.4690   33.4230 C.3     1  LYS1        0.0206
      8  CE        -4.7960   15.9770   34.6310 C.3     1  LYS1        0.1093
      9  NZ        -5.4050   15.5110   35.9040 N.3     1  LYS1       -0.1314
     10  N         -0.9510   13.5310   32.0750 N.3     3  VAL3       -0.1231
     11  CA        -0.4530   13.3780   33.4370 C.3     3  VAL3        0.1692
     12  C          1.0330   13.7600   33.4820 C.2     3  VAL3        0.2592
     13  O          1.8190   13.4310   32.5830 O.2     3  VAL3       -0.2718
     14  CB        -0.7610   11.9640   34.0870 C.3     3  VAL3        0.0266
     15  CG1       -1.9050   11.2090   33.3700 C.3     3  VAL3        0.0020
     16  CG2        0.4660   11.1100   34.2930 C.3     3  VAL3        0.0020
     17  N          1.3900   14.4840   34.5350 N.am    4  VAL4       -0.1966
     18  CA         2.7540   14.9200   34.7900 C.3     4  VAL4        0.1727
     19  C          3.3670   13.9830   35.8180 C.2     4  VAL4        0.2616
     20  O          2.8440   13.8270   36.9160 O.2     4  VAL4       -0.2715
     21  CB         2.7690   16.3280   35.4000 C.3     4  VAL4        0.0290
     22  CG1        4.2000   16.7530   35.7640 C.3     4  VAL4        0.0023
     23  CG2        2.1160   17.3300   34.4690 C.3     4  VAL4        0.0023
     24  N          4.4880   13.3700   35.4640 N.am    5  LEU5       -0.1977
     25  CA         5.2220   12.4830   36.3600 C.3     5  LEU5        0.1596
     26  C          6.5150   13.2160   36.7040 C.2     5  LEU5        0.2287
     27  O          7.4080   13.3370   35.8590 O.2     5  LEU5       -0.2864
     28  CB         5.4680   11.1280   35.6740 C.3     5  LEU5        0.0297
     29  CG         4.1870   10.4150   35.2250 C.3     5  LEU5        0.0022
     30  CD1        4.5590    9.1550   34.4540 C.3     5  LEU5        0.0001
     31  CD2        3.2790   10.1140   36.4320 C.3     5  LEU5        0.0001
     32  N          2.7720   11.8340   30.3510 N.3    14  PHE14      -0.1241
     33  CA         2.1240   10.5900   29.9560 C.3    14  PHE14       0.1605
     34  C          0.7340   10.9110   29.4280 C.2    14  PHE14       0.2264
     35  O         -0.0330   11.5960   30.0880 O.2    14  PHE14      -0.2867
     36  CB         2.0040    9.6020   31.1150 C.3    14  PHE14       0.0534
     37  CG         1.2140    8.3870   30.7540 C.ar   14  PHE14      -0.0203
     38  CD1        1.8170    7.3570   30.0660 C.ar   14  PHE14      -0.0042
     39  CD2       -0.1540    8.3140   31.0100 C.ar   14  PHE14      -0.0042
     40  CE1        1.0970    6.2660   29.6530 C.ar   14  PHE14      -0.0003
     41  CE2       -0.8870    7.2140   30.6100 C.ar   14  PHE14      -0.0003
     42  CZ        -0.2640    6.1850   29.9270 C.ar   14  PHE14      -0.0000
     43  N         -2.7890    9.2590   28.1190 N.3    16  HIS16      -0.1241
     44  CA        -3.6390    8.0690   28.0320 C.3    16  HIS16       0.1621
     45  C         -4.0850    7.8000   26.5960 C.2    16  HIS16       0.2264
     46  O         -4.1310    6.6640   26.1870 O.2    16  HIS16      -0.2867
     47  CB        -4.9020    8.2030   28.9160 C.3    16  HIS16       0.0745
     48  CG        -4.7100    7.7670   30.3310 C.ar   16  HIS16       0.0817
     49  ND1       -4.4530    8.6540   31.3480 N.ar   16  HIS16      -0.2268
     50  CD2       -4.7420    6.5400   30.9050 C.ar   16  HIS16       0.1154
     51  CE1       -4.3180    7.9970   32.4850 C.ar   16  HIS16       0.1986
     52  NE2       -4.4860    6.7100   32.2500 N.ar   16  HIS16      -0.2212
     53  N         -1.8550    5.7760   24.4850 N.3    19  HIS19      -0.1226
     54  CA        -1.7210    4.4100   24.9910 C.3    19  HIS19       0.1752
     55  C         -2.9980    3.5680   24.9420 C.2    19  HIS19       0.2595
     56  O         -3.0500    2.4760   25.5090 O.2    19  HIS19      -0.2718
     57  CB        -1.1670    4.4670   26.4200 C.3    19  HIS19       0.0759
     58  CG         0.2500    4.9330   26.4590 C.ar   19  HIS19       0.0818
     59  ND1        0.5960    6.2680   26.4120 N.ar   19  HIS19      -0.2268
     60  CD2        1.4120    4.2400   26.4440 C.ar   19  HIS19       0.1154
     61  CE1        1.9140    6.3750   26.3950 C.ar   19  HIS19       0.1986
     62  NE2        2.4330    5.1580   26.4020 N.ar   19  HIS19      -0.2212
     63  N         -4.0150    4.0550   24.2360 N.am   20  ALA20      -0.1980
     64  CA        -5.3140    3.3830   24.2120 C.3    20  ALA20       0.1597
     65  C         -5.2940    1.9360   23.6970 C.2    20  ALA20       0.2287
     66  O         -6.0940    1.1110   24.1370 O.2    20  ALA20      -0.2864
     67  CB        -6.3250    4.2090   23.4280 C.3    20  ALA20       0.0319
     68  N         -2.7650   -0.4590   23.8690 N.3    22  VAL22      -0.1245
     69  CA        -1.6250   -1.2930   24.2860 C.3    22  VAL22       0.1561
     70  C         -2.0200   -2.6750   24.8030 C.2    22  VAL22       0.2260
     71  O         -3.1540   -2.8860   25.2380 O.2    22  VAL22      -0.2867
     72  CB        -0.7080   -0.5920   25.3370 C.3    22  VAL22       0.0252
     73  CG1       -0.1270    0.7010   24.7680 C.3    22  VAL22       0.0019
     74  CG2       -1.4340   -0.3470   26.6800 C.3    22  VAL22       0.0019
     75  N         -4.3460   -3.5570   27.8810 N.3    25  GLU25      -0.1231
     76  CA        -5.2310   -2.4070   28.0720 C.3    25  GLU25       0.1699
     77  C         -4.8590   -1.7010   29.4000 C.2    25  GLU25       0.2592
     78  O         -3.6750   -1.4860   29.6460 O.2    25  GLU25      -0.2718
     79  CB        -6.7010   -2.8380   28.0070 C.3    25  GLU25       0.0402
     80  CG        -7.0910   -3.5080   26.6930 C.3    25  GLU25       0.1161
     81  CD        -7.9230   -2.6090   25.7990 C.2    25  GLU25       0.3649
     82  OE1       -9.0170   -3.0410   25.3700 O.co2  25  GLU25      -0.2457
     83  OE2       -7.4820   -1.4720   25.5180 O.co2  25  GLU25      -0.2457
     84  N         -5.8180   -1.3750   30.2660 N.am   26  CYS26      -0.1970
     85  CA        -5.5250   -0.6240   31.4820 C.3    26  CYS26       0.1712
     86  C         -4.5640   -1.3540   32.4000 C.2    26  CYS26       0.2296
     87  O         -3.7850   -0.7150   33.1030 O.2    26  CYS26      -0.2864
     88  CB        -6.8000   -0.3360   32.2790 C.3    26  CYS26       0.0983
     89  SG        -8.2110    0.2430   31.3010 S.3    26  CYS26      -0.0798
     90  N         -1.9420   -2.9260   31.7570 N.3    28  ALA28      -0.1231
     91  CA        -0.5210   -2.7150   31.4570 C.3    28  ALA28       0.1694
     92  C          0.1630   -1.8490   32.5170 C.2    28  ALA28       0.2592
     93  O          1.3680   -1.9380   32.7130 O.2    28  ALA28      -0.2718
     94  CB        -0.3440   -2.1080   30.0740 C.3    28  ALA28       0.0304
     95  N         -0.6160   -1.0050   33.1940 N.am   29  CYS29      -0.1956
     96  CA        -0.1010   -0.0510   34.1610 C.3    29  CYS29       0.1843
     97  C         -0.8430   -0.0480   35.4910 C.2    29  CYS29       0.2625
     98  O         -0.2610    0.3160   36.5070 O.2    29  CYS29      -0.2714
     99  CB        -0.1340    1.3390   33.5530 C.3    29  CYS29       0.0997
    100  SG         0.8860    1.4300   32.0690 S.3    29  CYS29      -0.0797
    101  N         -2.1190   -0.4390   35.4640 N.am   30  HIS30      -0.1973
    102  CA        -3.0240   -0.4110   36.6070 C.3    30  HIS30       0.1656
    103  C         -3.3760   -1.8190   37.0930 C.2    30  HIS30       0.2291
    104  O         -3.1640   -2.8090   36.3930 O.2    30  HIS30      -0.2864
    105  CB        -4.3210    0.3000   36.2050 C.3    30  HIS30       0.0771
    106  CG        -4.1400    1.7430   35.8620 C.ar   30  HIS30       0.0820
    107  ND1       -3.8410    2.6990   36.8050 N.ar   30  HIS30      -0.2267
    108  CD2       -4.2480    2.3980   34.6790 C.ar   30  HIS30       0.1154
    109  CE1       -3.7520    3.8800   36.2160 C.ar   30  HIS30       0.1986
    110  NE2       -4.0040    3.7260   34.9280 N.ar   30  HIS30      -0.2212
    111  N         -9.4180   -2.5820   35.3130 N.3    33  GLU33      -0.1231
    112  CA       -10.0680   -1.7350   34.3170 C.3    33  GLU33       0.1699
    113  C        -10.5820   -0.3850   34.8690 C.2    33  GLU33       0.2592
    114  O        -10.9470    0.5130   34.1100 O.2    33  GLU33      -0.2718
    115  CB       -11.2120   -2.5240   33.6450 C.3    33  GLU33       0.0402
    116  CG       -12.3760   -2.8570   34.5740 C.3    33  GLU33       0.1161
    117  CD       -13.4410   -3.7340   33.9360 C.2    33  GLU33       0.3649
    118  OE1      -13.9930   -4.6040   34.6460 O.co2  33  GLU33      -0.2457
    119  OE2      -13.7350   -3.5460   32.7450 O.co2  33  GLU33      -0.2457
    120  N        -10.6690   -0.2410   36.1870 N.am   34  ALA34      -0.1966
    121  CA       -11.0900    1.0240   36.7860 C.3    34  ALA34       0.1728
    122  C         -9.9860    2.0770   36.7070 C.2    34  ALA34       0.2617
    123  O        -10.2640    3.2700   36.5840 O.2    34  ALA34      -0.2715
    124  CB       -11.5290    0.8250   38.2360 C.3    34  ALA34       0.0334
    125  N         -8.7360    1.6460   36.8180 N.am   35  GLY35      -0.1940
    126  CA        -7.6190    2.5480   36.9580 C.3    35  GLY35       0.2014
    127  C         -7.6350    3.2700   38.2930 C.2    35  GLY35       0.2639
    128  O         -8.4910    3.0460   39.1430 O.2    35  GLY35      -0.2714
    129  N         -6.6720    4.1690   38.4640 N.am   36  GLY36      -0.1939
    130  CA        -6.5120    4.9510   39.6760 C.3    36  GLY36       0.2014
    131  C         -5.0680    5.3950   39.7910 C.2    36  GLY36       0.2639
    132  O         -4.2940    5.2610   38.8500 O.2    36  GLY36      -0.2714
    133  N         -4.6910    5.9330   40.9400 N.am   37  LYS37      -0.1963
    134  CA        -3.2760    6.2370   41.1760 C.3    37  LYS37       0.1728
    135  C         -2.4830    4.9330   41.2110 C.2    37  LYS37       0.2616
    136  O         -3.0210    3.8720   41.5230 O.2    37  LYS37      -0.2715
    137  CB        -3.0710    6.9940   42.4910 C.3    37  LYS37       0.0311
    138  CG        -3.7820    8.3460   42.5830 C.3    37  LYS37       0.0038
    139  CD        -3.2280    9.3460   41.5890 C.3    37  LYS37       0.0206
    140  CE        -3.5460   10.7910   41.9390 C.3    37  LYS37       0.1093
    141  NZ        -2.5690   11.7060   41.2920 N.3    37  LYS37      -0.1314
    142  N         -1.1970    5.0110   40.8850 N.am   38  ILE38      -0.1977
    143  CA        -0.3350    3.8460   40.7810 C.3    38  ILE38       0.1596
    144  C          0.6250    3.8790   41.9710 C.2    38  ILE38       0.2287
    145  O          1.5410    4.7040   42.0240 O.2    38  ILE38      -0.2864
    146  CB         0.4190    3.8580   39.4230 C.3    38  ILE38       0.0276
    147  CG1       -0.5830    3.7070   38.2490 C.3    38  ILE38       0.0022
    148  CG2        1.4980    2.7780   39.4110 C.3    38  ILE38       0.0022
    149  CD1        0.0320    3.8610   36.8950 C.3    38  ILE38       0.0001
    150  N          4.4680    4.1220   41.5090 N.3    41  MET41      -0.1245
    151  CA         5.0410    5.1510   40.6530 C.3    41  MET41       0.1570
    152  C          6.3280    5.7310   41.2420 C.2    41  MET41       0.2261
    153  O          6.3970    6.1100   42.3980 O.2    41  MET41      -0.2867
    154  CB         4.0210    6.2640   40.3870 C.3    41  MET41       0.0387
    155  CG         4.5530    7.3830   39.4830 C.3    41  MET41       0.0595
    156  SD         5.1290    6.8430   37.8590 S.3    41  MET41      -0.1393
    157  CE         3.5970    6.2400   37.1980 C.3    41  MET41       0.0692
    158  N          9.8460    1.6150   39.0410 N.3    45  TRP45      -0.1241
    159  CA         8.6660    1.0620   38.3860 C.3    45  TRP45       0.1605
    160  C          8.5620    1.5980   36.9520 C.2    45  TRP45       0.2264
    161  O          8.2500    0.8530   36.0240 O.2    45  TRP45      -0.2867
    162  CB         7.4020    1.4250   39.1770 C.3    45  TRP45       0.0550
    163  CG         6.1280    0.8910   38.5850 C.ar   45  TRP45       0.0003
    164  CD1        5.4940   -0.2880   38.8980 C.ar   45  TRP45       0.0946
    165  CD2        5.3210    1.5240   37.5960 C.ar   45  TRP45       0.0152
    166  NE1        4.3440   -0.4110   38.1550 N.ar   45  TRP45      -0.2442
    167  CE2        4.2190    0.6790   37.3400 C.ar   45  TRP45       0.0810
    168  CE3        5.4190    2.7190   36.8840 C.ar   45  TRP45       0.0012
    169  CZ2        3.2350    0.9920   36.4100 C.ar   45  TRP45       0.0191
    170  CZ3        4.4290    3.0250   35.9640 C.ar   45  TRP45       0.0001
    171  CH2        3.3620    2.1640   35.7390 C.ar   45  TRP45       0.0015
    172  N          7.5390    1.3590   31.7440 N.3    50  CYS50      -0.1235
    173  CA         7.4270    2.2650   30.6190 C.3    50  CYS50       0.1677
    174  C          8.4760    1.9250   29.5640 C.2    50  CYS50       0.2270
    175  O          8.1400    1.5960   28.4280 O.2    50  CYS50      -0.2867
    176  CB         7.5970    3.7180   31.0860 C.3    50  CYS50       0.0956
    177  SG         6.5930    4.2730   32.4920 S.3    50  CYS50      -0.0801
@<TRIPOS>BOND
     1    67    64    1
     2    65    66    2
     3    65    64    1
     4    68    69    1
     5    64    63    1
     6    63    55   am
     7    69    70    1
     8    69    72    1
     9    53    54    1
    10    73    72    1
    11    70    71    2
    12    55    54    1
    13    55    56    2
    14    54    57    1
    15    72    74    1
    16    82    81   ar
    17    83    81   ar
    18    81    80    1
    19    46    45    2
    20    61    62   ar
    21    61    59   ar
    22    62    60   ar
    23    59    58   ar
    24    57    58    1
    25    60    58   ar
    26    45    44    1
    27    80    79    1
    28    75    76    1
    29    79    76    1
    30    44    43    1
    31    44    47    1
    32    76    77    1
    33   175   174    2
    34     1     2    1
    35    47    48    1
    36    77    78    2
    37    77    84   am
    38    34    33    1
    39    34    35    2
    40   174   173    1
    41    40    42   ar
    42    40    38   ar
    43     2     3    1
    44     2     5    1
    45    42    41   ar
    46    33    32    1
    47    33    36    1
    48     3     4    2
    49    38    37   ar
    50    94    91    1
    51    84    85    1
    52    48    50   ar
    53    48    49   ar
    54    41    39   ar
    55   173   176    1
    56   173   172    1
    57    37    39   ar
    58    37    36    1
    59    50    52   ar
    60   176   177    1
    61     5     6    1
    62    89    88    1
    63    49    51   ar
    64    91    90    1
    65    91    92    1
    66    85    88    1
    67    85    86    1
    68   100    99    1
    69    10    11    1
    70    52    51   ar
    71     6     7    1
    72    86    87    2
    73    92    93    2
    74    92    95   am
    75    13    12    2
    76   119   117   ar
    77    95    96    1
    78    15    14    1
    79     7     8    1
    80    11    12    1
    81    11    14    1
    82    12    17   am
    83    99    96    1
    84   115   112    1
    85   115   116    1
    86   117   116    1
    87   117   118   ar
    88    14    16    1
    89   114   113    2
    90    96    97    1
    91   112   113    1
    92   112   111    1
    93    30    29    1
    94    23    21    1
    95    17    18    1
    96     8     9    1
    97   108   110   ar
    98   108   106   ar
    99    18    21    1
   100    18    19    1
   101   113   120   am
   102   110   109   ar
   103    29    28    1
   104    29    31    1
   105    21    22    1
   106   101    97   am
   107   101   102    1
   108    24    19   am
   109    24    25    1
   110    97    98    2
   111    28    25    1
   112   171   170   ar
   113   171   169   ar
   114    19    20    2
   115    27    26    2
   116   106   105    1
   117   106   107   ar
   118   170   168   ar
   119   161   160    2
   120   120   121    1
   121   105   102    1
   122   109   107   ar
   123    25    26    1
   124   104   103    2
   125   169   167   ar
   126   123   122    2
   127   102   103    1
   128   122   121    1
   129   122   125   am
   130   121   124    1
   131   125   126    1
   132   168   165   ar
   133   149   147    1
   134   160   159    1
   135   126   127    1
   136   157   156    1
   137   167   165   ar
   138   167   166   ar
   139   165   163   ar
   140   156   155    1
   141   166   164   ar
   142   147   146    1
   143   127   129   am
   144   127   128    2
   145   159   158    1
   146   159   162    1
   147   129   130    1
   148   163   164   ar
   149   163   162    1
   150   132   131    2
   151   148   146    1
   152   146   143    1
   153   155   154    1
   154   130   131    1
   155   131   133   am
   156   154   151    1
   157   151   152    1
   158   151   150    1
   159   143   142    1
   160   143   144    1
   161   142   135   am
   162   133   134    1
   163   134   135    1
   164   134   137    1
   165   135   136    2
   166   152   153    2
   167   141   140    1
   168   139   140    1
   169   139   138    1
   170   144   145    2
   171   137   138    1
