@<TRIPOS>MOLECULE
tmp/3h4nA01.pdb
 194 187 0 0 0
SMALL
GASTEIGER

@<TRIPOS>ATOM
      1  N         11.1860   12.3380    6.6250 N.3     4  LEU4       -0.1245
      2  CA        10.4240   12.0390    5.4190 C.3     4  LEU4        0.1561
      3  C          9.1480   12.8590    5.5050 C.2     4  LEU4        0.2260
      4  O          8.2800   12.6170    6.3390 O.2     4  LEU4       -0.2867
      5  CB        10.1290   10.5370    5.3160 C.3     4  LEU4        0.0270
      6  CG        11.3930    9.6620    5.3220 C.3     4  LEU4        0.0019
      7  CD1       11.0460    8.1810    5.4940 C.3     4  LEU4        0.0001
      8  CD2       12.2250    9.9030    4.0560 C.3     4  LEU4        0.0001
      9  N          7.5030   11.9310    9.0830 N.3    11  VAL11      -0.1231
     10  CA         7.9260   10.6710    9.6500 C.3    11  VAL11       0.1692
     11  C          9.4340   10.7170    9.8560 C.2    11  VAL11       0.2593
     12  O         10.1680   11.0380    8.9310 O.2    11  VAL11      -0.2718
     13  CB         7.5760    9.5300    8.6930 C.3    11  VAL11       0.0266
     14  CG1        7.9830    8.1760    9.2730 C.3    11  VAL11       0.0020
     15  CG2        6.0890    9.5360    8.3520 C.3    11  VAL11       0.0020
     16  N          9.8930   10.3970   11.0590 N.am   12  THR12      -0.1939
     17  CA        11.3190   10.4430   11.3700 C.3    12  THR12       0.2028
     18  C         11.9570    9.0730   11.3320 C.2    12  THR12       0.2642
     19  O         11.5650    8.1900   12.0870 O.2    12  THR12      -0.2714
     20  CB        11.5420   11.1060   12.7260 C.3    12  THR12       0.1808
     21  OG1       11.1290   12.4770   12.6490 O.3    12  THR12      -0.2208
     22  CG2       13.0310   11.1760   13.0420 C.3    12  THR12       0.0379
     23  N         12.9220    8.9050   10.4320 N.am   13  PHE13      -0.1959
     24  CA        13.6270    7.6440   10.2140 C.3    13  PHE13       0.1771
     25  C         15.0500    7.7130   10.7980 C.2    13  PHE13       0.2619
     26  O         15.8300    8.6100   10.4640 O.2    13  PHE13      -0.2715
     27  CB        13.7210    7.3140    8.7130 C.3    13  PHE13       0.0574
     28  CG        14.4840    6.0540    8.4540 C.ar   13  PHE13      -0.0200
     29  CD1       13.8730    4.8090    8.6280 C.ar   13  PHE13      -0.0042
     30  CD2       15.8460    6.1020    8.1760 C.ar   13  PHE13      -0.0042
     31  CE1       14.6010    3.6530    8.4910 C.ar   13  PHE13      -0.0003
     32  CE2       16.5570    4.9640    8.0260 C.ar   13  PHE13      -0.0003
     33  CZ        15.9460    3.7310    8.1760 C.ar   13  PHE13      -0.0000
     34  N         15.3820    6.7530   11.6470 N.am   14  ASP14      -0.1971
     35  CA        16.6410    6.7160   12.3710 C.3    14  ASP14       0.1709
     36  C         17.4110    5.4640   11.9420 C.2    14  ASP14       0.2293
     37  O         17.0010    4.3500   12.2490 O.2    14  ASP14      -0.2864
     38  CB        16.3690    6.6920   13.8830 C.3    14  ASP14       0.1436
     39  CG        17.6380    6.7080   14.7090 C.2    14  ASP14       0.3671
     40  OD1       18.1800    5.6210   14.9960 O.co2  14  ASP14      -0.2456
     41  OD2       18.1640    7.7600   15.1290 O.co2  14  ASP14      -0.2456
     42  N         18.2880    2.6560   14.6600 N.3    17  LYS17      -0.1231
     43  CA        17.2310    1.7030   15.0170 C.3    17  LYS17       0.1693
     44  C         17.0730    0.5840   13.9970 C.2    17  LYS17       0.2592
     45  O         16.4010   -0.4090   14.2630 O.2    17  LYS17      -0.2718
     46  CB        15.8970    2.4380   15.1820 C.3    17  LYS17       0.0285
     47  CG        15.8170    3.2870   16.4370 C.3    17  LYS17       0.0035
     48  CD        15.5450    2.4360   17.6690 C.3    17  LYS17       0.0206
     49  CE        15.5320    3.2590   18.9430 C.3    17  LYS17       0.1093
     50  NZ        15.7320    2.3860   20.1250 N.3    17  LYS17      -0.1314
     51  N         17.6970    0.7430   12.8310 N.am   18  HIS18      -0.1976
     52  CA        17.5070   -0.1370   11.6950 C.3    18  HIS18       0.1656
     53  C         18.7650   -0.9180   11.3250 C.2    18  HIS18       0.2291
     54  O         18.8220   -1.5360   10.2670 O.2    18  HIS18      -0.2864
     55  CB        16.9520    0.6960   10.5180 C.3    18  HIS18       0.0771
     56  CG        15.5350    1.1200   10.7490 C.ar   18  HIS18       0.0820
     57  ND1       15.1910    2.2420   11.4720 N.ar   18  HIS18      -0.2267
     58  CD2       14.3720    0.4960   10.4490 C.ar   18  HIS18       0.1154
     59  CE1       13.8740    2.3120   11.5730 C.ar   18  HIS18       0.1986
     60  NE2       13.3510    1.2630   10.9660 N.ar   18  HIS18      -0.2212
     61  N         18.9340   -5.7470   10.4780 N.3    21  VAL21      -0.1231
     62  CA        17.7310   -6.2310    9.8040 C.3    21  VAL21       0.1692
     63  C         18.2030   -7.1130    8.6720 C.2    21  VAL21       0.2591
     64  O         19.3300   -6.9560    8.2030 O.2    21  VAL21      -0.2718
     65  CB        16.8600   -5.0750    9.2290 C.3    21  VAL21       0.0266
     66  CG1       16.3070   -4.1910   10.3460 C.3    21  VAL21       0.0020
     67  CG2       17.6220   -4.2290    8.2110 C.3    21  VAL21       0.0020
     68  N         17.3560   -8.0440    8.2340 N.am   22  LYS22      -0.1980
     69  CA        17.7160   -8.9430    7.1540 C.3    22  LYS22       0.1596
     70  C         17.9840   -8.1230    5.9000 C.2    22  LYS22       0.2287
     71  O         17.1610   -7.2790    5.5110 O.2    22  LYS22      -0.2864
     72  CB        16.6160   -9.9680    6.8790 C.3    22  LYS22       0.0298
     73  CG        16.9670  -10.9470    5.7680 C.3    22  LYS22       0.0038
     74  CD        15.8120  -11.8720    5.4660 C.3    22  LYS22       0.0206
     75  CE        16.1520  -12.8400    4.3410 C.3    22  LYS22       0.1093
     76  NZ        15.0550  -13.8160    4.0930 N.3    22  LYS22      -0.1314
     77  N         18.0030   -3.9930    2.6280 N.3    27  ALA27      -0.1231
     78  CA        16.5740   -4.0240    2.9870 C.3    27  ALA27       0.1694
     79  C         15.8320   -2.8290    2.4070 C.2    27  ALA27       0.2592
     80  O         14.6290   -2.8940    2.1310 O.2    27  ALA27      -0.2718
     81  CB        16.3830   -4.0680    4.5000 C.3    27  ALA27       0.0304
     82  N         16.5350   -1.7080    2.2630 N.am   28  CYS28      -0.1970
     83  CA        15.9140   -0.4650    1.8150 C.3    28  CYS28       0.1712
     84  C         16.5590    0.1520    0.5920 C.2    28  CYS28       0.2296
     85  O         15.8900    0.8660   -0.1410 O.2    28  CYS28      -0.2864
     86  CB        15.9130    0.5380    2.9540 C.3    28  CYS28       0.0983
     87  SG        14.9680   -0.0970    4.3580 S.3    28  CYS28      -0.0798
     88  N         16.6030    7.4300   -2.0800 N.3    37  ILE37      -0.1245
     89  CA        15.7260    6.3710   -2.5700 C.3    37  ILE37       0.1561
     90  C         14.6970    7.0370   -3.4890 C.2    37  ILE37       0.2260
     91  O         13.7380    7.6540   -3.0300 O.2    37  ILE37      -0.2867
     92  CB        15.0530    5.6350   -1.3930 C.3    37  ILE37       0.0252
     93  CG1       16.1160    4.9540   -0.5070 C.3    37  ILE37       0.0019
     94  CG2       14.0570    4.5750   -1.9250 C.3    37  ILE37       0.0019
     95  CD1       15.5870    4.3860    0.8040 C.3    37  ILE37       0.0001
     96  N         10.8360    6.7160   -3.0720 N.3    40  MET40      -0.1245
     97  CA        10.2600    7.0580   -1.7690 C.3    40  MET40       0.1570
     98  C          8.9710    7.8560   -1.9190 C.2    40  MET40       0.2261
     99  O          8.8760    8.8060   -2.6940 O.2    40  MET40      -0.2867
    100  CB        11.2560    7.8650   -0.9200 C.3    40  MET40       0.0387
    101  CG        10.8030    8.1270    0.5210 C.3    40  MET40       0.0595
    102  SD        10.2880    6.6620    1.4500 S.3    40  MET40      -0.1393
    103  CE        11.8500    5.7720    1.4690 C.3    40  MET40       0.0692
    104  N          5.8080    3.3550   -1.4790 N.3    44  TRP44      -0.1227
    105  CA         7.0250    2.7070   -0.9960 C.3    44  TRP44       0.1737
    106  C          6.9110    2.4410    0.4940 C.2    44  TRP44       0.2595
    107  O          7.1720    1.3270    0.9760 O.2    44  TRP44      -0.2718
    108  CB         8.2310    3.6230   -1.2490 C.3    44  TRP44       0.0564
    109  CG         9.5890    2.9530   -1.2440 C.ar   44  TRP44       0.0003
    110  CD1       10.3360    2.6380   -2.3440 C.ar   44  TRP44       0.0946
    111  CD2       10.3730    2.5450   -0.0980 C.ar   44  TRP44       0.0152
    112  NE1       11.5220    2.0630   -1.9620 N.ar   44  TRP44      -0.2442
    113  CE2       11.5760    1.9960   -0.5950 C.ar   44  TRP44       0.0810
    114  CE3       10.1880    2.5960    1.2900 C.ar   44  TRP44       0.0012
    115  CZ2       12.5700    1.4910    0.2380 C.ar   44  TRP44       0.0191
    116  CZ3       11.1890    2.1080    2.1170 C.ar   44  TRP44       0.0001
    117  CH2       12.3570    1.5470    1.5830 C.ar   44  TRP44       0.0015
    118  N          6.5360    3.4710    1.2430 N.am   45  ALA45      -0.1980
    119  CA         6.5470    3.3930    2.6990 C.3    45  ALA45       0.1597
    120  C          5.5060    2.4160    3.2530 C.2    45  ALA45       0.2287
    121  O          5.7780    1.6090    4.1590 O.2    45  ALA45      -0.2864
    122  CB         6.3310    4.7580    3.2950 C.3    45  ALA45       0.0319
    123  N          6.9780   -1.2370    2.1910 N.3    48  THR48      -0.1203
    124  CA         8.2400   -1.7130    2.7420 C.3    48  THR48       0.1994
    125  C          8.4270   -1.4250    4.2240 C.2    48  THR48       0.2618
    126  O          8.8720   -2.2980    4.9720 O.2    48  THR48      -0.2717
    127  CB         9.3870   -1.1310    1.9320 C.3    48  THR48       0.1784
    128  OG1        9.2750   -1.5810    0.5760 O.3    48  THR48      -0.2211
    129  CG2       10.7350   -1.6250    2.4290 C.3    48  THR48       0.0376
    130  N          8.1010   -0.2100    4.6480 N.am   49  CYS49      -0.1969
    131  CA         8.2560    0.1640    6.0600 C.3    49  CYS49       0.1712
    132  C          7.2800   -0.6260    6.9340 C.2    49  CYS49       0.2296
    133  O          7.6740   -1.3730    7.8280 O.2    49  CYS49      -0.2864
    134  CB         8.0570    1.6720    6.2800 C.3    49  CYS49       0.0983
    135  SG         8.9750    2.8180    5.2320 S.3    49  CYS49      -0.0798
    136  N          7.7980   -4.6170    6.9720 N.3    52  CYS52      -0.1221
    137  CA         8.8080   -5.1960    7.8540 C.3    52  CYS52       0.1808
    138  C          8.3860   -5.1190    9.3180 C.2    52  CYS52       0.2601
    139  O          8.5650   -6.0790   10.0590 O.2    52  CYS52      -0.2717
    140  CB        10.1640   -4.5330    7.7020 C.3    52  CYS52       0.0970
    141  SG        11.3110   -5.2460    8.9070 S.3    52  CYS52      -0.0800
    142  N          7.8060   -3.9980    9.7310 N.am   53  HIS53      -0.1975
    143  CA         7.3820   -3.8610   11.1200 C.3    53  HIS53       0.1656
    144  C          6.3840   -4.9640   11.4920 C.2    53  HIS53       0.2291
    145  O          6.4440   -5.5510   12.5750 O.2    53  HIS53      -0.2864
    146  CB         6.7790   -2.4760   11.3750 C.3    53  HIS53       0.0771
    147  CG         7.7670   -1.3590   11.2390 C.ar   53  HIS53       0.0820
    148  ND1        7.3730   -0.0520   11.0830 N.ar   53  HIS53      -0.2267
    149  CD2        9.1210   -1.3510   11.2030 C.ar   53  HIS53       0.1154
    150  CE1        8.4420    0.7180   10.9790 C.ar   53  HIS53       0.1986
    151  NE2        9.5200   -0.0450   11.0660 N.ar   53  HIS53      -0.2212
    152  N          8.3110   -8.4250   11.7130 N.3    56  MET56      -0.1245
    153  CA         9.1810   -8.5550   12.8720 C.3    56  MET56       0.1570
    154  C          8.4310   -8.4310   14.1890 C.2    56  MET56       0.2261
    155  O          8.9930   -8.7430   15.2320 O.2    56  MET56      -0.2867
    156  CB        10.2870   -7.5050   12.8250 C.3    56  MET56       0.0387
    157  CG        11.2110   -7.6750   11.6590 C.3    56  MET56       0.0595
    158  SD        12.7040   -6.6670   11.6870 S.3    56  MET56      -0.1393
    159  CE        13.5790   -7.2240   13.1710 C.3    56  MET56       0.0692
    160  N          7.7730   -5.6060   15.4730 N.3    58  LYS58      -0.1231
    161  CA         8.4980   -4.5010   16.0930 C.3    58  LYS58       0.1693
    162  C          8.3120   -3.2760   15.2310 C.2    58  LYS58       0.2593
    163  O          8.3310   -3.3800   14.0100 O.2    58  LYS58      -0.2718
    164  CB        10.0040   -4.8020   16.1770 C.3    58  LYS58       0.0285
    165  CG        10.4210   -6.0180   17.0080 C.3    58  LYS58       0.0035
    166  CD        10.7840   -5.6550   18.4500 C.3    58  LYS58       0.0206
    167  CE        12.0050   -4.7180   18.5660 C.3    58  LYS58       0.1093
    168  NZ        13.1730   -5.2770   19.3200 N.3    58  LYS58      -0.1314
    169  N          8.1540   -2.1120   15.8500 N.am   59  GLY59      -0.1943
    170  CA         8.0860   -0.8770   15.1050 C.3    59  GLY59       0.1998
    171  C          6.6630   -0.4290   14.8200 C.2    59  GLY59       0.2480
    172  O          5.7120   -1.1790   14.9850 O.2    59  GLY59      -0.2729
    173  N          6.5310    0.8210   14.3940 N.am   60  PRO60      -0.2726
    174  CA         5.2140    1.4500   14.2190 C.3    60  PRO60       0.1402
    175  C          4.3950    0.8570   13.0690 C.2    60  PRO60       0.2269
    176  O          4.8820    0.6840   11.9410 O.2    60  PRO60      -0.2865
    177  CB         5.5740    2.9150   13.9430 C.3    60  PRO60       0.0296
    178  CG         6.9490    2.8840   13.4030 C.3    60  PRO60       0.0237
    179  CD         7.6300    1.7560   14.0860 C.3    60  PRO60       0.0939
    180  N          1.6040    6.5580   14.7260 N.3    65  GLU65      -0.1231
    181  CA         2.9020    6.0850   15.2180 C.3    65  GLU65       0.1699
    182  C          4.0530    6.4920   14.2970 C.2    65  GLU65       0.2592
    183  O          5.1790    6.6730   14.7630 O.2    65  GLU65      -0.2718
    184  CB         2.8750    4.5720   15.4560 C.3    65  GLU65       0.0402
    185  CG         1.9210    4.1400   16.5720 C.3    65  GLU65       0.1161
    186  CD         1.7500    2.6300   16.6820 C.2    65  GLU65       0.3649
    187  OE1        1.2600    2.1780   17.7270 O.co2  65  GLU65      -0.2457
    188  OE2        2.0970    1.8900   15.7430 O.co2  65  GLU65      -0.2457
    189  N          3.7790    6.6460   13.0000 N.am   66  CYS66      -0.1970
    190  CA         4.7690    7.2120   12.0810 C.3    66  CYS66       0.1712
    191  C          4.5830    8.7010   11.8200 C.2    66  CYS66       0.2296
    192  O          5.5410    9.4680   11.8990 O.2    66  CYS66      -0.2864
    193  CB         4.7390    6.4790   10.7440 C.3    66  CYS66       0.0983
    194  SG         5.4310    4.8300   10.8580 S.3    66  CYS66      -0.0798
@<TRIPOS>BOND
     1    90    91    2
     2    90    89    1
     3    96    97    1
     4    99    98    2
     5    89    88    1
     6    89    92    1
     7   110   112   ar
     8   110   109   ar
     9   112   113   ar
    10    94    92    1
    11    98    97    1
    12    97   100    1
    13   104   105    1
    14    92    93    1
    15   108   109    1
    16   108   105    1
    17   109   111   ar
    18   105   106    1
    19   100   101    1
    20   113   111   ar
    21   113   115   ar
    22    93    95    1
    23    85    84    2
    24   111   114   ar
    25   115   117   ar
    26   106   107    2
    27   106   118   am
    28   101   102    1
    29   128   127    1
    30    84    83    1
    31   118   119    1
    32   114   116   ar
    33   102   103    1
    34   117   116   ar
    35    83    82    1
    36    83    86    1
    37   127   129    1
    38   127   124    1
    39    80    79    2
    40   123   124    1
    41    82    79   am
    42    79    78    1
    43    77    78    1
    44   119   120    1
    45   119   122    1
    46   124   125    1
    47    86    87    1
    48    78    81    1
    49   120   121    2
    50     8     6    1
    51    76    75    1
    52   125   130   am
    53   125   126    2
    54    75    74    1
    55   130   131    1
    56   135   134    1
    57     5     6    1
    58     5     2    1
    59     6     7    1
    60     2     3    1
    61     2     1    1
    62    74    73    1
    63     3     4    2
    64    71    70    2
    65    73    72    1
    66    70    69    1
    67   131   134    1
    68   131   132    1
    69    72    69    1
    70   132   133    2
    71   136   137    1
    72    69    68    1
    73   140   137    1
    74   140   141    1
    75   137   138    1
    76    32    30   ar
    77    32    33   ar
    78    30    28   ar
    79    33    31   ar
    80    64    63    2
    81    67    65    1
    82    68    63   am
    83    15    13    1
    84    28    29   ar
    85    28    27    1
    86    31    29   ar
    87    63    62    1
    88    13    14    1
    89    13    10    1
    90    27    24    1
    91    12    11    2
    92     9    10    1
    93    65    62    1
    94    65    66    1
    95   138   142   am
    96   138   139    2
    97    10    11    1
    98   142   143    1
    99    62    61    1
   100    11    16   am
   101    24    23    1
   102    24    25    1
   103    54    53    2
   104    23    18   am
   105    58    56   ar
   106    58    60   ar
   107    26    25    2
   108    55    56    1
   109    55    52    1
   110   193   194    1
   111   193   190    1
   112    56    57   ar
   113    25    34   am
   114    60    59   ar
   115   150   151   ar
   116   150   148   ar
   117    16    17    1
   118   151   149   ar
   119   148   147   ar
   120   143   146    1
   121   143   144    1
   122   149   147   ar
   123   147   146    1
   124    53    52    1
   125    18    17    1
   126    18    19    2
   127    17    20    1
   128    57    59   ar
   129   144   145    2
   130    34    35    1
   131   157   158    1
   132   157   156    1
   133   158   159    1
   134    52    51    1
   135   152   153    1
   136   191   192    2
   137   191   190    1
   138   176   175    2
   139    36    37    2
   140    36    35    1
   141   190   189    1
   142    35    38    1
   143    21    20    1
   144    20    22    1
   145   156   153    1
   146    51    44   am
   147   153   154    1
   148   189   182   am
   149   175   174    1
   150   178   177    1
   151   178   179    1
   152    38    39    1
   153   177   174    1
   154    44    45    2
   155    44    43    1
   156   163   162    2
   157   179   173    1
   158   154   155    2
   159   174   173    1
   160   182   183    2
   161   182   181    1
   162   173   171   am
   163    42    43    1
   164    39    40   ar
   165    39    41   ar
   166   180   181    1
   167   171   172    2
   168   171   170    1
   169    43    46    1
   170   170   169    1
   171    46    47    1
   172   181   184    1
   173   162   169   am
   174   162   161    1
   175   184   185    1
   176   160   161    1
   177   188   186   ar
   178   161   164    1
   179   164   165    1
   180    47    48    1
   181   185   186    1
   182   186   187   ar
   183   165   166    1
   184    48    49    1
   185   166   167    1
   186   167   168    1
   187    49    50    1
