@<TRIPOS>MOLECULE
tmp/3h4nB01.pdb
 203 195 0 0 0
SMALL
GASTEIGER

@<TRIPOS>ATOM
      1  N          4.4880   13.3700   35.4640 N.3     5  LEU5       -0.1245
      2  CA         5.2220   12.4830   36.3600 C.3     5  LEU5        0.1561
      3  C          6.5150   13.2160   36.7040 C.2     5  LEU5        0.2260
      4  O          7.4080   13.3370   35.8590 O.2     5  LEU5       -0.2867
      5  CB         5.4680   11.1280   35.6740 C.3     5  LEU5        0.0270
      6  CG         4.1870   10.4150   35.2250 C.3     5  LEU5        0.0019
      7  CD1        4.5590    9.1550   34.4540 C.3     5  LEU5        0.0001
      8  CD2        3.2790   10.1140   36.4320 C.3     5  LEU5        0.0001
      9  N          8.1810   14.0500   33.1540 N.3    12  VAL12      -0.1231
     10  CA         7.7810   13.1790   32.0630 C.3    12  VAL12       0.1692
     11  C          6.2720   13.3210   31.8350 C.2    12  VAL12       0.2593
     12  O          5.4860   13.2980   32.7870 O.2    12  VAL12      -0.2718
     13  CB         8.1090   11.6880   32.4110 C.3    12  VAL12       0.0266
     14  CG1        7.6540   10.7590   31.3060 C.3    12  VAL12       0.0020
     15  CG2        9.5840   11.5170   32.6880 C.3    12  VAL12       0.0020
     16  N          5.8580   13.4630   30.5820 N.am   13  THR13      -0.1939
     17  CA         4.4410   13.5900   30.2660 C.3    13  THR13       0.2028
     18  C          3.9210   12.2300   29.8190 C.2    13  THR13       0.2642
     19  O          4.5690   11.5310   29.0520 O.2    13  THR13      -0.2714
     20  CB         4.2130   14.6930   29.2010 C.3    13  THR13       0.1808
     21  OG1        4.6700   15.9550   29.7030 O.3    13  THR13      -0.2208
     22  CG2        2.7300   14.9470   28.9820 C.3    13  THR13       0.0379
     23  N          2.7720   11.8340   30.3510 N.am   14  PHE14      -0.1959
     24  CA         2.1240   10.5900   29.9560 C.3    14  PHE14       0.1771
     25  C          0.7340   10.9110   29.4280 C.2    14  PHE14       0.2619
     26  O         -0.0330   11.5960   30.0880 O.2    14  PHE14      -0.2715
     27  CB         2.0040    9.6020   31.1150 C.3    14  PHE14       0.0574
     28  CG         1.2140    8.3870   30.7540 C.ar   14  PHE14      -0.0200
     29  CD1        1.8170    7.3570   30.0660 C.ar   14  PHE14      -0.0042
     30  CD2       -0.1540    8.3140   31.0100 C.ar   14  PHE14      -0.0042
     31  CE1        1.0970    6.2660   29.6530 C.ar   14  PHE14      -0.0003
     32  CE2       -0.8870    7.2140   30.6100 C.ar   14  PHE14      -0.0003
     33  CZ        -0.2640    6.1850   29.9270 C.ar   14  PHE14      -0.0000
     34  N          0.4070   10.3670   28.2670 N.am   15  ASP15      -0.1971
     35  CA        -0.8520   10.6530   27.5750 C.3    15  ASP15       0.1709
     36  C         -1.6580    9.3580   27.4260 C.2    15  ASP15       0.2293
     37  O         -1.2700    8.4540   26.7000 O.2    15  ASP15      -0.2864
     38  CB        -0.5130   11.2730   26.2060 C.3    15  ASP15       0.1436
     39  CG        -1.7160   11.7730   25.4540 C.2    15  ASP15       0.3671
     40  OD1       -1.7200   12.9590   25.0370 O.co2  15  ASP15      -0.2456
     41  OD2       -2.6770   11.0400   25.1850 O.co2  15  ASP15      -0.2456
     42  N         -2.6060    8.3010   23.7620 N.3    18  LYS18      -0.1231
     43  CA        -1.5410    7.6640   22.9700 C.3    18  LYS18       0.1693
     44  C         -1.3830    6.1780   23.3040 C.2    18  LYS18       0.2592
     45  O         -0.8460    5.4120   22.4980 O.2    18  LYS18      -0.2718
     46  CB        -0.1970    8.3780   23.1780 C.3    18  LYS18       0.0285
     47  CG        -0.1810    9.8570   22.8010 C.3    18  LYS18       0.0035
     48  CD         0.4150   10.0990   21.4280 C.3    18  LYS18       0.0206
     49  CE         0.3610   11.5720   21.0460 C.3    18  LYS18       0.1093
     50  NZ         0.1710   11.7340   19.5820 N.3    18  LYS18      -0.1314
     51  N         -1.8550    5.7760   24.4850 N.am   19  HIS19      -0.1976
     52  CA        -1.7210    4.4100   24.9910 C.3    19  HIS19       0.1656
     53  C         -2.9980    3.5680   24.9420 C.2    19  HIS19       0.2291
     54  O         -3.0500    2.4760   25.5090 O.2    19  HIS19      -0.2864
     55  CB        -1.1670    4.4670   26.4200 C.3    19  HIS19       0.0771
     56  CG         0.2500    4.9330   26.4590 C.ar   19  HIS19       0.0820
     57  ND1        0.5960    6.2680   26.4120 N.ar   19  HIS19      -0.2267
     58  CD2        1.4120    4.2400   26.4440 C.ar   19  HIS19       0.1154
     59  CE1        1.9140    6.3750   26.3950 C.ar   19  HIS19       0.1986
     60  NE2        2.4330    5.1580   26.4020 N.ar   19  HIS19      -0.2212
     61  N         -2.7650   -0.4590   23.8690 N.3    22  VAL22      -0.1231
     62  CA        -1.6250   -1.2930   24.2860 C.3    22  VAL22       0.1692
     63  C         -2.0200   -2.6750   24.8030 C.2    22  VAL22       0.2591
     64  O         -3.1540   -2.8860   25.2380 O.2    22  VAL22      -0.2718
     65  CB        -0.7080   -0.5920   25.3370 C.3    22  VAL22       0.0266
     66  CG1       -0.1270    0.7010   24.7680 C.3    22  VAL22       0.0020
     67  CG2       -1.4340   -0.3470   26.6800 C.3    22  VAL22       0.0020
     68  N         -1.0800   -3.6190   24.7400 N.am   23  LYS23      -0.1980
     69  CA        -1.3040   -4.9610   25.2740 C.3    23  LYS23       0.1596
     70  C         -1.6220   -4.8930   26.7620 C.2    23  LYS23       0.2287
     71  O         -0.9030   -4.2400   27.5390 O.2    23  LYS23      -0.2864
     72  CB        -0.0880   -5.8710   25.0440 C.3    23  LYS23       0.0298
     73  CG        -0.3110   -7.3320   25.4620 C.3    23  LYS23       0.0038
     74  CD        -0.1020   -8.3140   24.3130 C.3    23  LYS23       0.0206
     75  CE        -0.7400   -9.6690   24.6080 C.3    23  LYS23       0.1093
     76  NZ        -2.2220   -9.6770   24.3860 N.3    23  LYS23      -0.1314
     77  N         -1.9420   -2.9260   31.7570 N.3    28  ALA28      -0.1231
     78  CA        -0.5210   -2.7150   31.4570 C.3    28  ALA28       0.1694
     79  C          0.1630   -1.8490   32.5170 C.2    28  ALA28       0.2592
     80  O          1.3680   -1.9380   32.7130 O.2    28  ALA28      -0.2718
     81  CB        -0.3440   -2.1080   30.0740 C.3    28  ALA28       0.0304
     82  N         -0.6160   -1.0050   33.1940 N.am   29  CYS29      -0.1970
     83  CA        -0.1010   -0.0510   34.1610 C.3    29  CYS29       0.1712
     84  C         -0.8430   -0.0480   35.4910 C.2    29  CYS29       0.2296
     85  O         -0.2610    0.3160   36.5070 O.2    29  CYS29      -0.2864
     86  CB        -0.1340    1.3390   33.5530 C.3    29  CYS29       0.0983
     87  SG         0.8860    1.4300   32.0690 S.3    29  CYS29      -0.0798
     88  N         -1.1970    5.0110   40.8850 N.3    38  ILE38      -0.1245
     89  CA        -0.3350    3.8460   40.7810 C.3    38  ILE38       0.1561
     90  C          0.6250    3.8790   41.9710 C.2    38  ILE38       0.2260
     91  O          1.5410    4.7040   42.0240 O.2    38  ILE38      -0.2867
     92  CB         0.4190    3.8580   39.4230 C.3    38  ILE38       0.0252
     93  CG1       -0.5830    3.7070   38.2490 C.3    38  ILE38       0.0019
     94  CG2        1.4980    2.7780   39.4110 C.3    38  ILE38       0.0019
     95  CD1        0.0320    3.8610   36.8950 C.3    38  ILE38       0.0001
     96  N          4.4680    4.1220   41.5090 N.3    41  MET41      -0.1245
     97  CA         5.0410    5.1510   40.6530 C.3    41  MET41       0.1570
     98  C          6.3280    5.7310   41.2420 C.2    41  MET41       0.2261
     99  O          6.3970    6.1100   42.3980 O.2    41  MET41      -0.2867
    100  CB         4.0210    6.2640   40.3870 C.3    41  MET41       0.0387
    101  CG         4.5530    7.3830   39.4830 C.3    41  MET41       0.0595
    102  SD         5.1290    6.8430   37.8590 S.3    41  MET41      -0.1393
    103  CE         3.5970    6.2400   37.1980 C.3    41  MET41       0.0692
    104  N          9.8460    1.6150   39.0410 N.3    45  TRP45      -0.1227
    105  CA         8.6660    1.0620   38.3860 C.3    45  TRP45       0.1737
    106  C          8.5620    1.5980   36.9520 C.2    45  TRP45       0.2595
    107  O          8.2500    0.8530   36.0240 O.2    45  TRP45      -0.2718
    108  CB         7.4020    1.4250   39.1770 C.3    45  TRP45       0.0564
    109  CG         6.1280    0.8910   38.5850 C.ar   45  TRP45       0.0003
    110  CD1        5.4940   -0.2880   38.8980 C.ar   45  TRP45       0.0946
    111  CD2        5.3210    1.5240   37.5960 C.ar   45  TRP45       0.0152
    112  NE1        4.3440   -0.4110   38.1550 N.ar   45  TRP45      -0.2442
    113  CE2        4.2190    0.6790   37.3400 C.ar   45  TRP45       0.0810
    114  CE3        5.4190    2.7190   36.8840 C.ar   45  TRP45       0.0012
    115  CZ2        3.2350    0.9920   36.4100 C.ar   45  TRP45       0.0191
    116  CZ3        4.4290    3.0250   35.9640 C.ar   45  TRP45       0.0001
    117  CH2        3.3620    2.1640   35.7390 C.ar   45  TRP45       0.0015
    118  N          8.8350    2.8850   36.7670 N.am   46  ALA46      -0.1980
    119  CA         8.7150    3.5060   35.4470 C.3    46  ALA46       0.1597
    120  C          9.7720    3.0070   34.4640 C.2    46  ALA46       0.2287
    121  O          9.4590    2.6980   33.3150 O.2    46  ALA46      -0.2864
    122  CB         8.7950    5.0110   35.5470 C.3    46  ALA46       0.0319
    123  N          8.6330   -0.5700   33.6100 N.3    49  THR49      -0.1203
    124  CA         7.3420   -0.7390   32.9480 C.3    49  THR49       0.1994
    125  C          7.2390    0.0690   31.6530 C.2    49  THR49       0.2618
    126  O          6.8300   -0.4540   30.6140 O.2    49  THR49      -0.2717
    127  CB         6.2190   -0.2920   33.9120 C.3    49  THR49       0.1784
    128  OG1        6.3050   -0.9980   35.1660 O.3    49  THR49      -0.2211
    129  CG2        4.8240   -0.6260   33.3480 C.3    49  THR49       0.0376
    130  N          7.5390    1.3590   31.7440 N.am   50  CYS50      -0.1969
    131  CA         7.4270    2.2650   30.6190 C.3    50  CYS50       0.1712
    132  C          8.4760    1.9250   29.5640 C.2    50  CYS50       0.2296
    133  O          8.1400    1.5960   28.4280 O.2    50  CYS50      -0.2864
    134  CB         7.5970    3.7180   31.0860 C.3    50  CYS50       0.0983
    135  SG         6.5930    4.2730   32.4920 S.3    50  CYS50      -0.0798
    136  N          8.1470   -1.7330   27.9610 N.3    53  CYS53      -0.1221
    137  CA         7.2140   -1.9310   26.8450 C.3    53  CYS53       0.1808
    138  C          7.7220   -1.3000   25.5560 C.2    53  CYS53       0.2601
    139  O          7.6590   -1.9010   24.4970 O.2    53  CYS53      -0.2717
    140  CB         5.8380   -1.3680   27.1520 C.3    53  CYS53       0.0970
    141  SG         4.7570   -1.6340   25.7290 S.3    53  CYS53      -0.0800
    142  N          8.2210   -0.0780   25.6520 N.am   54  HIS54      -0.1975
    143  CA         8.7120    0.6230   24.4790 C.3    54  HIS54       0.1656
    144  C          9.8020   -0.1880   23.7720 C.2    54  HIS54       0.2291
    145  O          9.7980   -0.3400   22.5520 O.2    54  HIS54      -0.2864
    146  CB         9.2300    1.9900   24.8900 C.3    54  HIS54       0.0771
    147  CG         8.1650    2.9000   25.4070 C.ar   54  HIS54       0.0820
    148  ND1        8.4450    4.1670   25.8540 N.ar   54  HIS54      -0.2267
    149  CD2        6.8410    2.7110   25.6290 C.ar   54  HIS54       0.1154
    150  CE1        7.3300    4.7600   26.2260 C.ar   54  HIS54       0.1986
    151  NE2        6.3340    3.9070   26.0800 N.ar   54  HIS54      -0.2212
    152  N          8.3320   -3.5350   22.1730 N.3    57  MET57      -0.1245
    153  CA         7.4940   -3.3280   21.0070 C.3    57  MET57       0.1570
    154  C          8.2170   -2.5930   19.8850 C.2    57  MET57       0.2261
    155  O          7.7260   -2.5590   18.7570 O.2    57  MET57      -0.2867
    156  CB         6.2380   -2.5300   21.3980 C.3    57  MET57       0.0387
    157  CG         5.3400   -3.2440   22.3940 C.3    57  MET57       0.0595
    158  SD         3.7570   -2.4480   22.7300 S.3    57  MET57      -0.1393
    159  CE         2.9980   -3.8760   23.7360 C.3    57  MET57       0.0692
    160  N          8.4670    0.5790   19.7220 N.3    59  LYS59      -0.1231
    161  CA         7.6890    1.8070   19.5580 C.3    59  LYS59       0.1693
    162  C          7.7370    2.5800   20.8720 C.2    59  LYS59       0.2593
    163  O          7.6040    1.9810   21.9200 O.2    59  LYS59      -0.2718
    164  CB         6.2040    1.4840   19.2990 C.3    59  LYS59       0.0285
    165  CG         5.9270    0.5090   18.2110 C.3    59  LYS59       0.0035
    166  CD         4.4750    0.5330   17.8160 C.3    59  LYS59       0.0206
    167  CE         3.6420   -0.3800   18.6870 C.3    59  LYS59       0.1093
    168  NZ         2.2380   -0.4560   18.1970 N.3    59  LYS59      -0.1314
    169  N          7.8580    3.8990   20.8200 N.am   60  GLY60      -0.1943
    170  CA         7.8410    4.7150   22.0230 C.3    60  GLY60       0.1998
    171  C          9.2480    5.0430   22.4920 C.2    60  GLY60       0.2480
    172  O         10.2250    4.4400   22.0490 O.2    60  GLY60      -0.2729
    173  N          9.3640    6.0310   23.3650 N.am   61  PRO61      -0.2726
    174  CA        10.6730    6.5550   23.7770 C.3    61  PRO61       0.1402
    175  C         11.5010    5.6140   24.6320 C.2    61  PRO61       0.2269
    176  O         11.0110    5.0190   25.5950 O.2    61  PRO61      -0.2865
    177  CB        10.3050    7.8200   24.5580 C.3    61  PRO61       0.0296
    178  CG         8.9330    7.6220   24.9910 C.3    61  PRO61       0.0237
    179  CD         8.2610    6.8300   23.9130 C.3    61  PRO61       0.0939
    180  N         14.1110   11.6690   25.5770 N.3    66  GLU66      -0.1231
    181  CA        12.8270   11.4510   24.9100 C.3    66  GLU66       0.1699
    182  C         11.6610   11.3920   25.9050 C.2    66  GLU66       0.2592
    183  O         10.5310   11.6360   25.5350 O.2    66  GLU66      -0.2718
    184  CB        12.8790   10.1700   24.0680 C.3    66  GLU66       0.0402
    185  CG        13.8270   10.2440   22.8790 C.3    66  GLU66       0.1161
    186  CD        14.0170    8.9130   22.1530 C.2    66  GLU66       0.3649
    187  OE1       13.6900    7.8390   22.6990 O.co2  66  GLU66      -0.2457
    188  OE2       14.5460    8.9210   21.0220 O.co2  66  GLU66      -0.2457
    189  N         11.9290   11.0520   27.1640 N.am   67  CYS67      -0.1970
    190  CA        10.9150   11.0830   28.2250 C.3    67  CYS67       0.1712
    191  C         11.0520   12.2850   29.1440 C.2    67  CYS67       0.2296
    192  O         10.0660   12.9500   29.4620 O.2    67  CYS67      -0.2864
    193  CB        10.9910    9.8260   29.0880 C.3    67  CYS67       0.0983
    194  SG        10.2720    8.4050   28.2520 S.3    67  CYS67      -0.0798
    195  N         11.6300   15.6320   29.5730 N.3    69  LYS69      -0.1245
    196  CA        11.5310   16.8140   28.7090 C.3    69  LYS69       0.1561
    197  C         10.1170   17.3550   28.8350 C.2    69  LYS69       0.2260
    198  O          9.8410   18.2360   29.6490 O.2    69  LYS69      -0.2867
    199  CB        11.7870   16.4610   27.2360 C.3    69  LYS69       0.0271
    200  CG        10.6410   15.7240   26.5460 C.3    69  LYS69       0.0035
    201  CD        10.9280   15.5110   25.0630 C.3    69  LYS69       0.0206
    202  CE         9.7140   15.0040   24.3120 C.3    69  LYS69       0.1093
    203  NZ         9.8800   15.1750   22.8410 N.3    69  LYS69      -0.1314
@<TRIPOS>BOND
     1   166   165    1
     2   166   167    1
     3   168   167    1
     4   165   164    1
     5   155   154    2
     6   164   161    1
     7   161   160    1
     8   161   162    1
     9    50    49    1
    10   154   153    1
    11   169   162   am
    12   169   170    1
    13   162   163    2
    14   153   156    1
    15   153   152    1
    16   188   186   ar
    17    49    48    1
    18   156   157    1
    19    48    47    1
    20   170   171    1
    21   172   171    2
    22   186   187   ar
    23   186   185    1
    24   157   158    1
    25   171   173   am
    26    45    44    2
    27   145   144    2
    28   158   159    1
    29    47    46    1
    30   203   202    1
    31   185   184    1
    32    43    46    1
    33    43    44    1
    34    43    42    1
    35    44    51   am
    36   173   174    1
    37   173   179    1
    38   144   143    1
    39   174   177    1
    40   174   175    1
    41    61    62    1
    42   179   178    1
    43   184   181    1
    44    62    63    1
    45    62    65    1
    46   202   201    1
    47    74    75    1
    48    74    73    1
    49    76    75    1
    50   143   146    1
    51   143   142    1
    52    51    52    1
    53   139   138    2
    54   177   178    1
    55   175   176    2
    56    68    63   am
    57    68    69    1
    58    66    65    1
    59    63    64    2
    60   146   147    1
    61   181   180    1
    62   181   182    1
    63    53    52    1
    64    53    54    2
    65    52    55    1
    66    40    39   ar
    67    72    69    1
    68    72    73    1
    69   201   200    1
    70    41    39   ar
    71    69    70    1
    72    65    67    1
    73   147   149   ar
    74   147   148   ar
    75    39    38    1
    76   183   182    2
    77   138   142   am
    78   138   137    1
    79   149   151   ar
    80   141   140    1
    81   148   150   ar
    82   182   189   am
    83   151   150   ar
    84    38    35    1
    85    59    60   ar
    86    59    57   ar
    87    60    58   ar
    88    57    56   ar
    89    55    56    1
    90    58    56   ar
    91   200   199    1
    92    37    36    2
    93    70    71    2
    94   137   140    1
    95   137   136    1
    96   189   190    1
    97   199   196    1
    98    36    35    1
    99    35    34    1
   100   190   193    1
   101   190   191    1
   102   194   193    1
   103    34    25   am
   104   133   132    2
   105   196   197    1
   106   196   195    1
   107   197   198    2
   108    22    20    1
   109    19    18    2
   110   191   192    2
   111    20    21    1
   112    20    17    1
   113    25    24    1
   114    25    26    2
   115   132   131    1
   116    31    33   ar
   117    31    29   ar
   118    18    17    1
   119    18    23   am
   120    33    32   ar
   121    24    23    1
   122    24    27    1
   123    29    28   ar
   124    81    78    1
   125    17    16    1
   126    16    11   am
   127    32    30   ar
   128   126   125    2
   129   131   134    1
   130   131   130    1
   131    28    30   ar
   132    28    27    1
   133   134   135    1
   134    14    13    1
   135    78    77    1
   136    78    79    1
   137   125   130   am
   138   125   124    1
   139    11    10    1
   140    11    12    2
   141    10    13    1
   142    10     9    1
   143    87    86    1
   144    13    15    1
   145    79    80    2
   146    79    82   am
   147   124   123    1
   148   124   127    1
   149    82    83    1
   150   121   120    2
   151   129   127    1
   152    86    83    1
   153   127   128    1
   154    83    84    1
   155     7     6    1
   156   120   119    1
   157     6     5    1
   158     6     8    1
   159   119   122    1
   160   119   118    1
   161     1     2    1
   162    84    85    2
   163     5     2    1
   164   117   116   ar
   165   117   115   ar
   166     4     3    2
   167   116   114   ar
   168   107   106    2
   169     2     3    1
   170   115   113   ar
   171   118   106   am
   172   114   111   ar
   173    95    93    1
   174   106   105    1
   175   103   102    1
   176   113   111   ar
   177   113   112   ar
   178   111   109   ar
   179   102   101    1
   180   112   110   ar
   181    93    92    1
   182   105   104    1
   183   105   108    1
   184   109   110   ar
   185   109   108    1
   186    94    92    1
   187    92    89    1
   188   101   100    1
   189   100    97    1
   190    97    98    1
   191    97    96    1
   192    89    88    1
   193    89    90    1
   194    98    99    2
   195    90    91    2
