@<TRIPOS>MOLECULE
tmp/3h4qA00.pdb
 115 110 0 0 0
SMALL
GASTEIGER

@<TRIPOS>ATOM
      1  N         61.1920   34.6270   11.3940 N.3     4  LEU4       -0.1245
      2  CA        61.0590   33.6910   12.4930 C.3     4  LEU4        0.1561
      3  C         59.9290   34.1760   13.4090 C.2     4  LEU4        0.2260
      4  O         59.7670   35.3930   13.6560 O.2     4  LEU4       -0.2867
      5  CB        62.3290   33.6100   13.3310 C.3     4  LEU4        0.0270
      6  CG        63.5670   32.9380   12.7730 C.3     4  LEU4        0.0019
      7  CD1       64.7240   33.2250   13.7670 C.3     4  LEU4        0.0001
      8  CD2       63.3260   31.4430   12.5580 C.3     4  LEU4        0.0001
      9  N         63.9540   27.6200   19.8220 N.3    36  LYS36      -0.1231
     10  CA        64.9940   27.0500   19.0030 C.3    36  LYS36       0.1693
     11  C         65.0560   27.6970   17.6170 C.2    36  LYS36       0.2592
     12  O         65.8020   27.2490   16.7780 O.2    36  LYS36      -0.2718
     13  CB        64.7200   25.5540   18.8220 C.3    36  LYS36       0.0285
     14  CG        64.7860   24.6970   20.0960 C.3    36  LYS36       0.0035
     15  CD        64.2740   23.3020   19.7310 C.3    36  LYS36       0.0206
     16  CE        64.1280   22.3660   20.8910 C.3    36  LYS36       0.1093
     17  NZ        63.6040   21.0690   20.3630 N.3    36  LYS36      -0.1314
     18  N         64.2870   28.7490   17.3720 N.am   37  ASP37      -0.1960
     19  CA        64.2260   29.3570   16.0480 C.3    37  ASP37       0.1840
     20  C         64.0000   28.3230   14.9550 C.2    37  ASP37       0.2622
     21  O         64.7310   28.2840   13.9650 O.2    37  ASP37      -0.2715
     22  CB        65.4690   30.2150   15.7400 C.3    37  ASP37       0.1450
     23  CG        65.4600   31.5340   16.4560 C.2    37  ASP37       0.3671
     24  OD1       64.4310   31.8910   17.0940 O.co2  37  ASP37      -0.2456
     25  OD2       66.5010   32.2330   16.3780 O.co2  37  ASP37      -0.2456
     26  N         62.9940   27.4780   15.1400 N.am   38  TYR38      -0.1974
     27  CA        62.6340   26.4940   14.1170 C.3    38  TYR38       0.1639
     28  C         61.2910   26.8230   13.4770 C.2    38  TYR38       0.2290
     29  O         60.8320   26.0710   12.6040 O.2    38  TYR38      -0.2864
     30  CB        62.5090   25.0730   14.7020 C.3    38  TYR38       0.0560
     31  CG        63.7510   24.3760   15.1940 C.ar   38  TYR38      -0.0198
     32  CD1       65.0140   24.6870   14.7030 C.ar   38  TYR38      -0.0009
     33  CD2       63.6430   23.2820   16.0520 C.ar   38  TYR38      -0.0009
     34  CE1       66.1420   23.9860   15.1280 C.ar   38  TYR38       0.0417
     35  CE2       64.7730   22.5730   16.4760 C.ar   38  TYR38       0.0417
     36  CZ        66.0150   22.9370   16.0070 C.ar   38  TYR38       0.1957
     37  OH        67.1500   22.2550   16.3950 O.3    38  TYR38      -0.2866
     38  N         58.8210   29.5690   11.4360 N.3    40  TYR40      -0.1241
     39  CA        58.6990   30.7930   10.6420 C.3    40  TYR40       0.1605
     40  C         57.2270   31.1430   10.5200 C.2    40  TYR40       0.2264
     41  O         56.3720   30.2300   10.5130 O.2    40  TYR40      -0.2867
     42  CB        59.2000   30.5980    9.2240 C.3    40  TYR40       0.0534
     43  CG        60.6750   30.3920    9.0210 C.ar   40  TYR40      -0.0201
     44  CD1       61.2310   29.1280    9.0330 C.ar   40  TYR40      -0.0009
     45  CD2       61.5070   31.4690    8.7480 C.ar   40  TYR40      -0.0009
     46  CE1       62.5770   28.9400    8.7920 C.ar   40  TYR40       0.0417
     47  CE2       62.8510   31.2940    8.5180 C.ar   40  TYR40       0.0417
     48  CZ        63.3790   30.0290    8.5370 C.ar   40  TYR40       0.1957
     49  OH        64.7160   29.8640    8.3060 O.3    40  TYR40      -0.2866
     50  N         60.3430   23.7580   10.8490 N.3    54  VAL54      -0.1231
     51  CA        61.3210   22.9370   10.1370 C.3    54  VAL54       0.1692
     52  C         62.6090   22.8230   10.9470 C.2    54  VAL54       0.2592
     53  O         63.0450   23.7900   11.5870 O.2    54  VAL54      -0.2718
     54  CB        61.6690   23.5180    8.7630 C.3    54  VAL54       0.0266
     55  CG1       62.1790   24.9510    8.8940 C.3    54  VAL54       0.0020
     56  CG2       62.7020   22.6540    8.0770 C.3    54  VAL54       0.0020
     57  N         63.1890   21.6260   10.9450 N.am   55  ASP55      -0.1960
     58  CA        64.4260   21.3310   11.6590 C.3    55  ASP55       0.1840
     59  C         64.9670   19.9890   11.1430 C.2    55  ASP55       0.2621
     60  O         64.5160   19.5050   10.1000 O.2    55  ASP55      -0.2715
     61  CB        64.1930   21.3370   13.1730 C.3    55  ASP55       0.1450
     62  CG        63.1820   20.3090   13.6140 C.2    55  ASP55       0.3671
     63  OD1       63.2850   19.1470   13.1740 O.co2  55  ASP55      -0.2456
     64  OD2       62.3050   20.6600   14.4350 O.co2  55  ASP55      -0.2456
     65  N         65.9270   19.4040   11.8550 N.am   56  GLN56      -0.1977
     66  CA        66.5350   18.1340   11.4530 C.3    56  GLN56       0.1601
     67  C         66.2440   16.9800   12.4240 C.2    56  GLN56       0.2287
     68  O         66.8760   15.9120   12.3380 O.2    56  GLN56      -0.2864
     69  CB        68.0410   18.3290   11.2670 C.3    56  GLN56       0.0394
     70  CG        68.3970   19.2410   10.1020 C.3    56  GLN56       0.0908
     71  CD        69.8890   19.4680    9.9990 C.2    56  GLN56       0.2608
     72  OE1       70.4970   19.9780   10.9270 O.2    56  GLN56      -0.2717
     73  NE2       70.4830   19.1060    8.8620 N.am   56  GLN56      -0.0878
     74  N         71.4150   13.8430    8.1190 N.3    73  GLY73      -0.1225
     75  CA        71.4170   15.2900    7.9600 C.3    73  GLY73       0.1811
     76  C         70.2460   15.9290    7.2240 C.2    73  GLY73       0.2280
     77  O         70.2640   17.1290    6.9470 O.2    73  GLY73      -0.2866
     78  N         66.5550   17.5810    6.4210 N.3    75  PHE75      -0.1241
     79  CA        65.6320   18.5140    7.0720 C.3    75  PHE75       0.1605
     80  C         64.2200   17.9100    7.0750 C.2    75  PHE75       0.2264
     81  O         63.8910   17.0680    6.2340 O.2    75  PHE75      -0.2867
     82  CB        65.6390   19.8800    6.3830 C.3    75  PHE75       0.0534
     83  CG        66.8120   20.7200    6.7540 C.ar   75  PHE75      -0.0203
     84  CD1       68.0320   20.5380    6.1370 C.ar   75  PHE75      -0.0042
     85  CD2       66.7130   21.6690    7.7420 C.ar   75  PHE75      -0.0042
     86  CE1       69.1290   21.3090    6.4910 C.ar   75  PHE75      -0.0003
     87  CE2       67.8130   22.4340    8.0940 C.ar   75  PHE75      -0.0003
     88  CZ        69.0070   22.2570    7.4640 C.ar   75  PHE75      -0.0000
     89  N         65.6780   27.7360    1.4910 N.3   100  VAL100     -0.1245
     90  CA        66.7110   27.9100    2.5100 C.3   100  VAL100      0.1561
     91  C         67.5010   26.6080    2.6560 C.2   100  VAL100      0.2260
     92  O         68.7460   26.6280    2.6130 O.2   100  VAL100     -0.2867
     93  CB        66.1300   28.3500    3.8430 C.3   100  VAL100      0.0252
     94  CG1       67.1910   28.3020    4.9130 C.3   100  VAL100      0.0019
     95  CG2       65.5530   29.7480    3.7180 C.3   100  VAL100      0.0019
     96  N         71.5210   25.8660    1.8220 N.3   104  ARG104     -0.1231
     97  CA        72.4370   25.2860    2.7960 C.3   104  ARG104      0.1694
     98  C         73.1460   24.0410    2.3290 C.2   104  ARG104      0.2593
     99  O         73.9910   23.5120    3.0430 O.2   104  ARG104     -0.2718
    100  CB        71.6940   24.9820    4.0790 C.3   104  ARG104      0.0321
    101  CG        71.2570   26.2180    4.7780 C.3   104  ARG104      0.0489
    102  CD        70.4660   25.8480    5.9750 C.3   104  ARG104      0.2205
    103  NE        70.1360   27.0140    6.7860 N.pl3 104  ARG104     -0.0865
    104  CZ        69.3690   26.9600    7.8700 C.cat 104  ARG104      0.5346
    105  NH1       68.8630   25.8260    8.2830 N.pl3 104  ARG104      0.1354
    106  NH2       69.0860   28.0380    8.5490 N.pl3 104  ARG104      0.1354
    107  N         72.8260   23.5690    1.1380 N.am  105  GLY105     -0.1942
    108  CA        73.4800   22.3910    0.5960 C.3   105  GLY105      0.2014
    109  C         72.7480   21.1020    0.9200 C.2   105  GLY105      0.2638
    110  O         73.2570   20.0360    0.5990 O.2   105  GLY105     -0.2714
    111  N         71.5530   21.1690    1.5230 N.am  106  ALA106     -0.1977
    112  CA        70.8150   19.9420    1.8280 C.3   106  ALA106      0.1597
    113  C         70.4090   19.2200    0.5430 C.2   106  ALA106      0.2287
    114  O         70.2690   19.8430   -0.5130 O.2   106  ALA106     -0.2864
    115  CB        69.6240   20.2360    2.6510 C.3   106  ALA106      0.0319
@<TRIPOS>BOND
     1   114   113    2
     2   113   112    1
     3   108   109    1
     4   108   107    1
     5   110   109    2
     6   109   111   am
     7   107    98   am
     8    89    90    1
     9   111   112    1
    10    96    97    1
    11   112   115    1
    12    98    97    1
    13    98    99    2
    14    90    91    1
    15    90    93    1
    16    92    91    2
    17    97   100    1
    18    95    93    1
    19    93    94    1
    20   100   101    1
    21   101   102    1
    22   102   103    1
    23    84    86   ar
    24    84    83   ar
    25    81    80    2
    26    82    83    1
    27    82    79    1
    28    78    79    1
    29    86    88   ar
    30    83    85   ar
    31   103   104    2
    32    77    76    2
    33    79    80    1
    34    76    75    1
    35    88    87   ar
    36    85    87   ar
    37   104   105    1
    38   104   106    1
    39    75    74    1
    40    56    54    1
    41    49    48    1
    42    47    48   ar
    43    47    45   ar
    44    48    46   ar
    45    45    43   ar
    46    54    55    1
    47    54    51    1
    48    46    44   ar
    49    73    71   am
    50    43    44   ar
    51    43    42    1
    52    42    39    1
    53    71    70    1
    54    71    72    2
    55    60    59    2
    56    70    69    1
    57    51    50    1
    58    51    52    1
    59    41    40    2
    60    40    39    1
    61    39    38    1
    62    57    52   am
    63    57    58    1
    64    52    53    2
    65    59    58    1
    66    59    65   am
    67    69    66    1
    68     1     2    1
    69    66    65    1
    70    66    67    1
    71    58    61    1
    72    68    67    2
    73     2     5    1
    74     2     3    1
    75     8     6    1
    76    29    28    2
    77     6     5    1
    78     6     7    1
    79    61    62    1
    80    63    62   ar
    81     3     4    2
    82    28    27    1
    83    62    64   ar
    84    21    20    2
    85    27    30    1
    86    27    26    1
    87    30    31    1
    88    32    34   ar
    89    32    31   ar
    90    20    26   am
    91    20    19    1
    92    34    36   ar
    93    31    33   ar
    94    22    19    1
    95    22    23    1
    96    36    37    1
    97    36    35   ar
    98    19    18    1
    99    33    35   ar
   100    25    23   ar
   101    23    24   ar
   102    12    11    2
   103    18    11   am
   104    11    10    1
   105    13    10    1
   106    13    14    1
   107    10     9    1
   108    15    14    1
   109    15    16    1
   110    17    16    1
