@<TRIPOS>MOLECULE
tmp/3h4zA00.pdb
 183 180 0 0 0
SMALL
GASTEIGER

@<TRIPOS>ATOM
      1  N         28.2860    5.3580   24.7800 N.3    12  ASN12      -0.1240
      2  CA        27.5050    5.8540   23.6540 C.3    12  ASN12       0.1653
      3  C         26.0150    5.5620   23.7970 C.2    12  ASN12       0.2266
      4  O         25.6250    4.5110   24.2980 O.2    12  ASN12      -0.2867
      5  CB        28.0410    5.2570   22.3540 C.3    12  ASN12       0.1155
      6  CG        27.5000    5.9560   21.1310 C.2    12  ASN12       0.2627
      7  OD1       27.5480    7.1820   21.0350 O.2    12  ASN12      -0.2716
      8  ND2       26.9890    5.1810   20.1820 N.am   12  ASN12      -0.0877
      9  N         23.8190    4.4830   21.8730 N.3    14  ASP14      -0.1225
     10  CA        23.2490    3.3230   21.1990 C.3    14  ASP14       0.1805
     11  C         23.5990    2.0220   21.9210 C.2    14  ASP14       0.2597
     12  O         23.2330    0.9390   21.4650 O.2    14  ASP14      -0.2718
     13  CB        23.7200    3.2430   19.7380 C.3    14  ASP14       0.1424
     14  CG        25.2260    3.0760   19.6070 C.2    14  ASP14       0.3668
     15  OD1       25.8590    2.6110   20.5730 O.co2  14  ASP14      -0.2456
     16  OD2       25.7800    3.3950   18.5320 O.co2  14  ASP14      -0.2456
     17  N         24.3020    2.1320   23.0480 N.am   15  LYS15      -0.1979
     18  CA        24.7010    0.9590   23.8260 C.3    15  LYS15       0.1596
     19  C         23.8400    0.7630   25.0750 C.2    15  LYS15       0.2287
     20  O         23.1240    1.6670   25.4970 O.2    15  LYS15      -0.2864
     21  CB        26.1760    1.0700   24.2180 C.3    15  LYS15       0.0298
     22  CG        27.1110    1.3020   23.0290 C.3    15  LYS15       0.0038
     23  CD        27.0080    0.1840   21.9990 C.3    15  LYS15       0.0206
     24  CE        27.7770    0.5210   20.7260 C.3    15  LYS15       0.1093
     25  NZ        29.2130    0.7760   20.9780 N.3    15  LYS15      -0.1314
     26  N         32.8950   10.9330   21.5990 N.3    44  GLU44      -0.1245
     27  CA        34.2110   10.5680   21.0880 C.3    44  GLU44       0.1567
     28  C         35.0810   11.8180   20.9550 C.2    44  GLU44       0.2260
     29  O         36.3020   11.7240   20.8500 O.2    44  GLU44      -0.2867
     30  CB        34.1080    9.8380   19.7410 C.3    44  GLU44       0.0388
     31  CG        33.6380   10.6840   18.5680 C.3    44  GLU44       0.1160
     32  CD        32.1920   11.1130   18.6930 C.2    44  GLU44       0.3649
     33  OE1       31.3140   10.2290   18.7870 O.co2  44  GLU44      -0.2457
     34  OE2       31.9330   12.3370   18.6950 O.co2  44  GLU44      -0.2457
     35  N         33.9850    3.2200   24.3610 N.3    62  TRP62      -0.1227
     36  CA        34.0130    3.4350   22.9200 C.3    62  TRP62       0.1737
     37  C         34.8660    2.3770   22.2400 C.2    62  TRP62       0.2595
     38  O         35.5940    1.6390   22.9030 O.2    62  TRP62      -0.2718
     39  CB        34.5630    4.8250   22.5910 C.3    62  TRP62       0.0564
     40  CG        34.2380    5.2680   21.1990 C.ar   62  TRP62       0.0003
     41  CD1       34.9740    5.0460   20.0660 C.ar   62  TRP62       0.0946
     42  CD2       33.0600    5.9650   20.7800 C.ar   62  TRP62       0.0152
     43  NE1       34.3260    5.5630   18.9680 N.ar   62  TRP62      -0.2442
     44  CE2       33.1500    6.1330   19.3770 C.ar   62  TRP62       0.0810
     45  CE3       31.9360    6.4670   21.4530 C.ar   62  TRP62       0.0012
     46  CZ2       32.1550    6.7780   18.6350 C.ar   62  TRP62       0.0191
     47  CZ3       30.9470    7.1080   20.7150 C.ar   62  TRP62       0.0001
     48  CH2       31.0650    7.2590   19.3190 C.ar   62  TRP62       0.0015
     49  N         34.7590    2.2990   20.9160 N.am   63  ALA63      -0.1980
     50  CA        35.5440    1.3490   20.1420 C.3    63  ALA63       0.1597
     51  C         37.0120    1.7480   20.2580 C.2    63  ALA63       0.2287
     52  O         37.3480    2.9320   20.2850 O.2    63  ALA63      -0.2864
     53  CB        35.1010    1.3640   18.6830 C.3    63  ALA63       0.0319
     54  N         39.3920    2.0970   18.2980 N.3    65  ASP65      -0.1225
     55  CA        40.0180    2.9500   17.2910 C.3    65  ASP65       0.1805
     56  C         40.2900    4.3890   17.7270 C.2    65  ASP65       0.2597
     57  O         41.2150    5.0240   17.2240 O.2    65  ASP65      -0.2718
     58  CB        39.2070    2.9390   15.9840 C.3    65  ASP65       0.1424
     59  CG        37.8480    3.5840   16.1280 C.2    65  ASP65       0.3668
     60  OD1       37.0270    3.0880   16.9250 O.co2  65  ASP65      -0.2456
     61  OD2       37.6000    4.5880   15.4330 O.co2  65  ASP65      -0.2456
     62  N         39.4970    4.8990   18.6630 N.am   66  ARG66      -0.1979
     63  CA        39.6790    6.2680   19.1520 C.3    66  ARG66       0.1597
     64  C         40.7910    6.3750   20.1990 C.2    66  ARG66       0.2287
     65  O         41.6000    7.3000   20.1680 O.2    66  ARG66      -0.2864
     66  CB        38.3750    6.7820   19.7650 C.3    66  ARG66       0.0334
     67  CG        37.2830    7.0800   18.7620 C.3    66  ARG66       0.0492
     68  CD        37.5030    8.4290   18.1100 C.3    66  ARG66       0.2205
     69  NE        36.6660    8.5930   16.9260 N.pl3  66  ARG66      -0.0865
     70  CZ        36.6420    9.6860   16.1760 C.cat  66  ARG66       0.5346
     71  NH1       37.4060   10.7230   16.4900 N.pl3  66  ARG66       0.1354
     72  NH2       35.8740    9.7320   15.1000 N.pl3  66  ARG66       0.1354
     73  N         32.6180   -6.0750   17.9930 N.3   111  GLU111     -0.1245
     74  CA        31.4150   -5.7830   17.2270 C.3   111  GLU111      0.1567
     75  C         31.6820   -5.5840   15.7320 C.2   111  GLU111      0.2260
     76  O         32.6230   -4.8880   15.3340 O.2   111  GLU111     -0.2867
     77  CB        30.7230   -4.5460   17.8110 C.3   111  GLU111      0.0388
     78  CG        31.5850   -3.2930   17.8540 C.3   111  GLU111      0.1160
     79  CD        31.0160   -2.2140   18.7710 C.2   111  GLU111      0.3649
     80  OE1       31.5370   -1.0790   18.7600 O.co2 111  GLU111     -0.2457
     81  OE2       30.0520   -2.5020   19.5120 O.co2 111  GLU111     -0.2457
     82  N         27.2220    8.1480    8.5750 N.3   153  GLU153     -0.1231
     83  CA        28.4430    7.6940    9.2320 C.3   153  GLU153      0.1684
     84  C         29.1790    6.7580    8.2710 C.2   153  GLU153      0.2434
     85  O         28.6190    5.7580    7.8120 O.2   153  GLU153     -0.2733
     86  CB        28.1110    6.9440   10.5270 C.3   153  GLU153      0.0402
     87  CG        27.6250    7.8090   11.6790 C.3   153  GLU153      0.1161
     88  CD        28.6940    8.7600   12.2010 C.2   153  GLU153      0.3649
     89  OE1       29.8570    8.3310   12.3530 O.co2 153  GLU153     -0.2457
     90  OE2       28.3690    9.9340   12.4750 O.co2 153  GLU153     -0.2457
     91  N         30.4450    7.0710    7.9490 N.am  154  PRO154     -0.2718
     92  CA        31.2340    6.2420    7.0310 C.3   154  PRO154      0.1535
     93  C         31.4390    4.8080    7.5170 C.2   154  PRO154      0.2599
     94  O         31.8270    3.9240    6.7520 O.2   154  PRO154     -0.2715
     95  CB        32.5400    7.0190    6.9090 C.3   154  PRO154      0.0310
     96  CG        32.6540    7.6820    8.2390 C.3   154  PRO154      0.0237
     97  CD        31.2540    8.1830    8.4710 C.3   154  PRO154      0.0939
     98  N         31.1670    4.5850    8.7940 N.am  155  TYR155     -0.1960
     99  CA        31.3080    3.2680    9.3970 C.3   155  TYR155      0.1771
    100  C         30.4220    2.2310    8.7050 C.2   155  TYR155      0.2619
    101  O         30.8030    1.0680    8.5710 O.2   155  TYR155     -0.2715
    102  CB        30.9390    3.3620   10.8780 C.3   155  TYR155      0.0574
    103  CG        30.9010    2.0500   11.6260 C.ar  155  TYR155     -0.0198
    104  CD1       32.0580    1.3010   11.8260 C.ar  155  TYR155     -0.0009
    105  CD2       29.7090    1.5800   12.1730 C.ar  155  TYR155     -0.0009
    106  CE1       32.0260    0.1200   12.5580 C.ar  155  TYR155      0.0417
    107  CE2       29.6680    0.4040   12.9020 C.ar  155  TYR155      0.0417
    108  CZ        30.8280   -0.3180   13.0940 C.ar  155  TYR155      0.1957
    109  OH        30.7880   -1.4690   13.8410 O.3   155  TYR155     -0.2866
    110  N         29.2440    2.6610    8.2580 N.am  156  PHE156     -0.1974
    111  CA        28.2930    1.7630    7.6110 C.3   156  PHE156      0.1639
    112  C         28.5150    1.5200    6.1180 C.2   156  PHE156      0.2290
    113  O         28.1660    0.4600    5.6030 O.2   156  PHE156     -0.2864
    114  CB        26.8670    2.2730    7.8330 C.3   156  PHE156      0.0560
    115  CG        26.4730    2.3660    9.2800 C.ar  156  PHE156     -0.0200
    116  CD1       26.9280    3.4130   10.0740 C.ar  156  PHE156     -0.0042
    117  CD2       25.6520    1.4000    9.8520 C.ar  156  PHE156     -0.0042
    118  CE1       26.5680    3.4970   11.4200 C.ar  156  PHE156     -0.0003
    119  CE2       25.2860    1.4730   11.1940 C.ar  156  PHE156     -0.0003
    120  CZ        25.7430    2.5220   11.9800 C.ar  156  PHE156     -0.0000
    121  N         20.9180    7.2140   10.8390 N.3   210  TYR210     -0.1241
    122  CA        20.6780    6.0750   11.7100 C.3   210  TYR210      0.1605
    123  C         19.2090    5.8950   12.1110 C.2   210  TYR210      0.2264
    124  O         18.6390    4.8180   11.9280 O.2   210  TYR210     -0.2867
    125  CB        21.5510    6.1880   12.9650 C.3   210  TYR210      0.0534
    126  CG        21.5700    4.9290   13.8010 C.ar  210  TYR210     -0.0201
    127  CD1       20.5550    4.6580   14.7190 C.ar  210  TYR210     -0.0009
    128  CD2       22.5840    3.9890   13.6450 C.ar  210  TYR210     -0.0009
    129  CE1       20.5490    3.4790   15.4590 C.ar  210  TYR210      0.0417
    130  CE2       22.5870    2.8070   14.3790 C.ar  210  TYR210      0.0417
    131  CZ        21.5700    2.5590   15.2820 C.ar  210  TYR210      0.1957
    132  OH        21.5780    1.3920   16.0030 O.3   210  TYR210     -0.2866
    133  N         24.0230   -4.1490   18.8180 N.3   230  TRP230     -0.1241
    134  CA        23.2550   -3.2540   19.6740 C.3   230  TRP230      0.1605
    135  C         21.8480   -3.0170   19.1290 C.2   230  TRP230      0.2264
    136  O         20.8880   -2.8940   19.8860 O.2   230  TRP230     -0.2867
    137  CB        23.9950   -1.9190   19.8230 C.3   230  TRP230      0.0550
    138  CG        24.3130   -1.2560   18.5190 C.ar  230  TRP230      0.0003
    139  CD1       23.4820   -0.4640   17.7740 C.ar  230  TRP230      0.0946
    140  CD2       25.5410   -1.3480   17.7850 C.ar  230  TRP230      0.0152
    141  NE1       24.1160   -0.0580   16.6270 N.ar  230  TRP230     -0.2442
    142  CE2       25.3800   -0.5860   16.6060 C.ar  230  TRP230      0.0810
    143  CE3       26.7600   -2.0000   18.0090 C.ar  230  TRP230      0.0012
    144  CZ2       26.3940   -0.4590   15.6520 C.ar  230  TRP230      0.0191
    145  CZ3       27.7680   -1.8740   17.0610 C.ar  230  TRP230      0.0001
    146  CH2       27.5770   -1.1070   15.8950 C.ar  230  TRP230      0.0015
    147  N         35.4700   -3.3010   15.3020 N.3   260  GLY260     -0.1225
    148  CA        35.9050   -2.5410   16.4550 C.3   260  GLY260      0.1811
    149  C         35.6520   -3.2660   17.7580 C.2   260  GLY260      0.2280
    150  O         34.7590   -4.1070   17.8630 O.2   260  GLY260     -0.2866
    151  N         39.9540   -2.4860   13.1130 N.3   330  MET330     -0.1245
    152  CA        40.4630   -1.1260   12.9550 C.3   330  MET330      0.1570
    153  C         41.7820   -0.8630   13.6700 C.2   330  MET330      0.2261
    154  O         42.0550   -1.4360   14.7220 O.2   330  MET330     -0.2867
    155  CB        39.4580   -0.1110   13.4940 C.3   330  MET330      0.0387
    156  CG        38.0830   -0.1580   12.8910 C.3   330  MET330      0.0595
    157  SD        37.0750    1.1450   13.6180 S.3   330  MET330     -0.1393
    158  CE        36.0600    0.2200   14.7580 C.3   330  MET330      0.0692
    159  N         38.5460    8.8910    9.4090 N.3   340  TRP340     -0.1241
    160  CA        37.0890    8.9120    9.5220 C.3   340  TRP340      0.1605
    161  C         36.4540   10.1920    8.9900 C.2   340  TRP340      0.2264
    162  O         35.4910   10.1350    8.2240 O.2   340  TRP340     -0.2867
    163  CB        36.6620    8.6920   10.9770 C.3   340  TRP340      0.0550
    164  CG        36.7980    7.2730   11.4370 C.ar  340  TRP340      0.0003
    165  CD1       37.3440    6.8420   12.6120 C.ar  340  TRP340      0.0946
    166  CD2       36.3730    6.0940   10.7380 C.ar  340  TRP340      0.0152
    167  NE1       37.2910    5.4710   12.6880 N.ar  340  TRP340     -0.2442
    168  CE2       36.7010    4.9860   11.5500 C.ar  340  TRP340      0.0810
    169  CE3       35.7480    5.8670    9.5040 C.ar  340  TRP340      0.0012
    170  CZ2       36.4250    3.6680   11.1680 C.ar  340  TRP340      0.0191
    171  CZ3       35.4720    4.5550    9.1250 C.ar  340  TRP340      0.0001
    172  CH2       35.8130    3.4740    9.9550 C.ar  340  TRP340      0.0015
    173  N         34.0850   10.1780    5.8370 N.3   344  ARG344     -0.1245
    174  CA        32.7380   10.6470    6.1530 C.3   344  ARG344      0.1563
    175  C         32.3330   11.7670    5.2140 C.2   344  ARG344      0.2260
    176  O         31.2020   11.8100    4.7350 O.2   344  ARG344     -0.2867
    177  CB        32.6650   11.1620    7.5910 C.3   344  ARG344      0.0307
    178  CG        31.2950   11.7030    7.9810 C.3   344  ARG344      0.0489
    179  CD        31.2280   12.0320    9.4660 C.3   344  ARG344      0.2205
    180  NE        29.8560   12.2350    9.9340 N.pl3 344  ARG344     -0.0865
    181  CZ        29.0850   13.2630    9.5910 C.cat 344  ARG344      0.5346
    182  NH1       29.5470   14.1960    8.7700 N.pl3 344  ARG344      0.1354
    183  NH2       27.8510   13.3600   10.0710 N.pl3 344  ARG344      0.1354
@<TRIPOS>BOND
     1   176   175    2
     2   175   174    1
     3   113   112    2
     4   173   174    1
     5   112   111    1
     6   174   177    1
     7    94    93    2
     8    95    92    1
     9    95    96    1
    10    92    93    1
    11    92    91    1
    12    93    98   am
    13   177   178    1
    14   111   114    1
    15   111   110    1
    16    85    84    2
    17   114   115    1
    18    91    84   am
    19    91    97    1
    20   178   179    1
    21   162   161    2
    22    96    97    1
    23   110   100   am
    24    84    83    1
    25   101   100    2
    26    82    83    1
    27   100    99    1
    28   182   181    1
    29    98    99    1
    30   161   160    1
    31   171   169   ar
    32   171   172   ar
    33    83    86    1
    34   115   117   ar
    35   115   116   ar
    36    99   102    1
    37   159   160    1
    38   179   180    1
    39   169   166   ar
    40   160   163    1
    41   181   180    2
    42   181   183    1
    43   117   119   ar
    44   172   170   ar
    45   116   118   ar
    46    86    87    1
    47   166   164   ar
    48   166   168   ar
    49   121   122    1
    50   102   103    1
    51   163   164    1
    52   170   168   ar
    53   119   120   ar
    54   118   120   ar
    55   164   165   ar
    56   168   167   ar
    57   103   104   ar
    58   103   105   ar
    59    87    88    1
    60   122   123    1
    61   122   125    1
    62   104   106   ar
    63   124   123    2
    64   105   107   ar
    65    88    89   ar
    66    88    90   ar
    67   106   108   ar
    68   165   167   ar
    69   156   155    1
    70   156   157    1
    71   107   108   ar
    72   152   151    1
    73   152   155    1
    74   152   153    1
    75   125   126    1
    76   108   109    1
    77   157   158    1
    78   128   126   ar
    79   128   130   ar
    80   153   154    2
    81   126   127   ar
    82   130   131   ar
    83   127   129   ar
    84    72    70    1
    85   131   129   ar
    86   131   132    1
    87   147   148    1
    88    76    75    2
    89    61    59   ar
    90   144   146   ar
    91   144   142   ar
    92    75    74    1
    93   146   145   ar
    94    58    59    1
    95    58    55    1
    96    59    60   ar
    97    70    71    1
    98    70    69    2
    99   148   149    1
   100   142   141   ar
   101   142   140   ar
   102   141   139   ar
   103    69    68    1
   104   145   143   ar
   105    57    56    2
   106    74    77    1
   107    74    73    1
   108    55    56    1
   109    55    54    1
   110    56    62   am
   111   149   150    2
   112   139   138   ar
   113   140   143   ar
   114   140   138   ar
   115    77    78    1
   116    78    79    1
   117    68    67    1
   118   138   137    1
   119    16    14   ar
   120    31    32    1
   121    31    30    1
   122    46    48   ar
   123    46    44   ar
   124    62    63    1
   125    53    50    1
   126    32    34   ar
   127    32    33   ar
   128    80    79   ar
   129    67    66    1
   130    79    81   ar
   131   133   134    1
   132    43    44   ar
   133    43    41   ar
   134   135   134    1
   135   135   136    2
   136    63    66    1
   137    63    64    1
   138    48    47   ar
   139    44    42   ar
   140    14    13    1
   141    14    15   ar
   142   134   137    1
   143    13    10    1
   144    30    27    1
   145    41    40   ar
   146    50    51    1
   147    50    49    1
   148    65    64    2
   149     8     6   am
   150    51    52    2
   151    47    45   ar
   152    24    25    1
   153    24    23    1
   154    42    40   ar
   155    42    45   ar
   156    29    28    2
   157    49    37   am
   158    28    27    1
   159     7     6    2
   160    27    26    1
   161     6     5    1
   162    10     9    1
   163    10    11    1
   164    40    39    1
   165    12    11    2
   166    11    17   am
   167    23    22    1
   168    37    38    2
   169    37    36    1
   170     5     2    1
   171    39    36    1
   172    36    35    1
   173    22    21    1
   174    17    18    1
   175     2     3    1
   176     2     1    1
   177     3     4    2
   178    18    21    1
   179    18    19    1
   180    19    20    2
