@<TRIPOS>MOLECULE
tmp/3h51B00.pdb
 88 82 0 0 0
SMALL
GASTEIGER

@<TRIPOS>ATOM
      1  N         37.1940   -6.9670   19.7340 N.3    51  VAL51      -0.1245
      2  CA        36.2940   -8.0970   19.8710 C.3    51  VAL51       0.1561
      3  C         34.8050   -7.7670   20.0380 C.2    51  VAL51       0.2260
      4  O         33.9840   -8.6900   20.2190 O.2    51  VAL51      -0.2867
      5  CB        36.8120   -9.0800   21.0040 C.3    51  VAL51       0.0252
      6  CG1       38.2840   -9.5120   20.7170 C.3    51  VAL51       0.0019
      7  CG2       36.6550   -8.4720   22.3090 C.3    51  VAL51       0.0019
      8  N         37.3400   -7.0950   28.4620 N.3    68  PHE68      -0.1241
      9  CA        38.6150   -7.3730   27.8360 C.3    68  PHE68       0.1605
     10  C         39.7380   -7.7120   28.8180 C.2    68  PHE68       0.2264
     11  O         40.5200   -8.6490   28.5930 O.2    68  PHE68      -0.2867
     12  CB        38.9850   -6.1750   26.9240 C.3    68  PHE68       0.0534
     13  CG        40.1260   -6.4400   26.0120 C.ar   68  PHE68      -0.0203
     14  CD1       39.9950   -7.3890   24.9880 C.ar   68  PHE68      -0.0042
     15  CD2       41.3200   -5.7690   26.1450 C.ar   68  PHE68      -0.0042
     16  CE1       41.0870   -7.6620   24.1420 C.ar   68  PHE68      -0.0003
     17  CE2       42.3970   -6.0460   25.2930 C.ar   68  PHE68      -0.0003
     18  CZ        42.2670   -6.9780   24.3080 C.ar   68  PHE68      -0.0000
     19  N         39.6880   -9.2240   31.6130 N.3    70  THR70      -0.1203
     20  CA        39.5840  -10.5300   32.2690 C.3    70  THR70       0.1994
     21  C         40.5010  -11.5160   31.5410 C.2    70  THR70       0.2617
     22  O         40.9070  -12.5260   32.1010 O.2    70  THR70      -0.2717
     23  CB        38.1330  -11.0360   32.3120 C.3    70  THR70       0.1784
     24  OG1       37.6430  -11.3130   30.9910 O.3    70  THR70      -0.2211
     25  CG2       37.2470   -9.9860   32.9730 C.3    70  THR70       0.0376
     26  N         40.8340  -11.1960   30.2890 N.am   71  LYS71      -0.1979
     27  CA        41.7840  -11.9910   29.5050 C.3    71  LYS71       0.1596
     28  C         43.2700  -11.6960   29.7840 C.2    71  LYS71       0.2287
     29  O         44.1700  -12.2310   29.1080 O.2    71  LYS71      -0.2864
     30  CB        41.5040  -11.7970   28.0100 C.3    71  LYS71       0.0298
     31  CG        40.0960  -12.1720   27.5560 C.3    71  LYS71       0.0038
     32  CD        39.8220  -11.6540   26.1610 C.3    71  LYS71       0.0206
     33  CE        38.3450  -11.7730   25.7550 C.3    71  LYS71       0.1093
     34  NZ        37.8660  -13.2010   25.6380 N.3    71  LYS71      -0.1314
     35  N         46.6300  -13.3950   25.2030 N.3   100  LEU100     -0.1231
     36  CA        45.4120  -13.4850   25.9950 C.3   100  LEU100      0.1693
     37  C         45.3450  -14.7940   26.7850 C.2   100  LEU100      0.2593
     38  O         45.8600  -15.8400   26.3410 O.2   100  LEU100     -0.2718
     39  CB        44.1950  -13.3840   25.0910 C.3   100  LEU100      0.0284
     40  CG        44.1360  -12.1450   24.1550 C.3   100  LEU100      0.0019
     41  CD1       42.8790  -12.2540   23.2600 C.3   100  LEU100      0.0001
     42  CD2       44.1960  -10.8300   25.0210 C.3   100  LEU100      0.0001
     43  N         44.7380  -14.7160   27.9700 N.am  101  THR101     -0.1939
     44  CA        44.5840  -15.9100   28.8400 C.3   101  THR101      0.2028
     45  C         43.0910  -16.2150   28.9840 C.2   101  THR101      0.2642
     46  O         42.2860  -15.3410   29.3470 O.2   101  THR101     -0.2714
     47  CB        45.2310  -15.6700   30.1900 C.3   101  THR101      0.1808
     48  OG1       46.6090  -15.3260   29.9850 O.3   101  THR101     -0.2208
     49  CG2       45.1090  -16.9140   31.1400 C.3   101  THR101      0.0379
     50  N         42.6970  -17.4390   28.6770 N.am  102  ASP102     -0.1957
     51  CA        41.2920  -17.7750   28.7430 C.3   102  ASP102      0.1840
     52  C         40.9570  -18.1400   30.1770 C.2   102  ASP102      0.2621
     53  O         41.8360  -18.1700   31.0420 O.2   102  ASP102     -0.2715
     54  CB        40.9030  -18.8510   27.6910 C.3   102  ASP102      0.1450
     55  CG        41.4360  -20.2290   27.9910 C.2   102  ASP102      0.3671
     56  OD1       41.8400  -20.4790   29.1340 O.co2 102  ASP102     -0.2456
     57  OD2       41.4290  -21.1010   27.0650 O.co2 102  ASP102     -0.2456
     58  N         39.6880  -18.4300   30.4330 N.am  103  LYS103     -0.1977
     59  CA        39.2290  -18.6900   31.8080 C.3   103  LYS103      0.1596
     60  C         39.8590  -19.9360   32.4470 C.2   103  LYS103      0.2287
     61  O         39.7720  -20.0940   33.6710 O.2   103  LYS103     -0.2864
     62  CB        37.6870  -18.7420   31.8770 C.3   103  LYS103      0.0298
     63  CG        37.0460  -19.6080   30.7820 C.3   103  LYS103      0.0038
     64  CD        35.6890  -20.1360   31.1650 C.3   103  LYS103      0.0206
     65  CE        34.7410  -19.0810   31.7110 C.3   103  LYS103      0.1093
     66  NZ        33.3770  -19.6750   31.8570 N.3   103  LYS103     -0.1314
     67  N         44.7300  -20.9120   29.6500 N.3   106  LYS106     -0.1245
     68  CA        45.3630  -21.2540   28.3810 C.3   106  LYS106      0.1561
     69  C         45.6800  -19.9810   27.6250 C.2   106  LYS106      0.2260
     70  O         44.8120  -19.1530   27.4430 O.2   106  LYS106     -0.2867
     71  CB        44.4110  -22.1000   27.5420 C.3   106  LYS106      0.0271
     72  CG        44.9710  -22.5440   26.2110 C.3   106  LYS106      0.0035
     73  CD        43.9460  -23.3780   25.4520 C.3   106  LYS106      0.0206
     74  CE        43.5490  -22.7290   24.1210 C.3   106  LYS106      0.1093
     75  NZ        42.6780  -21.5880   24.3320 N.3   106  LYS106     -0.1314
     76  N         46.7090  -17.7360   24.2750 N.3   108  SER108     -0.1217
     77  CA        46.7100  -17.6470   22.8130 C.3   108  SER108      0.1889
     78  C         47.1510  -16.2320   22.4270 C.2   108  SER108      0.2288
     79  O         47.0940  -15.3070   23.2400 O.2   108  SER108     -0.2866
     80  CB        45.3090  -17.9030   22.2570 C.3   108  SER108      0.2089
     81  OG        44.3650  -17.0010   22.7990 O.3   108  SER108     -0.2183
     82  N         46.5870  -13.1220   19.5690 N.3   110  VAL110     -0.1245
     83  CA        45.7310  -12.5290   18.5500 C.3   110  VAL110      0.1561
     84  C         46.4920  -11.3250   17.9640 C.2   110  VAL110      0.2260
     85  O         46.7640  -10.3400   18.6450 O.2   110  VAL110     -0.2867
     86  CB        44.3570  -12.1000   19.1520 C.3   110  VAL110      0.0252
     87  CG1       43.4590  -11.3420   18.1270 C.3   110  VAL110      0.0019
     88  CG2       43.6310  -13.3650   19.7440 C.3   110  VAL110      0.0019
@<TRIPOS>BOND
     1    84    83    1
     2    84    85    2
     3    87    86    1
     4    83    86    1
     5    83    82    1
     6    86    88    1
     7     1     2    1
     8     2     3    1
     9     2     5    1
    10     3     4    2
    11     6     5    1
    12     5     7    1
    13    80    81    1
    14    80    77    1
    15    78    77    1
    16    78    79    2
    17    77    76    1
    18    41    40    1
    19    74    75    1
    20    74    73    1
    21    16    18   ar
    22    16    14   ar
    23    40    42    1
    24    40    39    1
    25    18    17   ar
    26    14    13   ar
    27    39    36    1
    28    35    36    1
    29    17    15   ar
    30    73    72    1
    31    34    33    1
    32    33    32    1
    33    36    37    1
    34    13    15   ar
    35    13    12    1
    36    32    31    1
    37    72    71    1
    38    38    37    2
    39    37    43   am
    40    12     9    1
    41    57    55   ar
    42    70    69    2
    43    71    68    1
    44    31    30    1
    45    69    68    1
    46    54    55    1
    47    54    51    1
    48     9     8    1
    49     9    10    1
    50    43    44    1
    51    55    56   ar
    52    30    27    1
    53    68    67    1
    54    11    10    2
    55    50    51    1
    56    50    45   am
    57    51    52    1
    58    44    45    1
    59    44    47    1
    60    45    46    2
    61    29    28    2
    62    27    28    1
    63    27    26    1
    64    48    47    1
    65    52    58   am
    66    52    53    2
    67    47    49    1
    68    26    21   am
    69    58    59    1
    70    63    64    1
    71    63    62    1
    72    24    23    1
    73    64    65    1
    74    21    22    2
    75    21    20    1
    76    19    20    1
    77    65    66    1
    78    59    62    1
    79    59    60    1
    80    20    23    1
    81    23    25    1
    82    60    61    2
