@<TRIPOS>MOLECULE
tmp/3h52B00.pdb
 141 132 0 0 0
SMALL
GASTEIGER

@<TRIPOS>ATOM
      1  N        -22.4700   33.7390  -11.1630 N.3    41  GLY41      -0.1225
      2  CA       -22.3560   33.9510  -12.5940 C.3    41  GLY41       0.1811
      3  C        -21.6320   35.2470  -12.8350 C.2    41  GLY41       0.2280
      4  O        -20.7190   35.3300  -13.6610 O.2    41  GLY41      -0.2866
      5  N        -17.8650   35.0070  -12.0290 N.3    44  VAL44      -0.1231
      6  CA       -17.2250   34.3540  -13.1790 C.3    44  VAL44       0.1692
      7  C        -16.9140   35.3600  -14.2970 C.2    44  VAL44       0.2591
      8  O        -15.7740   35.4390  -14.7590 O.2    44  VAL44      -0.2718
      9  CB       -18.0910   33.1610  -13.7140 C.3    44  VAL44       0.0266
     10  CG1      -17.4930   32.5080  -14.9770 C.3    44  VAL44       0.0020
     11  CG2      -18.2540   32.1200  -12.6420 C.3    44  VAL44       0.0020
     12  N        -17.9030   36.1490  -14.7090 N.am   45  ILE45      -0.1980
     13  CA       -17.6770   37.1390  -15.7720 C.3    45  ILE45       0.1595
     14  C        -16.5770   38.1340  -15.3620 C.2    45  ILE45       0.2287
     15  O        -15.6180   38.3550  -16.1170 O.2    45  ILE45      -0.2864
     16  CB       -18.9600   37.9160  -16.1600 C.3    45  ILE45       0.0276
     17  CG1      -20.0400   36.9560  -16.6860 C.3    45  ILE45       0.0022
     18  CG2      -18.6290   38.9670  -17.2140 C.3    45  ILE45       0.0022
     19  CD1      -21.4260   37.5510  -16.7690 C.3    45  ILE45       0.0001
     20  N        -13.2670   36.6040  -15.7380 N.3    48  VAL48      -0.1231
     21  CA       -12.7700   36.4730  -17.1200 C.3    48  VAL48       0.1692
     22  C        -12.1460   37.7650  -17.6070 C.2    48  VAL48       0.2591
     23  O        -11.0980   37.7390  -18.2420 O.2    48  VAL48      -0.2718
     24  CB       -13.8850   36.0510  -18.0980 C.3    48  VAL48       0.0266
     25  CG1      -13.4280   36.2420  -19.5230 C.3    48  VAL48       0.0020
     26  CG2      -14.2980   34.6060  -17.8340 C.3    48  VAL48       0.0020
     27  N        -12.7960   38.8860  -17.2920 N.am   49  LYS49      -0.1980
     28  CA       -12.3010   40.2240  -17.6540 C.3    49  LYS49       0.1596
     29  C        -10.9820   40.5230  -16.9750 C.2    49  LYS49       0.2287
     30  O        -10.0320   40.9590  -17.6230 O.2    49  LYS49      -0.2864
     31  CB       -13.3320   41.2960  -17.3020 C.3    49  LYS49       0.0298
     32  CG       -14.5440   41.2370  -18.1900 C.3    49  LYS49       0.0038
     33  CD       -15.5130   42.3690  -17.9250 C.3    49  LYS49       0.0206
     34  CE       -16.4080   42.0630  -16.7670 C.3    49  LYS49       0.1093
     35  NZ       -17.4630   43.0910  -16.6530 N.3    49  LYS49      -0.1314
     36  N         -8.2870   38.8250  -18.7030 N.3    52  LYS52      -0.1245
     37  CA        -7.9360   39.5110  -19.9300 C.3    52  LYS52       0.1561
     38  C         -7.0000   40.7050  -19.6940 C.2    52  LYS52       0.2260
     39  O         -6.3140   41.1470  -20.6210 O.2    52  LYS52      -0.2867
     40  CB        -9.2080   39.9330  -20.6830 C.3    52  LYS52       0.0271
     41  CG       -10.1150   38.7340  -21.0160 C.3    52  LYS52       0.0035
     42  CD       -10.9010   38.9090  -22.3060 C.3    52  LYS52       0.0206
     43  CE       -11.7190   40.1970  -22.2840 C.3    52  LYS52       0.1093
     44  NZ       -12.8810   40.1500  -23.2150 N.3    52  LYS52      -0.1314
     45  N         -6.2280   33.0750  -27.9180 N.3    62  LEU62      -0.1231
     46  CA        -7.5630   33.2090  -27.3300 C.3    62  LEU62       0.1693
     47  C         -8.0530   31.8860  -26.7260 C.2    62  LEU62       0.2592
     48  O         -8.3050   31.8060  -25.5300 O.2    62  LEU62      -0.2718
     49  CB        -8.5500   33.7430  -28.3780 C.3    62  LEU62       0.0284
     50  CG        -9.9670   34.0660  -27.8860 C.3    62  LEU62       0.0019
     51  CD1      -10.4740   35.3850  -28.4820 C.3    62  LEU62       0.0001
     52  CD2      -10.9350   32.8990  -28.1850 C.3    62  LEU62       0.0001
     53  N         -8.1520   30.8490  -27.5530 N.am   63  ASP63      -0.1974
     54  CA        -8.5480   29.5150  -27.0890 C.3    63  ASP63       0.1709
     55  C         -7.6910   28.9980  -25.9330 C.2    63  ASP63       0.2293
     56  O         -8.1870   28.2360  -25.1090 O.2    63  ASP63      -0.2864
     57  CB        -8.5380   28.5090  -28.2440 C.3    63  ASP63       0.1436
     58  CG        -9.3970   28.9630  -29.4200 C.2    63  ASP63       0.3671
     59  OD1      -10.4730   29.5700  -29.1810 O.co2  63  ASP63      -0.2456
     60  OD2       -8.9900   28.7220  -30.5800 O.co2  63  ASP63      -0.2456
     61  N         -6.4660   31.0980  -23.5990 N.3    65  GLN65      -0.1231
     62  CA        -7.0370   31.8680  -22.4830 C.3    65  GLN65       0.1698
     63  C         -8.3310   31.2240  -22.0080 C.2    65  GLN65       0.2592
     64  O         -8.5190   31.0150  -20.8110 O.2    65  GLN65      -0.2718
     65  CB        -7.3070   33.3230  -22.8790 C.3    65  GLN65       0.0381
     66  CG        -6.0520   34.1130  -23.2040 C.3    65  GLN65       0.0905
     67  CD        -6.3380   35.4800  -23.7920 C.2    65  GLN65       0.2608
     68  OE1       -7.4790   35.9420  -23.8200 O.2    65  GLN65      -0.2717
     69  NE2       -5.2880   36.1360  -24.2710 N.am   65  GLN65      -0.0878
     70  N         -9.2070   30.9060  -22.9580 N.am   66  MET66      -0.1979
     71  CA       -10.4720   30.2310  -22.6760 C.3    66  MET66       0.1605
     72  C        -10.2730   28.9450  -21.8740 C.2    66  MET66       0.2287
     73  O        -11.0390   28.6800  -20.9570 O.2    66  MET66      -0.2864
     74  CB       -11.2130   29.9210  -23.9890 C.3    66  MET66       0.0413
     75  CG       -12.5060   29.0990  -23.8550 C.3    66  MET66       0.0598
     76  SD       -13.7810   29.9030  -22.8690 S.3    66  MET66      -0.1393
     77  CE       -14.8920   28.5230  -22.5780 C.3    66  MET66       0.0692
     78  N         -9.1250   29.5850  -18.2280 N.3    69  LEU69      -0.1231
     79  CA       -10.3120   30.0750  -17.5330 C.3    69  LEU69       0.1693
     80  C        -11.2770   28.9520  -17.1840 C.2    69  LEU69       0.2591
     81  O        -11.8860   28.9500  -16.1090 O.2    69  LEU69      -0.2718
     82  CB       -11.0370   31.1160  -18.3860 C.3    69  LEU69       0.0284
     83  CG       -10.5430   32.5470  -18.1770 C.3    69  LEU69       0.0019
     84  CD1      -10.9580   33.4510  -19.3320 C.3    69  LEU69       0.0001
     85  CD2      -11.0570   33.0870  -16.8470 C.3    69  LEU69       0.0001
     86  N        -11.4260   28.0000  -18.0980 N.am   70  GLN70      -0.1979
     87  CA       -12.2910   26.8510  -17.8480 C.3    70  GLN70       0.1601
     88  C        -11.7710   26.0000  -16.6930 C.2    70  GLN70       0.2287
     89  O        -12.5660   25.4840  -15.9160 O.2    70  GLN70      -0.2864
     90  CB       -12.4700   26.0050  -19.1120 C.3    70  GLN70       0.0394
     91  CG       -13.3210   26.6790  -20.1880 C.3    70  GLN70       0.0908
     92  CD       -13.7800   25.7230  -21.2760 C.2    70  GLN70       0.2608
     93  OE1      -13.2750   25.7530  -22.4010 O.2    70  GLN70      -0.2717
     94  NE2      -14.7500   24.8680  -20.9420 N.am   70  GLN70      -0.0878
     95  N        -11.4760   28.9700  -12.9860 N.3    73  TRP73      -0.1241
     96  CA       -12.5040   29.8750  -12.4700 C.3    73  TRP73       0.1605
     97  C        -12.9680   29.5450  -11.0440 C.2    73  TRP73       0.2264
     98  O        -13.0240   30.4280  -10.1960 O.2    73  TRP73      -0.2867
     99  CB       -13.7030   29.9680  -13.4230 C.3    73  TRP73       0.0550
    100  CG       -14.5660   28.7600  -13.4640 C.ar   73  TRP73       0.0003
    101  CD1      -14.4570   27.7080  -14.3180 C.ar   73  TRP73       0.0946
    102  CD2      -15.6820   28.4770  -12.6160 C.ar   73  TRP73       0.0152
    103  NE1      -15.4340   26.7740  -14.0530 N.ar   73  TRP73      -0.2442
    104  CE2      -16.2040   27.2230  -13.0160 C.ar   73  TRP73       0.0810
    105  CE3      -16.2870   29.1540  -11.5500 C.ar   73  TRP73       0.0012
    106  CZ2      -17.3130   26.6370  -12.3990 C.ar   73  TRP73       0.0191
    107  CZ3      -17.3960   28.5730  -10.9310 C.ar   73  TRP73       0.0001
    108  CH2      -17.8940   27.3230  -11.3580 C.ar   73  TRP73       0.0015
    109  N        -26.9510   28.2300  -16.2120 N.3   225  MET225     -0.1245
    110  CA       -25.6180   28.8460  -16.3010 C.3   225  MET225      0.1570
    111  C        -24.5410   27.8470  -15.8630 C.2   225  MET225      0.2261
    112  O        -23.7330   27.4210  -16.6640 O.2   225  MET225     -0.2867
    113  CB       -25.5000   30.0980  -15.4140 C.3   225  MET225      0.0387
    114  CG       -26.2380   31.3910  -15.8400 C.3   225  MET225      0.0595
    115  SD       -26.0170   32.7280  -14.5880 S.3   225  MET225     -0.1393
    116  CE       -27.1970   33.9880  -15.0740 C.3   225  MET225      0.0692
    117  N        -24.2240   24.3350  -17.6130 N.3   228  GLU228     -0.1231
    118  CA       -23.6140   24.5640  -18.9250 C.3   228  GLU228      0.1699
    119  C        -22.0830   24.6210  -18.8470 C.2   228  GLU228      0.2592
    120  O        -21.3890   23.9300  -19.5920 O.2   228  GLU228     -0.2718
    121  CB       -24.1420   25.8820  -19.5130 C.3   228  GLU228      0.0402
    122  CG       -23.9990   26.0320  -21.0130 C.3   228  GLU228      0.1161
    123  CD       -24.7040   27.2800  -21.5430 C.2   228  GLU228      0.3649
    124  OE1      -24.9650   28.2170  -20.7500 O.co2 228  GLU228     -0.2457
    125  OE2      -25.0030   27.3180  -22.7620 O.co2 228  GLU228     -0.2457
    126  N        -21.5590   25.4400  -17.9450 N.am  229  ILE229     -0.1980
    127  CA       -20.1190   25.5880  -17.8190 C.3   229  ILE229      0.1595
    128  C        -19.4910   24.2480  -17.4740 C.2   229  ILE229      0.2287
    129  O        -18.5350   23.8280  -18.1210 O.2   229  ILE229     -0.2864
    130  CB       -19.7320   26.6080  -16.7300 C.3   229  ILE229      0.0276
    131  CG1      -20.1750   28.0170  -17.1190 C.3   229  ILE229      0.0022
    132  CG2      -18.2390   26.5990  -16.4950 C.3   229  ILE229      0.0022
    133  CD1      -20.0760   28.9960  -15.9790 C.3   229  ILE229      0.0001
    134  N        -19.6900   21.6580  -20.2940 N.3   232  ASN232     -0.1240
    135  CA       -18.7670   22.0080  -21.3770 C.3   232  ASN232      0.1653
    136  C        -17.3000   21.7360  -21.0400 C.2   232  ASN232      0.2266
    137  O        -16.4790   21.5650  -21.9390 O.2   232  ASN232     -0.2867
    138  CB       -18.9390   23.4840  -21.7770 C.3   232  ASN232      0.1155
    139  CG       -20.2460   23.7540  -22.5180 C.2   232  ASN232      0.2627
    140  OD1      -20.9010   22.8340  -22.9910 O.2   232  ASN232     -0.2716
    141  ND2      -20.6190   25.0260  -22.6310 N.am  232  ASN232     -0.0877
@<TRIPOS>BOND
     1    60    58   ar
     2    58    59   ar
     3    58    57    1
     4    51    50    1
     5    49    50    1
     6    49    46    1
     7    57    54    1
     8    52    50    1
     9    45    46    1
    10    53    54    1
    11    53    47   am
    12    46    47    1
    13    54    55    1
    14    47    48    2
    15    55    56    2
    16    69    67   am
    17    74    75    1
    18    74    71    1
    19    75    76    1
    20    68    67    2
    21    67    66    1
    22    61    62    1
    23    44    43    1
    24    66    65    1
    25   140   139    2
    26    70    71    1
    27    70    63   am
    28    65    62    1
    29    76    77    1
    30   125   123   ar
    31    71    72    1
    32   141   139   am
    33   139   138    1
    34    62    63    1
    35    93    92    2
    36    42    43    1
    37    42    41    1
    38    63    64    2
    39   137   136    2
    40    72    73    2
    41   138   135    1
    42   123   122    1
    43   123   124   ar
    44   135   136    1
    45   135   134    1
    46    92    94   am
    47    92    91    1
    48    41    40    1
    49   122   121    1
    50    40    37    1
    51    39    38    2
    52    91    90    1
    53    37    38    1
    54    37    36    1
    55   120   119    2
    56    25    24    1
    57   121   118    1
    58    84    83    1
    59    90    87    1
    60   118   119    1
    61   118   117    1
    62   119   126   am
    63    82    83    1
    64    82    79    1
    65    23    22    2
    66    78    79    1
    67    32    33    1
    68    32    31    1
    69    83    85    1
    70   129   128    2
    71    86    87    1
    72    86    80   am
    73    24    26    1
    74    24    21    1
    75   126   127    1
    76    33    34    1
    77    87    88    1
    78   127   128    1
    79   127   130    1
    80    28    31    1
    81    28    27    1
    82    28    29    1
    83    30    29    2
    84    22    27   am
    85    22    21    1
    86    79    80    1
    87    18    16    1
    88    80    81    2
    89    21    20    1
    90   131   130    1
    91   131   133    1
    92    19    17    1
    93    34    35    1
    94   130   132    1
    95    88    89    2
    96    17    16    1
    97   112   111    2
    98   110   109    1
    99   110   111    1
   100   110   113    1
   101    16    13    1
   102    15    14    2
   103   114   113    1
   104   114   115    1
   105    13    14    1
   106    13    12    1
   107   116   115    1
   108    10     9    1
   109     8     7    2
   110    12     7   am
   111   101   103   ar
   112   101   100   ar
   113     7     6    1
   114   103   104   ar
   115     9     6    1
   116     9    11    1
   117     4     3    2
   118   100    99    1
   119   100   102   ar
   120    99    96    1
   121     6     5    1
   122   104   102   ar
   123   104   106   ar
   124    95    96    1
   125     3     2    1
   126   102   105   ar
   127     2     1    1
   128    96    97    1
   129   106   108   ar
   130   105   107   ar
   131   108   107   ar
   132    97    98    2
