@<TRIPOS>MOLECULE
tmp/3h54A01.pdb
 149 142 0 0 0
SMALL
GASTEIGER

@<TRIPOS>ATOM
      1  N         57.0100   -8.6040    9.6200 N.3    16  TRP16      -0.1241
      2  CA        57.1090   -9.2310   10.9520 C.3    16  TRP16       0.1605
      3  C         56.0250  -10.2340   11.3520 C.2    16  TRP16       0.2264
      4  O         56.3370  -11.3710   11.7040 O.2    16  TRP16      -0.2867
      5  CB        57.2310   -8.1810   12.0560 C.3    16  TRP16       0.0550
      6  CG        57.3380   -8.8260   13.4110 C.ar   16  TRP16       0.0003
      7  CD1       56.3880   -8.8420   14.4030 C.ar   16  TRP16       0.0946
      8  CD2       58.4450   -9.5890   13.9050 C.ar   16  TRP16       0.0152
      9  NE1       56.8490   -9.5510   15.4850 N.ar   16  TRP16      -0.2442
     10  CE2       58.1100  -10.0160   15.2090 C.ar   16  TRP16       0.0810
     11  CE3       59.6980   -9.9380   13.3780 C.ar   16  TRP16       0.0012
     12  CZ2       58.9730  -10.7870   15.9840 C.ar   16  TRP16       0.0191
     13  CZ3       60.5590  -10.6980   14.1570 C.ar   16  TRP16       0.0001
     14  CH2       60.1910  -11.1150   15.4460 C.ar   16  TRP16       0.0015
     15  N         61.6070   -5.8420    8.7750 N.3    61  ASP61      -0.1225
     16  CA        61.5300   -5.7510   10.2320 C.3    61  ASP61       0.1805
     17  C         62.7940   -6.3690   10.8400 C.2    61  ASP61       0.2597
     18  O         63.8610   -6.3660   10.2090 O.2    61  ASP61      -0.2718
     19  CB        60.2540   -6.4200   10.7610 C.3    61  ASP61       0.1424
     20  CG        59.7950   -5.8420   12.0900 C.2    61  ASP61       0.3668
     21  OD1       60.1270   -6.4310   13.1400 O.co2  61  ASP61      -0.2456
     22  OD2       59.1080   -4.7960   12.0980 O.co2  61  ASP61      -0.2456
     23  N         62.6810   -6.8910   12.0580 N.am   62  ASP62      -0.1974
     24  CA        63.8300   -7.4330   12.7830 C.3    62  ASP62       0.1709
     25  C         64.4880   -8.6020   12.0380 C.2    62  ASP62       0.2293
     26  O         63.8990   -9.1670   11.1020 O.2    62  ASP62      -0.2864
     27  CB        63.3690   -7.8860   14.1660 C.3    62  ASP62       0.1436
     28  CG        64.4810   -7.8730   15.2020 C.2    62  ASP62       0.3671
     29  OD1       65.6740   -7.7310   14.8420 O.co2  62  ASP62      -0.2456
     30  OD2       64.1430   -8.0320   16.3920 O.co2  62  ASP62      -0.2456
     31  N         64.3340   -1.4490    9.7450 N.3   102  TYR102     -0.1241
     32  CA        64.0890   -1.6080   11.1640 C.3   102  TYR102      0.1605
     33  C         65.4030   -1.4700   11.9180 C.2   102  TYR102      0.2264
     34  O         66.4230   -2.0480   11.5330 O.2   102  TYR102     -0.2867
     35  CB        63.4440   -2.9810   11.4180 C.3   102  TYR102      0.0534
     36  CG        63.3910   -3.4310   12.8680 C.ar  102  TYR102     -0.0201
     37  CD1       62.1980   -3.3830   13.5930 C.ar  102  TYR102     -0.0009
     38  CD2       64.5250   -3.9310   13.5040 C.ar  102  TYR102     -0.0009
     39  CE1       62.1430   -3.8030   14.9220 C.ar  102  TYR102      0.0417
     40  CE2       64.4820   -4.3420   14.8240 C.ar  102  TYR102      0.0417
     41  CZ        63.2880   -4.2800   15.5320 C.ar  102  TYR102      0.1957
     42  OH        63.2600   -4.7010   16.8500 O.3   102  TYR102     -0.2866
     43  N         64.8930   -6.5050   19.4910 N.3   110  CYS110     -0.1221
     44  CA        64.1530   -7.4020   20.3730 C.3   110  CYS110      0.1808
     45  C         64.5620   -8.8620   20.2130 C.2   110  CYS110      0.2601
     46  O         64.4730   -9.6420   21.1640 O.2   110  CYS110     -0.2717
     47  CB        62.6510   -7.2050   20.2060 C.3   110  CYS110      0.0970
     48  SG        62.1600   -5.5160   20.6090 S.3   110  CYS110     -0.0800
     49  N         65.0450   -9.2140   19.0230 N.am  111  MET111     -0.1979
     50  CA        65.5160  -10.5700   18.7380 C.3   111  MET111      0.1605
     51  C         67.0270  -10.7400   18.8980 C.2   111  MET111      0.2287
     52  O         67.5970  -11.7550   18.4770 O.2   111  MET111     -0.2864
     53  CB        65.0600  -11.0060   17.3380 C.3   111  MET111      0.0413
     54  CG        63.5700  -11.2990   17.2550 C.3   111  MET111      0.0598
     55  SD        63.1280  -12.7730   18.1880 S.3   111  MET111     -0.1393
     56  CE        62.5950  -12.0900   19.7380 C.3   111  MET111      0.0692
     57  N         61.4520    1.9990   11.1840 N.3   137  LYS137     -0.1245
     58  CA        60.8120    1.6080   12.4220 C.3   137  LYS137      0.1561
     59  C         61.9030    1.5210   13.4720 C.2   137  LYS137      0.2260
     60  O         62.8060    0.6820   13.3840 O.2   137  LYS137     -0.2867
     61  CB        60.1020    0.2590   12.2760 C.3   137  LYS137      0.0271
     62  CG        59.3610   -0.2120   13.5300 C.3   137  LYS137      0.0035
     63  CD        58.7300   -1.5680   13.2770 C.3   137  LYS137      0.0206
     64  CE        58.1350   -2.1860   14.5190 C.3   137  LYS137      0.1093
     65  NZ        57.3880   -3.4240   14.1200 N.3   137  LYS137     -0.1314
     66  N         62.5590    0.5140   16.9920 N.3   139  ASP139     -0.1239
     67  CA        62.0900   -0.2550   18.1360 C.3   139  ASP139      0.1674
     68  C         62.8070    0.2080   19.4200 C.2   139  ASP139      0.2266
     69  O         63.7580    0.9910   19.3570 O.2   139  ASP139     -0.2867
     70  CB        62.3410   -1.7370   17.8760 C.3   139  ASP139      0.1410
     71  CG        61.3110   -2.6380   18.5400 C.2   139  ASP139      0.3668
     72  OD1       60.6100   -2.2030   19.4850 O.co2 139  ASP139     -0.2456
     73  OD2       61.2150   -3.7990   18.1070 O.co2 139  ASP139     -0.2456
     74  N         63.5590   -2.0420   22.4590 N.3   141  CYS141     -0.1235
     75  CA        64.0800   -3.0880   23.3450 C.3   141  CYS141      0.1677
     76  C         65.4750   -2.7630   23.8790 C.2   141  CYS141      0.2270
     77  O         66.2090   -1.9610   23.2930 O.2   141  CYS141     -0.2867
     78  CB        64.1320   -4.4350   22.6270 C.3   141  CYS141      0.0956
     79  SG        62.5820   -5.3530   22.5930 S.3   141  CYS141     -0.0801
     80  N         58.5040    3.2060   18.2040 N.3   171  SER171     -0.1217
     81  CA        57.9100    2.2580   19.1630 C.3   171  SER171      0.1889
     82  C         57.9890    2.7540   20.6080 C.2   171  SER171      0.2288
     83  O         57.4650    2.1190   21.5250 O.2   171  SER171     -0.2866
     84  CB        58.5720    0.8930   19.0460 C.3   171  SER171      0.2089
     85  OG        58.4410    0.3970   17.7270 O.3   171  SER171     -0.2183
     86  N         55.1650    2.4250   23.3620 N.3   174  ALA174     -0.1231
     87  CA        54.8440    1.0340   23.7380 C.3   174  ALA174      0.1694
     88  C         55.6920    0.5030   24.8930 C.2   174  ALA174      0.2592
     89  O         55.2710   -0.4010   25.6140 O.2   174  ALA174     -0.2718
     90  CB        54.9540    0.1060   22.5500 C.3   174  ALA174      0.0304
     91  N         56.8830    1.0640   25.0610 N.am  175  TYR175     -0.1976
     92  CA        57.7600    0.6630   26.1550 C.3   175  TYR175      0.1639
     93  C         57.5100    1.4400   27.4450 C.2   175  TYR175      0.2290
     94  O         58.0360    1.0840   28.4960 O.2   175  TYR175     -0.2864
     95  CB        59.2310    0.7070   25.7080 C.3   175  TYR175      0.0560
     96  CG        59.4770   -0.3330   24.6520 C.ar  175  TYR175     -0.0198
     97  CD1       59.8160   -1.6390   25.0030 C.ar  175  TYR175     -0.0009
     98  CD2       59.2980   -0.0330   23.2960 C.ar  175  TYR175     -0.0009
     99  CE1       60.0020   -2.6150   24.0260 C.ar  175  TYR175      0.0417
    100  CE2       59.4740   -0.9960   22.3200 C.ar  175  TYR175      0.0417
    101  CZ        59.8290   -2.2870   22.6860 C.ar  175  TYR175      0.1957
    102  OH        60.0100   -3.2470   21.7060 O.3   175  TYR175     -0.2866
    103  N         53.9220    3.2080   17.6960 N.3   196  ARG196     -0.1245
    104  CA        53.2580    2.0410   18.2300 C.3   196  ARG196      0.1563
    105  C         52.9710    2.3210   19.7010 C.2   196  ARG196      0.2260
    106  O         53.9020    2.4250   20.5040 O.2   196  ARG196     -0.2867
    107  CB        54.1320    0.7920   18.0420 C.3   196  ARG196      0.0307
    108  CG        54.1370    0.2240   16.6120 C.3   196  ARG196      0.0489
    109  CD        52.9450   -0.7080   16.3610 C.3   196  ARG196      0.2205
    110  NE        52.7390   -1.5630   17.5220 N.pl3 196  ARG196     -0.0865
    111  CZ        53.4760   -2.6300   17.8140 C.cat 196  ARG196      0.5346
    112  NH1       54.4640   -3.0200   17.0050 N.pl3 196  ARG196      0.1354
    113  NH2       53.2190   -3.3070   18.9230 N.pl3 196  ARG196      0.1354
    114  N         50.9970    0.4040   21.7550 N.3   198  TYR198     -0.1241
    115  CA        50.5180   -0.7090   22.5570 C.3   198  TYR198      0.1605
    116  C         51.1300   -2.0450   22.1330 C.2   198  TYR198      0.2264
    117  O         52.0930   -2.0770   21.3680 O.2   198  TYR198     -0.2867
    118  CB        48.9720   -0.7330   22.5200 C.3   198  TYR198      0.0534
    119  CG        48.3120   -1.6130   23.5620 C.ar  198  TYR198     -0.0201
    120  CD1       48.5770   -1.4390   24.9220 C.ar  198  TYR198     -0.0009
    121  CD2       47.4150   -2.6190   23.1860 C.ar  198  TYR198     -0.0009
    122  CE1       47.9710   -2.2520   25.8840 C.ar  198  TYR198      0.0417
    123  CE2       46.8050   -3.4370   24.1420 C.ar  198  TYR198      0.0417
    124  CZ        47.0920   -3.2440   25.4850 C.ar  198  TYR198      0.1957
    125  OH        46.4990   -4.0420   26.4340 O.3   198  TYR198     -0.2866
    126  N         52.2100   -5.6920   20.7180 N.3   200  ASP200     -0.1239
    127  CA        52.3440   -6.4010   19.4650 C.3   200  ASP200      0.1674
    128  C         51.0710   -7.1840   19.1830 C.2   200  ASP200      0.2266
    129  O         50.5920   -7.9380   20.0380 O.2   200  ASP200     -0.2867
    130  CB        53.5020   -7.4070   19.5440 C.3   200  ASP200      0.1410
    131  CG        54.8700   -6.7520   19.6190 C.2   200  ASP200      0.3668
    132  OD1       54.9860   -5.5040   19.5560 O.co2 200  ASP200     -0.2456
    133  OD2       55.8480   -7.5180   19.7470 O.co2 200  ASP200     -0.2456
    134  N         49.1920   -1.3840   15.1700 N.3   235  ASP235     -0.1225
    135  CA        49.9370   -2.5190   14.6180 C.3   235  ASP235      0.1805
    136  C         49.3230   -3.0940   13.3280 C.2   235  ASP235      0.2597
    137  O         48.3220   -2.5850   12.8100 O.2   235  ASP235     -0.2718
    138  CB        50.1980   -3.6110   15.6730 C.3   235  ASP235      0.1424
    139  CG        51.5710   -4.2610   15.5210 C.2   235  ASP235      0.3668
    140  OD1       52.2910   -3.9290   14.5570 O.co2 235  ASP235     -0.2456
    141  OD2       51.9400   -5.0980   16.3720 O.co2 235  ASP235     -0.2456
    142  N         49.9470   -4.1600   12.8330 N.am  236  MET236     -0.1979
    143  CA        49.7320   -4.6800   11.4890 C.3   236  MET236      0.1605
    144  C         48.3520   -5.2780   11.2620 C.2   236  MET236      0.2287
    145  O         47.6900   -5.7220   12.1990 O.2   236  MET236     -0.2864
    146  CB        50.8000   -5.7310   11.1840 C.3   236  MET236      0.0413
    147  CG        52.2060   -5.1610   11.0370 C.3   236  MET236      0.0598
    148  SD        53.4810   -6.4380   11.1320 S.3   236  MET236     -0.1393
    149  CE        53.6740   -6.5740   12.9300 C.3   236  MET236      0.0692
@<TRIPOS>BOND
     1    15    16    1
     2     1     2    1
     3    31    32    1
     4    18    17    2
     5    16    19    1
     6    16    17    1
     7    19    20    1
     8    17    23   am
     9     2     3    1
    10     2     5    1
    11   147   148    1
    12   147   146    1
    13    26    25    2
    14   148   149    1
    15    32    35    1
    16    32    33    1
    17    57    58    1
    18   146   143    1
    19   144   143    1
    20   144   145    2
    21     3     4    2
    22    35    36    1
    23   143   142    1
    24    34    33    2
    25    25    24    1
    26     5     6    1
    27    23    24    1
    28    20    22   ar
    29    20    21   ar
    30    61    58    1
    31    61    62    1
    32    58    59    1
    33    24    27    1
    34   137   136    2
    35   142   136   am
    36    36    38   ar
    37    36    37   ar
    38    63    62    1
    39    63    64    1
    40   136   135    1
    41    11     8   ar
    42    11    13   ar
    43    60    59    2
    44     6     8   ar
    45     6     7   ar
    46    38    40   ar
    47    37    39   ar
    48     8    10   ar
    49    65    64    1
    50    13    14   ar
    51    27    28    1
    52     7     9   ar
    53   140   139   ar
    54   135   134    1
    55   135   138    1
    56    40    41   ar
    57    29    28   ar
    58    39    41   ar
    59    28    30   ar
    60    10     9   ar
    61    10    12   ar
    62    14    12   ar
    63   139   138    1
    64   139   141   ar
    65    41    42    1
    66   109   108    1
    67   109   110    1
    68   108   107    1
    69    66    67    1
    70   112   111    1
    71    54    53    1
    72    54    55    1
    73    53    50    1
    74   110   111    2
    75   103   104    1
    76    85    84    1
    77   111   113    1
    78    70    67    1
    79    70    71    1
    80   107   104    1
    81    73    71   ar
    82    67    68    1
    83    55    56    1
    84    80    81    1
    85   104   105    1
    86    52    51    2
    87    71    72   ar
    88    50    51    1
    89    50    49    1
    90    49    45   am
    91    84    81    1
    92    81    82    1
    93   128   127    1
    94   128   129    2
    95    69    68    2
    96   127   130    1
    97   127   126    1
    98    43    44    1
    99   130   131    1
   100   132   131   ar
   101   131   133   ar
   102   105   106    2
   103    47    44    1
   104    47    48    1
   105    45    44    1
   106    45    46    2
   107    82    83    2
   108    48    79    1
   109   117   116    2
   110   102   101    1
   111   114   115    1
   112   116   115    1
   113   100   101   ar
   114   100    98   ar
   115    74    75    1
   116   118   115    1
   117   118   119    1
   118    90    87    1
   119    79    78    1
   120    78    75    1
   121   101    99   ar
   122   121   119   ar
   123   121   123   ar
   124    77    76    2
   125    98    96   ar
   126    75    76    1
   127    86    87    1
   128   119   120   ar
   129    87    88    1
   130    99    97   ar
   131   123   124   ar
   132    96    97   ar
   133    96    95    1
   134    88    91   am
   135    88    89    2
   136   120   122   ar
   137    91    92    1
   138   124   122   ar
   139   124   125    1
   140    95    92    1
   141    92    93    1
   142    93    94    2
