@<TRIPOS>MOLECULE
tmp/3h55B03.pdb
 82 78 0 0 0
SMALL
GASTEIGER

@<TRIPOS>ATOM
      1  N         15.5050  -22.0550   29.9680 N.3   110  CYS110     -0.1235
      2  CA        16.4080  -20.9180   30.1340 C.3   110  CYS110      0.1677
      3  C         15.8920  -19.6610   29.4330 C.2   110  CYS110      0.2270
      4  O         16.1330  -18.5530   29.8970 O.2   110  CYS110     -0.2867
      5  CB        17.8230  -21.2650   29.6830 C.3   110  CYS110      0.0956
      6  SG        18.5340  -22.6720   30.5730 S.3   110  CYS110     -0.0801
      7  N         17.5210  -29.5950   30.1060 N.3   139  ASP139     -0.1239
      8  CA        18.2320  -28.4760   30.6950 C.3   139  ASP139      0.1674
      9  C         17.8780  -28.3440   32.1770 C.2   139  ASP139      0.2266
     10  O         16.9330  -28.9820   32.6510 O.2   139  ASP139     -0.2867
     11  CB        17.8400  -27.2060   29.9500 C.3   139  ASP139      0.1410
     12  CG        18.9610  -26.1990   29.8780 C.2   139  ASP139      0.3668
     13  OD1       19.9180  -26.2840   30.6820 O.co2 139  ASP139     -0.2456
     14  OD2       18.8760  -25.3230   28.9940 O.co2 139  ASP139     -0.2456
     15  N         17.7310  -25.0300   34.0420 N.3   141  CYS141     -0.1235
     16  CA        17.4430  -23.6630   34.4870 C.3   141  CYS141      0.1677
     17  C         16.2360  -23.6240   35.4210 C.2   141  CYS141      0.2270
     18  O         15.3830  -24.5160   35.3840 O.2   141  CYS141     -0.2867
     19  CB        17.2020  -22.7280   33.2960 C.3   141  CYS141      0.0956
     20  SG        18.6960  -22.0630   32.5090 S.3   141  CYS141     -0.0801
     21  N         22.0080  -32.0260   31.3780 N.3   171  SER171     -0.1217
     22  CA        22.8380  -30.8500   31.6280 C.3   171  SER171      0.1889
     23  C         23.1600  -30.7300   33.1070 C.2   171  SER171      0.2288
     24  O         23.8470  -29.7950   33.5370 O.2   171  SER171     -0.2866
     25  CB        22.1410  -29.5900   31.1260 C.3   171  SER171      0.2089
     26  OG        21.7120  -29.7620   29.7850 O.3   171  SER171     -0.2183
     27  N         26.6130  -29.6120   34.5940 N.3   174  ALA174     -0.1231
     28  CA        26.9840  -28.2250   34.2770 C.3   174  ALA174      0.1694
     29  C         26.4520  -27.2180   35.2970 C.2   174  ALA174      0.2592
     30  O         27.0570  -26.1640   35.5170 O.2   174  ALA174     -0.2718
     31  CB        26.5170  -27.8510   32.8770 C.3   174  ALA174      0.0304
     32  N         25.3220  -27.5480   35.9120 N.am  175  TYR175     -0.1976
     33  CA        24.7230  -26.6990   36.9330 C.3   175  TYR175      0.1639
     34  C         25.3470  -26.9260   38.3070 C.2   175  TYR175      0.2290
     35  O         25.0680  -26.1860   39.2520 O.2   175  TYR175     -0.2864
     36  CB        23.2050  -26.8940   36.9640 C.3   175  TYR175      0.0560
     37  CG        22.5430  -26.2860   35.7560 C.ar  175  TYR175     -0.0198
     38  CD1       22.0890  -24.9690   35.7780 C.ar  175  TYR175     -0.0009
     39  CD2       22.4020  -27.0140   34.5780 C.ar  175  TYR175     -0.0009
     40  CE1       21.4960  -24.3970   34.6610 C.ar  175  TYR175      0.0417
     41  CE2       21.8160  -26.4520   33.4540 C.ar  175  TYR175      0.0417
     42  CZ        21.3660  -25.1450   33.5030 C.ar  175  TYR175      0.1957
     43  OH        20.7830  -24.5860   32.3950 O.3   175  TYR175     -0.2866
     44  N         26.1870  -32.5240   29.4560 N.3   196  ARG196     -0.1245
     45  CA        26.9260  -31.2830   29.3330 C.3   196  ARG196      0.1563
     46  C         27.6090  -31.0110   30.6690 C.2   196  ARG196      0.2260
     47  O         26.9360  -30.8110   31.6830 O.2   196  ARG196     -0.2867
     48  CB        25.9750  -30.1510   28.9330 C.3   196  ARG196      0.0307
     49  CG        25.5820  -30.1640   27.4390 C.3   196  ARG196      0.0489
     50  CD        26.6160  -29.4090   26.5860 C.3   196  ARG196      0.2205
     51  NE        27.0170  -28.1990   27.2950 N.pl3 196  ARG196     -0.0865
     52  CZ        26.3030  -27.0790   27.3340 C.cat 196  ARG196      0.5346
     53  NH1       25.1620  -26.9830   26.6520 N.pl3 196  ARG196      0.1354
     54  NH2       26.7360  -26.0560   28.0560 N.pl3 196  ARG196      0.1354
     55  N         29.9350  -28.5450   31.1900 N.3   198  TYR198     -0.1227
     56  CA        30.5790  -27.2370   31.2730 C.3   198  TYR198      0.1736
     57  C         29.8340  -26.1410   30.4970 C.2   198  TYR198      0.2595
     58  O         28.6960  -26.3420   30.0620 O.2   198  TYR198     -0.2718
     59  CB        32.0540  -27.3820   30.8280 C.3   198  TYR198      0.0548
     60  CG        32.9600  -26.2210   31.1770 C.ar  198  TYR198     -0.0200
     61  CD1       33.1230  -25.8040   32.5000 C.ar  198  TYR198     -0.0009
     62  CD2       33.6680  -25.5460   30.1790 C.ar  198  TYR198     -0.0009
     63  CE1       33.9550  -24.7330   32.8150 C.ar  198  TYR198      0.0417
     64  CE2       34.5040  -24.4750   30.4880 C.ar  198  TYR198      0.0417
     65  CZ        34.6430  -24.0780   31.8020 C.ar  198  TYR198      0.1957
     66  OH        35.4700  -23.0170   32.1030 O.3   198  TYR198     -0.2866
     67  N         30.4840  -24.9870   30.3400 N.am  199  ASP199     -0.1960
     68  CA        29.8780  -23.7700   29.7820 C.3   199  ASP199      0.1840
     69  C         29.3290  -23.9540   28.3810 C.2   199  ASP199      0.2622
     70  O         29.8630  -24.7400   27.5960 O.2   199  ASP199     -0.2715
     71  CB        30.9000  -22.6310   29.7360 C.3   199  ASP199      0.1450
     72  CG        31.4250  -22.2500   31.1050 C.2   199  ASP199      0.3671
     73  OD1       30.8240  -22.6600   32.1200 O.co2 199  ASP199     -0.2456
     74  OD2       32.4450  -21.5300   31.1570 O.co2 199  ASP199     -0.2456
     75  N         28.2670  -23.2140   28.0790 N.am  200  ASP200     -0.1971
     76  CA        27.7500  -23.1150   26.7150 C.3   200  ASP200      0.1709
     77  C         28.8600  -22.6340   25.7970 C.2   200  ASP200      0.2293
     78  O         29.5810  -21.6820   26.1230 O.2   200  ASP200     -0.2864
     79  CB        26.6070  -22.1040   26.6410 C.3   200  ASP200      0.1436
     80  CG        25.3170  -22.6100   27.2570 C.2   200  ASP200      0.3671
     81  OD1       25.3130  -23.6720   27.9180 O.co2 200  ASP200     -0.2456
     82  OD2       24.2960  -21.9170   27.0800 O.co2 200  ASP200     -0.2456
@<TRIPOS>BOND
     1    77    78    2
     2    77    76    1
     3    50    51    1
     4    50    49    1
     5    79    76    1
     6    79    80    1
     7    53    52    1
     8    76    75    1
     9    82    80   ar
    10    80    81   ar
    11    51    52    2
    12    52    54    1
    13    49    48    1
    14    70    69    2
    15    75    69   am
    16    69    68    1
    17    48    45    1
    18    14    12   ar
    19    45    44    1
    20    45    46    1
    21     3     4    2
    22     3     2    1
    23     5     2    1
    24     5     6    1
    25    71    68    1
    26    71    72    1
    27    68    67    1
    28    26    25    1
    29    12    11    1
    30    12    13   ar
    31    11     8    1
    32     1     2    1
    33    58    57    2
    34     7     8    1
    35    62    64   ar
    36    62    60   ar
    37    67    57   am
    38    64    65   ar
    39    57    56    1
    40     6    20    1
    41    46    47    2
    42     8     9    1
    43    59    60    1
    44    59    56    1
    45    72    74   ar
    46    72    73   ar
    47    25    22    1
    48    60    61   ar
    49    55    56    1
    50    21    22    1
    51    22    23    1
    52    65    66    1
    53    65    63   ar
    54     9    10    2
    55    43    42    1
    56    61    63   ar
    57    20    19    1
    58    31    28    1
    59    23    24    2
    60    19    16    1
    61    41    42   ar
    62    41    39   ar
    63    42    40   ar
    64    15    16    1
    65    28    27    1
    66    28    29    1
    67    16    17    1
    68    39    37   ar
    69    40    38   ar
    70    29    30    2
    71    29    32   am
    72    18    17    2
    73    37    38   ar
    74    37    36    1
    75    32    33    1
    76    33    36    1
    77    33    34    1
    78    34    35    2
