@<TRIPOS>MOLECULE
tmp/3h55B02.pdb
 126 119 0 0 0
SMALL
GASTEIGER

@<TRIPOS>ATOM
      1  N         20.3820  -24.7930   18.3550 N.3    16  TRP16      -0.1241
      2  CA        20.6570  -23.6840   19.2720 C.3    16  TRP16       0.1605
      3  C         21.7560  -22.6980   18.8770 C.2    16  TRP16       0.2264
      4  O         21.4900  -21.5050   18.7520 O.2    16  TRP16      -0.2867
      5  CB        20.9040  -24.1700   20.7060 C.3    16  TRP16       0.0550
      6  CG        21.0980  -23.0240   21.6460 C.ar   16  TRP16       0.0003
      7  CD1       22.2610  -22.6610   22.2740 C.ar   16  TRP16       0.0946
      8  CD2       20.1130  -22.0580   22.0360 C.ar   16  TRP16       0.0152
      9  NE1       22.0530  -21.5430   23.0410 N.ar   16  TRP16      -0.2442
     10  CE2       20.7450  -21.1500   22.9120 C.ar   16  TRP16       0.0810
     11  CE3       18.7530  -21.8790   21.7400 C.ar   16  TRP16       0.0012
     12  CZ2       20.0660  -20.0760   23.4990 C.ar   16  TRP16       0.0191
     13  CZ3       18.0770  -20.8090   22.3270 C.ar   16  TRP16       0.0001
     14  CH2       18.7390  -19.9210   23.1950 C.ar   16  TRP16       0.0015
     15  N         15.8470  -27.3320   19.8830 N.3    61  ASP61      -0.1225
     16  CA        16.2940  -26.8490   21.1920 C.3    61  ASP61       0.1805
     17  C         15.2010  -25.9600   21.7990 C.2    61  ASP61       0.2597
     18  O         14.0190  -26.1640   21.5200 O.2    61  ASP61      -0.2718
     19  CB        17.6560  -26.1420   21.0970 C.3    61  ASP61       0.1424
     20  CG        18.4360  -26.1690   22.4180 C.2    61  ASP61       0.3668
     21  OD1       18.2820  -25.2340   23.2310 O.co2  61  ASP61      -0.2456
     22  OD2       19.2250  -27.1110   22.6400 O.co2  61  ASP61      -0.2456
     23  N         15.5900  -25.0000   22.6350 N.am   62  ASP62      -0.1974
     24  CA        14.6560  -24.1100   23.3290 C.3    62  ASP62       0.1709
     25  C         13.7500  -23.3190   22.3700 C.2    62  ASP62       0.2293
     26  O         14.0310  -23.2190   21.1710 O.2    62  ASP62      -0.2864
     27  CB        15.4490  -23.1430   24.2140 C.3    62  ASP62       0.1436
     28  CG        14.6790  -22.6790   25.4420 C.2    62  ASP62       0.3671
     29  OD1       13.4320  -22.7920   25.4680 O.co2  62  ASP62      -0.2456
     30  OD2       15.3400  -22.1960   26.3940 O.co2  62  ASP62      -0.2456
     31  N         13.7970  -30.6980   23.2830 N.3   102  TYR102     -0.1241
     32  CA        14.3670  -29.9860   24.4160 C.3   102  TYR102      0.1605
     33  C         13.2930  -29.7640   25.4650 C.2   102  TYR102      0.2264
     34  O         12.1420  -29.4690   25.1400 O.2   102  TYR102     -0.2867
     35  CB        14.9250  -28.6400   23.9390 C.3   102  TYR102      0.0534
     36  CG        15.3480  -27.6700   25.0250 C.ar  102  TYR102     -0.0201
     37  CD1       16.6890  -27.5530   25.4020 C.ar  102  TYR102     -0.0009
     38  CD2       14.4130  -26.8500   25.6600 C.ar  102  TYR102     -0.0009
     39  CE1       17.0830  -26.6520   26.3930 C.ar  102  TYR102      0.0417
     40  CE2       14.7960  -25.9570   26.6520 C.ar  102  TYR102      0.0417
     41  CZ        16.1290  -25.8640   27.0140 C.ar  102  TYR102      0.1957
     42  OH        16.5030  -24.9740   27.9910 O.3   102  TYR102     -0.2866
     43  N         15.5050  -22.0550   29.9680 N.3   110  CYS110     -0.1221
     44  CA        16.4080  -20.9180   30.1340 C.3   110  CYS110      0.1808
     45  C         15.8920  -19.6610   29.4330 C.2   110  CYS110      0.2601
     46  O         16.1330  -18.5530   29.8970 O.2   110  CYS110     -0.2717
     47  CB        17.8230  -21.2650   29.6830 C.3   110  CYS110      0.0970
     48  SG        18.5340  -22.6720   30.5730 S.3   110  CYS110     -0.0800
     49  N         15.1600  -19.8380   28.3340 N.am  111  MET111     -0.1979
     50  CA        14.5420  -18.7070   27.6380 C.3   111  MET111      0.1605
     51  C         13.1440  -18.3380   28.1600 C.2   111  MET111      0.2287
     52  O         12.4710  -17.4790   27.5820 O.2   111  MET111     -0.2864
     53  CB        14.5180  -18.9390   26.1200 C.3   111  MET111      0.0413
     54  CG        15.8850  -18.8150   25.4450 C.3   111  MET111      0.0598
     55  SD        16.7550  -17.2780   25.8350 S.3   111  MET111     -0.1393
     56  CE        15.7270  -16.0600   25.0200 C.3   111  MET111      0.0692
     57  N         16.9690  -33.5920   25.2600 N.3   137  LYS137     -0.1245
     58  CA        17.9390  -32.7590   25.9820 C.3   137  LYS137      0.1561
     59  C         17.2130  -32.0990   27.1490 C.2   137  LYS137      0.2260
     60  O         16.2620  -31.3400   26.9450 O.2   137  LYS137     -0.2867
     61  CB        18.5560  -31.7040   25.0520 C.3   137  LYS137      0.0271
     62  CG        19.5150  -30.7200   25.7350 C.3   137  LYS137      0.0035
     63  CD        20.1360  -29.7710   24.7090 C.3   137  LYS137      0.0206
     64  CE        20.9050  -28.6360   25.3750 C.3   137  LYS137      0.1093
     65  NZ        21.4510  -27.6750   24.3710 N.3   137  LYS137     -0.1314
     66  N         17.5210  -29.5950   30.1060 N.3   139  ASP139     -0.1239
     67  CA        18.2320  -28.4760   30.6950 C.3   139  ASP139      0.1674
     68  C         17.8780  -28.3440   32.1770 C.2   139  ASP139      0.2266
     69  O         16.9330  -28.9820   32.6510 O.2   139  ASP139     -0.2867
     70  CB        17.8400  -27.2060   29.9500 C.3   139  ASP139      0.1410
     71  CG        18.9610  -26.1990   29.8780 C.2   139  ASP139      0.3668
     72  OD1       19.9180  -26.2840   30.6820 O.co2 139  ASP139     -0.2456
     73  OD2       18.8760  -25.3230   28.9940 O.co2 139  ASP139     -0.2456
     74  N         22.0080  -32.0260   31.3780 N.3   171  SER171     -0.1217
     75  CA        22.8380  -30.8500   31.6280 C.3   171  SER171      0.1889
     76  C         23.1600  -30.7300   33.1070 C.2   171  SER171      0.2288
     77  O         23.8470  -29.7950   33.5370 O.2   171  SER171     -0.2866
     78  CB        22.1410  -29.5900   31.1260 C.3   171  SER171      0.2089
     79  OG        21.7120  -29.7620   29.7850 O.3   171  SER171     -0.2183
     80  N         25.3220  -27.5480   35.9120 N.3   175  TYR175     -0.1241
     81  CA        24.7230  -26.6990   36.9330 C.3   175  TYR175      0.1605
     82  C         25.3470  -26.9260   38.3070 C.2   175  TYR175      0.2264
     83  O         25.0680  -26.1860   39.2520 O.2   175  TYR175     -0.2867
     84  CB        23.2050  -26.8940   36.9640 C.3   175  TYR175      0.0534
     85  CG        22.5430  -26.2860   35.7560 C.ar  175  TYR175     -0.0201
     86  CD1       22.0890  -24.9690   35.7780 C.ar  175  TYR175     -0.0009
     87  CD2       22.4020  -27.0140   34.5780 C.ar  175  TYR175     -0.0009
     88  CE1       21.4960  -24.3970   34.6610 C.ar  175  TYR175      0.0417
     89  CE2       21.8160  -26.4520   33.4540 C.ar  175  TYR175      0.0417
     90  CZ        21.3660  -25.1450   33.5030 C.ar  175  TYR175      0.1957
     91  OH        20.7830  -24.5860   32.3950 O.3   175  TYR175     -0.2866
     92  N         26.1870  -32.5240   29.4560 N.3   196  ARG196     -0.1245
     93  CA        26.9260  -31.2830   29.3330 C.3   196  ARG196      0.1563
     94  C         27.6090  -31.0110   30.6690 C.2   196  ARG196      0.2260
     95  O         26.9360  -30.8110   31.6830 O.2   196  ARG196     -0.2867
     96  CB        25.9750  -30.1510   28.9330 C.3   196  ARG196      0.0307
     97  CG        25.5820  -30.1640   27.4390 C.3   196  ARG196      0.0489
     98  CD        26.6160  -29.4090   26.5860 C.3   196  ARG196      0.2205
     99  NE        27.0170  -28.1990   27.2950 N.pl3 196  ARG196     -0.0865
    100  CZ        26.3030  -27.0790   27.3340 C.cat 196  ARG196      0.5346
    101  NH1       25.1620  -26.9830   26.6520 N.pl3 196  ARG196      0.1354
    102  NH2       26.7360  -26.0560   28.0560 N.pl3 196  ARG196      0.1354
    103  N         28.2670  -23.2140   28.0790 N.3   200  ASP200     -0.1239
    104  CA        27.7500  -23.1150   26.7150 C.3   200  ASP200      0.1674
    105  C         28.8600  -22.6340   25.7970 C.2   200  ASP200      0.2266
    106  O         29.5810  -21.6820   26.1230 O.2   200  ASP200     -0.2867
    107  CB        26.6070  -22.1040   26.6410 C.3   200  ASP200      0.1410
    108  CG        25.3170  -22.6100   27.2570 C.2   200  ASP200      0.3668
    109  OD1       25.3130  -23.6720   27.9180 O.co2 200  ASP200     -0.2456
    110  OD2       24.2960  -21.9170   27.0800 O.co2 200  ASP200     -0.2456
    111  N         29.8320  -29.6530   24.1530 N.3   235  ASP235     -0.1225
    112  CA        28.8760  -28.7870   23.4410 C.3   235  ASP235      0.1805
    113  C         29.1110  -28.8070   21.9270 C.2   235  ASP235      0.2597
    114  O         29.9940  -29.5230   21.4330 O.2   235  ASP235     -0.2718
    115  CB        28.8150  -27.3510   24.0170 C.3   235  ASP235      0.1424
    116  CG        27.4280  -26.7140   23.8950 C.2   235  ASP235      0.3668
    117  OD1       26.5150  -27.3310   23.2930 O.co2 235  ASP235     -0.2456
    118  OD2       27.2430  -25.5830   24.3990 O.co2 235  ASP235     -0.2456
    119  N         28.3110  -28.0190   21.2110 N.am  236  MET236     -0.1979
    120  CA        28.1920  -28.0770   19.7540 C.3   236  MET236      0.1605
    121  C         29.4450  -27.6850   18.9630 C.2   236  MET236      0.2287
    122  O         30.3110  -26.9360   19.4360 O.2   236  MET236     -0.2864
    123  CB        27.0150  -27.2040   19.2980 C.3   236  MET236      0.0413
    124  CG        25.6350  -27.7220   19.6990 C.3   236  MET236      0.0598
    125  SD        24.3770  -26.4150   19.6780 S.3   236  MET236     -0.1393
    126  CE        24.8410  -25.5070   21.1620 C.3   236  MET236      0.0692
@<TRIPOS>BOND
     1     1     2    1
     2     4     3    2
     3     3     2    1
     4   121   122    2
     5   121   120    1
     6     2     5    1
     7   123   124    1
     8   123   120    1
     9   125   124    1
    10   125   126    1
    11   120   119    1
    12    15    16    1
    13     5     6    1
    14    19    16    1
    15    19    20    1
    16    26    25    2
    17    16    17    1
    18   119   113   am
    19   114   113    2
    20    18    17    2
    21     6     8   ar
    22     6     7   ar
    23    11     8   ar
    24    11    13   ar
    25    17    23   am
    26   113   112    1
    27     8    10   ar
    28     7     9   ar
    29    13    14   ar
    30    25    24    1
    31    20    22   ar
    32    20    21   ar
    33    23    24    1
    34    10     9   ar
    35    10    12   ar
    36    14    12   ar
    37    31    32    1
    38   117   116   ar
    39    24    27    1
    40   112   115    1
    41   112   111    1
    42   116   115    1
    43   116   118   ar
    44    35    32    1
    45    35    36    1
    46    27    28    1
    47    65    64    1
    48    32    33    1
    49    63    64    1
    50    63    62    1
    51    56    55    1
    52    36    37   ar
    53    36    38   ar
    54    61    62    1
    55    61    58    1
    56    34    33    2
    57    57    58    1
    58    37    39   ar
    59    28    29   ar
    60    28    30   ar
    61    54    55    1
    62    54    53    1
    63    38    40   ar
    64   105   106    2
    65   105   104    1
    66    58    59    1
    67    53    50    1
    68    39    41   ar
    69    98    99    1
    70    98    97    1
    71   107   104    1
    72   107   108    1
    73    40    41   ar
    74   101   100    1
    75   104   103    1
    76    60    59    2
    77    41    42    1
    78   110   108   ar
    79   108   109   ar
    80    99   100    2
    81   100   102    1
    82    97    96    1
    83    52    51    2
    84    50    51    1
    85    50    49    1
    86    49    45   am
    87    96    93    1
    88    73    71   ar
    89    93    92    1
    90    93    94    1
    91    45    46    2
    92    45    44    1
    93    47    44    1
    94    47    48    1
    95    79    78    1
    96    71    70    1
    97    71    72   ar
    98    70    67    1
    99    43    44    1
   100    66    67    1
   101    94    95    2
   102    67    68    1
   103    78    75    1
   104    74    75    1
   105    75    76    1
   106    68    69    2
   107    91    90    1
   108    76    77    2
   109    89    90   ar
   110    89    87   ar
   111    90    88   ar
   112    87    85   ar
   113    88    86   ar
   114    85    86   ar
   115    85    84    1
   116    80    81    1
   117    81    84    1
   118    81    82    1
   119    82    83    2
