@<TRIPOS>MOLECULE
tmp/3h59B00.pdb
 223 212 0 0 0
SMALL
GASTEIGER

@<TRIPOS>ATOM
      1  N         19.1220   13.1010   -0.3210 N.3   153  ARG153     -0.1245
      2  CA        20.1690   12.5960   -1.1970 C.3   153  ARG153      0.1563
      3  C         19.6000   11.3500   -1.9070 C.2   153  ARG153      0.2260
      4  O         18.6540   10.7380   -1.4330 O.2   153  ARG153     -0.2867
      5  CB        21.4400   12.2500   -0.3950 C.3   153  ARG153      0.0307
      6  CG        22.1460   13.4740    0.2320 C.3   153  ARG153      0.0489
      7  CD        23.5850   13.1630    0.6900 C.3   153  ARG153      0.2205
      8  NE        23.6600   12.0420    1.6450 N.pl3 153  ARG153     -0.0865
      9  CZ        24.7930   11.4980    2.1070 C.cat 153  ARG153      0.5346
     10  NH1       25.9900   11.9480    1.7210 N.pl3 153  ARG153      0.1354
     11  NH2       24.7310   10.4790    2.9580 N.pl3 153  ARG153      0.1354
     12  N         41.0410    5.9300    4.8080 N.3   188  PHE188     -0.1241
     13  CA        40.1790    4.9310    5.4340 C.3   188  PHE188      0.1605
     14  C         40.9900    3.8200    6.1400 C.2   188  PHE188      0.2264
     15  O         40.4170    2.9270    6.7700 O.2   188  PHE188     -0.2867
     16  CB        39.1910    4.3180    4.4020 C.3   188  PHE188      0.0534
     17  CG        38.1110    5.2800    3.8850 C.ar  188  PHE188     -0.0203
     18  CD1       37.2150    5.8940    4.7510 C.ar  188  PHE188     -0.0042
     19  CD2       37.9590    5.5080    2.5170 C.ar  188  PHE188     -0.0042
     20  CE1       36.2170    6.7520    4.2680 C.ar  188  PHE188     -0.0003
     21  CE2       36.9740    6.3510    2.0280 C.ar  188  PHE188     -0.0003
     22  CZ        36.0980    6.9710    2.8930 C.ar  188  PHE188     -0.0000
     23  N         40.4770    6.9090   14.4400 N.3   192  PRO192     -0.2116
     24  CA        40.5210    8.3370   14.7720 C.3   192  PRO192      0.1372
     25  C         41.8640    8.8400   15.3470 C.2   192  PRO192      0.2244
     26  O         42.3220    9.9290   15.0010 O.2   192  PRO192     -0.2868
     27  CB        39.4050    8.4860   15.8030 C.3   192  PRO192      0.0268
     28  CG        38.4730    7.3750   15.5140 C.3   192  PRO192      0.0207
     29  CD        39.3360    6.2310   15.0800 C.3   192  PRO192      0.0892
     30  N         44.3320    9.0700   12.5740 N.3   195  ARG195     -0.1245
     31  CA        43.9890   10.1780   11.6820 C.3   195  ARG195      0.1563
     32  C         44.3940   11.5280   12.2820 C.2   195  ARG195      0.2260
     33  O         44.9260   12.3590   11.5680 O.2   195  ARG195     -0.2867
     34  CB        42.4880   10.2080   11.3330 C.3   195  ARG195      0.0307
     35  CG        42.1460   11.1850   10.2280 C.3   195  ARG195      0.0489
     36  CD        40.6400   11.4460   10.0710 C.3   195  ARG195      0.2205
     37  NE        40.4140   12.6250    9.2340 N.pl3 195  ARG195     -0.0865
     38  CZ        40.3440   12.6060    7.8950 C.cat 195  ARG195      0.5346
     39  NH1       40.4550   11.4920    7.2110 N.pl3 195  ARG195      0.1354
     40  NH2       40.1640   13.7280    7.2280 N.pl3 195  ARG195      0.1354
     41  N         29.7800   12.5350   -7.3000 N.3   220  ASP220     -0.1239
     42  CA        29.2870   11.4110   -8.1010 C.3   220  ASP220      0.1674
     43  C         28.8870   11.8510   -9.4880 C.2   220  ASP220      0.2266
     44  O         29.2370   11.1910  -10.4400 O.2   220  ASP220     -0.2867
     45  CB        28.0990   10.7150   -7.4260 C.3   220  ASP220      0.1410
     46  CG        28.5000   10.0010   -6.1480 C.2   220  ASP220      0.3668
     47  OD1       29.7310    9.8980   -5.8700 O.co2 220  ASP220     -0.2456
     48  OD2       27.5920    9.5640   -5.4200 O.co2 220  ASP220     -0.2456
     49  N         31.9530    2.3520   -5.2540 N.3   282  THR282     -0.1203
     50  CA        31.7370    3.7830   -5.0860 C.3   282  THR282      0.1994
     51  C         32.8690    4.4660   -4.3030 C.2   282  THR282      0.2618
     52  O         33.3810    5.5050   -4.7160 O.2   282  THR282     -0.2717
     53  CB        30.4240    4.0830   -4.3780 C.3   282  THR282      0.1784
     54  OG1       29.3520    3.4890   -5.1060 O.3   282  THR282     -0.2211
     55  CG2       30.2130    5.5920   -4.2840 C.3   282  THR282      0.0376
     56  N         33.2490    3.8770   -3.1710 N.am  283  SER283     -0.1951
     57  CA        34.2540    4.4890   -2.2910 C.3   283  SER283      0.1924
     58  C         35.6270    4.4330   -2.9310 C.2   283  SER283      0.2314
     59  O         36.3330    5.4170   -2.9340 O.2   283  SER283     -0.2863
     60  CB        34.2930    3.8080   -0.9110 C.3   283  SER283      0.2116
     61  OG        35.3400    4.3180   -0.1020 O.3   283  SER283     -0.2180
     62  N         35.7410    6.5600   -6.2340 N.3   286  ASN286     -0.1240
     63  CA        35.7770    7.9790   -5.8950 C.3   286  ASN286      0.1653
     64  C         37.1230    8.3640   -5.2960 C.2   286  ASN286      0.2266
     65  O         37.6190    9.4260   -5.5860 O.2   286  ASN286     -0.2867
     66  CB        34.6690    8.3630   -4.9270 C.3   286  ASN286      0.1155
     67  CG        33.3260    8.5600   -5.6030 C.2   286  ASN286      0.2627
     68  OD1       33.1880    8.4390   -6.8300 O.2   286  ASN286     -0.2716
     69  ND2       32.3140    8.8950   -4.7890 N.am  286  ASN286     -0.0877
     70  N         39.5850   10.6370    1.4210 N.3   311  ASN311     -0.1225
     71  CA        38.5300    9.7020    1.8090 C.3   311  ASN311      0.1785
     72  C         37.3750    9.7770    0.8230 C.2   311  ASN311      0.2598
     73  O         36.4870   10.6130    0.9810 O.2   311  ASN311     -0.2718
     74  CB        38.0040   10.0730    3.1930 C.3   311  ASN311      0.1169
     75  CG        39.0290    9.8730    4.2860 C.2   311  ASN311      0.2627
     76  OD1       40.0330   10.6010    4.3650 O.2   311  ASN311     -0.2716
     77  ND2       38.7760    8.8910    5.1530 N.am  311  ASN311     -0.0877
     78  N         37.3800    8.9230   -0.2060 N.am  312  GLY312     -0.1942
     79  CA        36.4460    9.0800   -1.3130 C.3   312  GLY312      0.2014
     80  C         36.5350   10.4530   -1.9380 C.2   312  GLY312      0.2639
     81  O         37.6040   10.8680   -2.4040 O.2   312  GLY312     -0.2714
     82  N         35.4060   11.1570   -1.9790 N.am  313  ASP313     -0.1957
     83  CA        35.3710   12.5330   -2.4300 C.3   313  ASP313      0.1840
     84  C         35.8390   13.5490   -1.3820 C.2   313  ASP313      0.2622
     85  O         35.8970   14.7230   -1.6870 O.2   313  ASP313     -0.2715
     86  CB        33.9610   12.9020   -2.9370 C.3   313  ASP313      0.1450
     87  CG        32.8620   12.7840   -1.8710 C.2   313  ASP313      0.3671
     88  OD1       33.0990   12.3330   -0.7330 O.co2 313  ASP313     -0.2456
     89  OD2       31.7260   13.1630   -2.1980 O.co2 313  ASP313     -0.2456
     90  N         36.1610   13.1280   -0.1610 N.am  314  ASP314     -0.1971
     91  CA        36.5970   14.0730    0.8530 C.3   314  ASP314      0.1709
     92  C         38.1130   14.2770    0.7120 C.2   314  ASP314      0.2293
     93  O         38.8960   13.3060    0.7740 O.2   314  ASP314     -0.2864
     94  CB        36.2370   13.6090    2.2740 C.3   314  ASP314      0.1436
     95  CG        36.4520   14.7100    3.3180 C.2   314  ASP314      0.3671
     96  OD1       37.6330   15.0500    3.6320 O.co2 314  ASP314     -0.2456
     97  OD2       35.4460   15.2410    3.8260 O.co2 314  ASP314     -0.2456
     98  N         36.4970   15.3540    6.6030 N.3   361  CYS361     -0.1221
     99  CA        35.6370   14.2700    7.0880 C.3   361  CYS361      0.1808
    100  C         34.7220   14.8140    8.1920 C.2   361  CYS361      0.2602
    101  O         34.5760   14.2120    9.2540 O.2   361  CYS361     -0.2717
    102  CB        36.4730   13.0870    7.5790 C.3   361  CYS361      0.0970
    103  SG        36.9640   11.9580    6.2650 S.3   361  CYS361     -0.0800
    104  N         34.1710   16.0030    7.9310 N.am  362  SER362     -0.1938
    105  CA        33.2190   16.6840    8.8030 C.3   362  SER362      0.2055
    106  C         33.7590   17.0100   10.1860 C.2   362  SER362      0.2643
    107  O         32.9890   17.2660   11.0980 O.2   362  SER362     -0.2714
    108  CB        31.9370   15.8470    8.9270 C.3   362  SER362      0.2130
    109  OG        31.3920   15.6390    7.6440 O.3   362  SER362     -0.2179
    110  N         35.0800   17.0130   10.3170 N.am  363  SER363     -0.1949
    111  CA        35.7450   17.0420   11.6160 C.3   363  SER363      0.1924
    112  C         36.9520   18.0200   11.5920 C.2   363  SER363      0.2314
    113  O         37.6280   18.1410   10.5750 O.2   363  SER363     -0.2863
    114  CB        36.2320   15.6340   12.0060 C.3   363  SER363      0.2116
    115  OG        35.2030   14.6470   12.0100 O.3   363  SER363     -0.2180
    116  N         39.9400   14.8340   17.4060 N.3   379  LEU379     -0.1245
    117  CA        38.9960   15.2910   16.3760 C.3   379  LEU379      0.1561
    118  C         37.5810   15.4610   16.9020 C.2   379  LEU379      0.2260
    119  O         37.0470   14.5930   17.5940 O.2   379  LEU379     -0.2867
    120  CB        38.9620   14.3220   15.1790 C.3   379  LEU379      0.0270
    121  CG        40.1640   14.3980   14.2310 C.3   379  LEU379      0.0019
    122  CD1       40.2740   13.1190   13.3620 C.3   379  LEU379      0.0001
    123  CD2       40.0800   15.6580   13.3790 C.3   379  LEU379      0.0001
    124  N         33.6120   17.9240   16.1310 N.3   381  ARG381     -0.1245
    125  CA        32.7840   18.6370   15.1880 C.3   381  ARG381      0.1563
    126  C         31.6840   19.4040   15.9210 C.2   381  ARG381      0.2260
    127  O         31.4480   19.2050   17.1240 O.2   381  ARG381     -0.2867
    128  CB        32.1840   17.6600   14.1480 C.3   381  ARG381      0.0307
    129  CG        31.3360   16.5310   14.7320 C.3   381  ARG381      0.0489
    130  CD        30.5300   15.8090   13.6560 C.3   381  ARG381      0.2205
    131  NE        29.4460   16.6670   13.1790 N.pl3 381  ARG381     -0.0865
    132  CZ        28.8570   16.5520   11.9880 C.cat 381  ARG381      0.5346
    133  NH1       29.1980   15.5980   11.1330 N.pl3 381  ARG381      0.1354
    134  NH2       27.9190   17.4060   11.6500 N.pl3 381  ARG381      0.1354
    135  N         23.1920    5.9700   14.6560 N.3   402  SER402     -0.1217
    136  CA        24.2210    6.9970   14.5050 C.3   402  SER402      0.1889
    137  C         24.8130    7.4150   15.8580 C.2   402  SER402      0.2288
    138  O         25.9850    7.7750   15.9280 O.2   402  SER402     -0.2866
    139  CB        23.7180    8.2020   13.6950 C.3   402  SER402      0.2089
    140  OG        23.0070    9.1540   14.4810 O.3   402  SER402     -0.2183
    141  N         27.7390    5.0550   16.6520 N.3   405  GLY405     -0.1210
    142  CA        28.9000    5.4110   15.8290 C.3   405  GLY405      0.1956
    143  C         29.5740    6.6890   16.2800 C.2   405  GLY405      0.2611
    144  O         30.8030    6.8150   16.2110 O.2   405  GLY405     -0.2717
    145  N         28.7700    7.6550   16.7130 N.am  406  ASN406     -0.1974
    146  CA        29.2950    8.9340   17.1830 C.3   406  ASN406      0.1688
    147  C         30.0400    8.8590   18.5090 C.2   406  ASN406      0.2292
    148  O         31.0340    9.5590   18.6930 O.2   406  ASN406     -0.2864
    149  CB        28.1840    9.9980   17.2420 C.3   406  ASN406      0.1181
    150  CG        27.9160   10.6100   15.9000 C.2   406  ASN406      0.2629
    151  OD1       28.8540   10.8850   15.1480 O.2   406  ASN406     -0.2716
    152  ND2       26.6400   10.8580   15.5870 N.am  406  ASN406     -0.0877
    153  N         33.4750    7.0890   17.4860 N.3   409  MET409     -0.1230
    154  CA        34.3920    7.8810   16.6950 C.3   409  MET409      0.1702
    155  C         34.7050    9.2360   17.3710 C.2   409  MET409      0.2592
    156  O         35.7900    9.7810   17.2000 O.2   409  MET409     -0.2718
    157  CB        33.8480    8.0660   15.2690 C.3   409  MET409      0.0401
    158  CG        33.7990    6.7820   14.4900 C.3   409  MET409      0.0596
    159  SD        35.4090    6.0370   14.1780 S.3   409  MET409     -0.1393
    160  CE        35.7300    6.6900   12.5240 C.3   409  MET409      0.0692
    161  N         33.7630    9.7520   18.1520 N.am  410  TYR410     -0.1976
    162  CA        33.9570   11.0140   18.8540 C.3   410  TYR410      0.1639
    163  C         34.0600   10.8760   20.3920 C.2   410  TYR410      0.2290
    164  O         33.7920   11.8230   21.1370 O.2   410  TYR410     -0.2864
    165  CB        32.8540   11.9650   18.4550 C.3   410  TYR410      0.0560
    166  CG        32.9180   12.4450   17.0150 C.ar  410  TYR410     -0.0198
    167  CD1       33.9770   13.2460   16.5790 C.ar  410  TYR410     -0.0009
    168  CD2       31.9100   12.1470   16.1150 C.ar  410  TYR410     -0.0009
    169  CE1       34.0340   13.7310   15.2780 C.ar  410  TYR410      0.0417
    170  CE2       31.9600   12.6160   14.7730 C.ar  410  TYR410      0.0417
    171  CZ        33.0250   13.4130   14.3730 C.ar  410  TYR410      0.1957
    172  OH        33.0950   13.9140   13.0910 O.3   410  TYR410     -0.2866
    173  N         27.2030    2.2330   11.5340 N.3   441  GLN441     -0.1231
    174  CA        28.1050    2.3510   10.3850 C.3   441  GLN441      0.1698
    175  C         29.3870    3.1210   10.7170 C.2   441  GLN441      0.2592
    176  O         29.3380    4.1400   11.4130 O.2   441  GLN441     -0.2718
    177  CB        27.4100    3.0130    9.2030 C.3   441  GLN441      0.0381
    178  CG        26.5440    2.0700    8.4280 C.3   441  GLN441      0.0905
    179  CD        25.9080    2.6970    7.2080 C.2   441  GLN441      0.2608
    180  OE1       25.5010    1.9930    6.2930 O.2   441  GLN441     -0.2717
    181  NE2       25.8110    4.0110    7.1880 N.am  441  GLN441     -0.0878
    182  N         30.5110    2.5920   10.2320 N.am  442  ILE442     -0.1966
    183  CA        31.8240    3.2370   10.3130 C.3   442  ILE442      0.1727
    184  C         32.5190    3.0850    8.9460 C.2   442  ILE442      0.2616
    185  O         32.6500    1.9770    8.4310 O.2   442  ILE442     -0.2715
    186  CB        32.7150    2.6650   11.4530 C.3   442  ILE442      0.0290
    187  CG1       32.0760    2.9610   12.8250 C.3   442  ILE442      0.0022
    188  CG2       34.1300    3.2690   11.3870 C.3   442  ILE442      0.0023
    189  CD1       32.7770    2.2600   13.9810 C.3   442  ILE442      0.0001
    190  N         32.9370    4.2160    8.3670 N.am  443  TYR443     -0.1960
    191  CA        33.5130    4.2290    7.0100 C.3   443  TYR443      0.1771
    192  C         32.6760    3.4500    5.9820 C.2   443  TYR443      0.2620
    193  O         33.2170    2.7140    5.1560 O.2   443  TYR443     -0.2715
    194  CB        34.9520    3.7210    7.0350 C.3   443  TYR443      0.0574
    195  CG        35.9320    4.5760    7.8010 C.ar  443  TYR443     -0.0198
    196  CD1       35.5840    5.8270    8.3140 C.ar  443  TYR443     -0.0009
    197  CD2       37.2490    4.1400    7.9740 C.ar  443  TYR443     -0.0009
    198  CE1       36.5070    6.6030    9.0060 C.ar  443  TYR443      0.0417
    199  CE2       38.1690    4.9070    8.6450 C.ar  443  TYR443      0.0417
    200  CZ        37.7970    6.1440    9.1490 C.ar  443  TYR443      0.1957
    201  OH        38.7230    6.8930    9.8230 O.3   443  TYR443     -0.2866
    202  N         31.3500    3.6380    6.0360 N.am  444  GLY444     -0.1954
    203  CA        30.4140    3.0540    5.0820 C.3   444  GLY444      0.1869
    204  C         29.9870    1.6140    5.3610 C.2   444  GLY444      0.2309
    205  O         29.0200    1.1470    4.7820 O.2   444  GLY444     -0.2863
    206  N         33.5840    1.9670    2.3670 N.3   550  TYR550     -0.1227
    207  CA        32.5800    1.1640    1.6480 C.3   550  TYR550      0.1736
    208  C         31.2340    1.8770    1.5070 C.2   550  TYR550      0.2596
    209  O         30.1810    1.2390    1.4800 O.2   550  TYR550     -0.2718
    210  CB        32.3690   -0.1950    2.3340 C.3   550  TYR550      0.0548
    211  CG        33.6020   -1.0720    2.5290 C.ar  550  TYR550     -0.0200
    212  CD1       34.0960   -1.8720    1.5000 C.ar  550  TYR550     -0.0009
    213  CD2       34.2520   -1.1290    3.7720 C.ar  550  TYR550     -0.0009
    214  CE1       35.2110   -2.6800    1.6950 C.ar  550  TYR550      0.0417
    215  CE2       35.3560   -1.9560    3.9740 C.ar  550  TYR550      0.0417
    216  CZ        35.8290   -2.7100    2.9430 C.ar  550  TYR550      0.1957
    217  OH        36.9210   -3.4990    3.1520 O.3   550  TYR550     -0.2866
    218  N         31.2450    3.1960    1.4060 N.am  551  SER551     -0.1952
    219  CA        29.9830    3.9270    1.2690 C.3   551  SER551      0.1924
    220  C         29.1680    3.4120    0.0810 C.2   551  SER551      0.2314
    221  O         29.6440    3.3900   -1.0570 O.2   551  SER551     -0.2863
    222  CB        30.2200    5.4180    1.0750 C.3   551  SER551      0.2116
    223  OG        28.9900    6.0870    0.9030 O.3   551  SER551     -0.2180
@<TRIPOS>BOND
     1    44    43    2
     2    43    42    1
     3    42    45    1
     4    42    41    1
     5    45    46    1
     6    68    67    2
     7    62    63    1
     8    46    47   ar
     9    46    48   ar
    10    63    64    1
    11    63    66    1
    12    67    66    1
    13    67    69   am
    14    65    64    2
    15    49    50    1
    16    54    53    1
    17    50    53    1
    18    50    51    1
    19    52    51    2
    20    53    55    1
    21    51    56   am
    22    56    57    1
    23    86    83    1
    24    86    87    1
    25    59    58    2
    26    58    57    1
    27    83    82    1
    28    83    84    1
    29    81    80    2
    30    57    60    1
    31    89    87   ar
    32    82    80   am
    33    80    79    1
    34     3     4    2
    35     3     2    1
    36    87    88   ar
    37    85    84    2
    38    84    90   am
    39    79    78    1
    40     2     5    1
    41     2     1    1
    42   221   220    2
    43    60    61    1
    44     5     6    1
    45    78    72   am
    46    90    91    1
    47   220   219    1
    48     6     7    1
    49     7     8    1
    50    92    93    2
    51    92    91    1
    52    72    73    2
    53    72    71    1
    54    91    94    1
    55   223   222    1
    56   222   219    1
    57   219   218    1
    58   218   208   am
    59    70    71    1
    60   209   208    2
    61   212   214   ar
    62   212   211   ar
    63   208   207    1
    64     8     9    2
    65   207   210    1
    66   207   206    1
    67   214   216   ar
    68    10     9    1
    69    71    74    1
    70    21    19   ar
    71    21    22   ar
    72     9    11    1
    73    94    95    1
    74   210   211    1
    75    19    17   ar
    76   211   213   ar
    77    22    20   ar
    78   216   217    1
    79   216   215   ar
    80    74    75    1
    81    95    96   ar
    82    95    97   ar
    83   213   215   ar
    84    17    16    1
    85    17    18   ar
    86    20    18   ar
    87    75    76    2
    88    75    77   am
    89    16    13    1
    90   205   204    2
    91    12    13    1
    92   203   204    1
    93   203   202    1
    94   193   192    2
    95    13    14    1
    96   192   202   am
    97   192   191    1
    98    14    15    2
    99   103   102    1
   100   180   179    2
   101    98    99    1
   102   191   194    1
   103   191   190    1
   104   194   195    1
   105    99   102    1
   106    99   100    1
   107   181   179   am
   108   179   178    1
   109    39    38    1
   110    40    38    1
   111   109   108    1
   112   195   197   ar
   113   195   196   ar
   114    38    37    2
   115   104   100   am
   116   104   105    1
   117   197   199   ar
   118   100   101    2
   119   196   198   ar
   120   190   184   am
   121   178   177    1
   122   185   184    2
   123   199   200   ar
   124   105   108    1
   125   105   106    1
   126   184   183    1
   127   198   200   ar
   128   200   201    1
   129   177   174    1
   130    37    36    1
   131    36    35    1
   132   106   110   am
   133   106   107    2
   134    35    34    1
   135   182   183    1
   136   182   175   am
   137   183   186    1
   138   110   111    1
   139   174   175    1
   140   174   173    1
   141   113   112    2
   142   175   176    2
   143   133   132    1
   144    34    31    1
   145   188   186    1
   146   186   187    1
   147    33    32    2
   148   112   111    1
   149   111   114    1
   150   134   132    1
   151    31    32    1
   152    31    30    1
   153   132   131    2
   154   114   115    1
   155   160   159    1
   156   187   189    1
   157   172   171    1
   158   131   130    1
   159   122   121    1
   160   123   121    1
   161   130   129    1
   162   139   140    1
   163   139   136    1
   164   128   129    1
   165   128   125    1
   166   159   158    1
   167   121   120    1
   168   171   170   ar
   169   171   169   ar
   170    23    24    1
   171    23    29    1
   172   158   157    1
   173   136   135    1
   174   136   137    1
   175    24    25    1
   176    24    27    1
   177   170   168   ar
   178    26    25    2
   179    29    28    1
   180   151   150    2
   181   120   117    1
   182   125   126    1
   183   125   124    1
   184   157   154    1
   185   169   167   ar
   186    28    27    1
   187   152   150   am
   188   142   143    1
   189   142   141    1
   190   137   138    2
   191   150   149    1
   192   126   127    2
   193   168   166   ar
   194   144   143    2
   195   143   145   am
   196   117   118    1
   197   117   116    1
   198   167   166   ar
   199   154   155    1
   200   154   153    1
   201   145   146    1
   202   118   119    2
   203   166   165    1
   204   146   149    1
   205   146   147    1
   206   156   155    2
   207   155   161   am
   208   161   162    1
   209   165   162    1
   210   147   148    2
   211   162   163    1
   212   163   164    2
