@<TRIPOS>MOLECULE
tmp/3h5nC00.pdb
 208 200 0 0 0
SMALL
GASTEIGER

@<TRIPOS>ATOM
      1  N         37.7680   20.2480   38.2820 N.3   117  LEU117     -0.1231
      2  CA        37.4370   21.6810   38.3300 C.3   117  LEU117      0.1693
      3  C         36.0640   21.9070   38.9790 C.2   117  LEU117      0.2593
      4  O         35.0460   21.8560   38.3150 O.2   117  LEU117     -0.2718
      5  CB        37.5510   22.3170   36.9390 C.3   117  LEU117      0.0284
      6  CG        37.2250   23.8130   36.7300 C.3   117  LEU117      0.0019
      7  CD1       37.9010   24.7180   37.7910 C.3   117  LEU117      0.0001
      8  CD2       37.5950   24.2540   35.3030 C.3   117  LEU117      0.0001
      9  N         36.0580   22.1880   40.2900 N.am  118  GLY118     -0.1942
     10  CA        34.8060   22.2180   41.0500 C.3   118  GLY118      0.2014
     11  C         34.7280   21.0230   41.9870 C.2   118  GLY118      0.2639
     12  O         34.6280   19.8680   41.5500 O.2   118  GLY118     -0.2714
     13  N         34.7770   21.3130   43.2810 N.am  119  CYS119     -0.1953
     14  CA        34.9290   20.2960   44.3120 C.3   119  CYS119      0.1843
     15  C         33.7180   20.2490   45.2300 C.2   119  CYS119      0.2626
     16  O         33.8400   19.9800   46.4400 O.2   119  CYS119     -0.2714
     17  CB        36.1930   20.5850   45.1190 C.3   119  CYS119      0.0997
     18  SG        37.7310   20.1880   44.2420 S.3   119  CYS119     -0.0797
     19  N         32.5450   20.5160   44.6480 N.am  120  GLY120     -0.1940
     20  CA        31.2760   20.4260   45.3520 C.3   120  GLY120      0.2014
     21  C         30.7200   19.0260   45.2120 C.2   120  GLY120      0.2639
     22  O         31.4650   18.0510   45.2270 O.2   120  GLY120     -0.2714
     23  N         29.4120   18.9290   45.0320 N.am  121  GLY121     -0.1939
     24  CA        28.7300   17.6310   45.0550 C.3   121  GLY121      0.2014
     25  C         29.1450   16.7050   43.9350 C.2   121  GLY121      0.2638
     26  O         29.3850   15.5160   44.1690 O.2   121  GLY121     -0.2714
     27  N         29.2130   17.2290   42.7130 N.am  122  ILE122     -0.1977
     28  CA        29.6980   16.4220   41.6040 C.3   122  ILE122      0.1596
     29  C         31.1470   16.0310   41.8280 C.2   122  ILE122      0.2287
     30  O         31.5180   14.8480   41.7040 O.2   122  ILE122     -0.2864
     31  CB        29.5510   17.1190   40.2350 C.3   122  ILE122      0.0276
     32  CG1       28.0730   17.3080   39.8480 C.3   122  ILE122      0.0022
     33  CG2       30.3180   16.3310   39.1450 C.3   122  ILE122      0.0022
     34  CD1       27.2860   16.0230   39.6790 C.3   122  ILE122      0.0001
     35  N         40.6530   21.5830   42.1890 N.3   141  ILE141     -0.1231
     36  CA        40.5720   23.0170   41.9410 C.3   141  ILE141      0.1692
     37  C         39.2390   23.6020   42.4020 C.2   141  ILE141      0.2592
     38  O         38.1720   23.2110   41.9360 O.2   141  ILE141     -0.2718
     39  CB        40.8340   23.3750   40.4580 C.3   141  ILE141      0.0266
     40  CG1       42.1710   22.7740   39.9950 C.3   141  ILE141      0.0019
     41  CG2       40.7830   24.9180   40.2670 C.3   141  ILE141      0.0020
     42  CD1       42.3950   22.8030   38.4880 C.3   141  ILE141      0.0001
     43  N         39.3340   24.5550   43.3210 N.am  142  ASP142     -0.1960
     44  CA        38.1830   25.2230   43.9210 C.3   142  ASP142      0.1840
     45  C         38.7630   26.3110   44.8340 C.2   142  ASP142      0.2622
     46  O         39.9570   26.2630   45.1630 O.2   142  ASP142     -0.2715
     47  CB        37.2920   24.2310   44.7130 C.3   142  ASP142      0.1450
     48  CG        35.8210   24.6680   44.7760 C.2   142  ASP142      0.3671
     49  OD1       35.5380   25.8200   45.1790 O.co2 142  ASP142     -0.2456
     50  OD2       34.9290   23.8580   44.4100 O.co2 142  ASP142     -0.2456
     51  N         37.9440   27.2950   45.2050 N.am  143  ASN143     -0.1958
     52  CA        38.3740   28.3490   46.1460 C.3   143  ASN143      0.1819
     53  C         37.3470   28.5500   47.2450 C.2   143  ASN143      0.2621
     54  O         37.3050   29.6010   47.8850 O.2   143  ASN143     -0.2715
     55  CB        38.5940   29.6680   45.4090 C.3   143  ASN143      0.1195
     56  CG        39.4930   30.6250   46.1760 C.2   143  ASN143      0.2630
     57  OD1       40.5600   30.2380   46.6540 O.2   143  ASN143     -0.2716
     58  ND2       39.0610   31.8840   46.2950 N.am  143  ASN143     -0.0877
     59  N         36.5050   27.5400   47.4550 N.am  144  ASP144     -0.1971
     60  CA        35.3980   27.6580   48.3990 C.3   144  ASP144      0.1709
     61  C         35.6600   26.7950   49.6250 C.2   144  ASP144      0.2293
     62  O         36.4590   25.8580   49.5870 O.2   144  ASP144     -0.2864
     63  CB        34.0820   27.2370   47.7380 C.3   144  ASP144      0.1436
     64  CG        32.8470   27.7350   48.4870 C.2   144  ASP144      0.3671
     65  OD1       32.9670   28.6020   49.3980 O.co2 144  ASP144     -0.2456
     66  OD2       31.7400   27.2570   48.1450 O.co2 144  ASP144     -0.2456
     67  N         30.3930   24.3860   53.8770 N.3   147  GLU147     -0.1245
     68  CA        29.2760   24.9020   54.6560 C.3   147  GLU147      0.1567
     69  C         28.3820   23.7290   55.0720 C.2   147  GLU147      0.2260
     70  O         28.3880   22.6920   54.4080 O.2   147  GLU147     -0.2867
     71  CB        28.4850   25.9070   53.8330 C.3   147  GLU147      0.0388
     72  CG        29.2880   27.1400   53.4720 C.3   147  GLU147      0.1160
     73  CD        28.5330   28.1380   52.6160 C.2   147  GLU147      0.3649
     74  OE1       27.3680   27.8790   52.2240 O.co2 147  GLU147     -0.2457
     75  OE2       29.1270   29.2040   52.3260 O.co2 147  GLU147     -0.2457
     76  N         25.3390   23.0640   54.7830 N.3   149  THR149     -0.1203
     77  CA        24.3670   22.6600   53.7640 C.3   149  THR149      0.1994
     78  C         24.9820   21.7360   52.6880 C.2   149  THR149      0.2617
     79  O         24.2640   21.0210   51.9830 O.2   149  THR149     -0.2717
     80  CB        23.6760   23.8830   53.0860 C.3   149  THR149      0.1784
     81  OG1       24.6510   24.6630   52.4030 O.3   149  THR149     -0.2211
     82  CG2       22.9860   24.7720   54.1060 C.3   149  THR149      0.0376
     83  N         26.3080   21.7540   52.5710 N.am  150  ASN150     -0.1974
     84  CA        27.0200   20.9100   51.6110 C.3   150  ASN150      0.1688
     85  C         26.8390   19.4240   51.9120 C.2   150  ASN150      0.2292
     86  O         26.9200   18.5880   51.0160 O.2   150  ASN150     -0.2864
     87  CB        28.5220   21.2210   51.6280 C.3   150  ASN150      0.1181
     88  CG        28.8490   22.6210   51.1450 C.2   150  ASN150      0.2629
     89  OD1       29.9030   23.1530   51.4660 O.2   150  ASN150     -0.2716
     90  ND2       27.9580   23.2180   50.3680 N.am  150  ASN150     -0.0877
     91  N         25.0050   16.1370   50.0740 N.3   153  ARG153     -0.1231
     92  CA        25.5150   15.4340   48.8890 C.3   153  ARG153      0.1694
     93  C         27.0380   15.3170   48.8060 C.2   153  ARG153      0.2591
     94  O         27.5570   14.4200   48.1330 O.2   153  ARG153     -0.2718
     95  CB        24.9550   16.0660   47.6170 C.3   153  ARG153      0.0321
     96  CG        25.4100   17.4820   47.4060 C.3   153  ARG153      0.0489
     97  CD        24.2620   18.4020   47.0790 C.3   153  ARG153      0.2205
     98  NE        24.8190   19.7160   46.7770 N.pl3 153  ARG153     -0.0865
     99  CZ        24.9140   20.7240   47.6420 C.cat 153  ARG153      0.5346
    100  NH1       24.4490   20.6250   48.8980 N.pl3 153  ARG153      0.1354
    101  NH2       25.4720   21.8480   47.2250 N.pl3 153  ARG153      0.1354
    102  N         27.7500   16.2170   49.4860 N.am  154  GLN154     -0.1979
    103  CA        29.2110   16.2550   49.3820 C.3   154  GLN154      0.1601
    104  C         29.7940   15.2610   50.3600 C.2   154  GLN154      0.2287
    105  O         30.1690   15.5930   51.4910 O.2   154  GLN154     -0.2864
    106  CB        29.7250   17.6860   49.5490 C.3   154  GLN154      0.0394
    107  CG        29.0700   18.5760   48.5160 C.3   154  GLN154      0.0908
    108  CD        29.5550   20.0000   48.5060 C.2   154  GLN154      0.2608
    109  OE1       30.7260   20.2860   48.7600 O.2   154  GLN154     -0.2717
    110  NE2       28.6510   20.9090   48.1890 N.am  154  GLN154     -0.0878
    111  N         37.4420   23.0460   50.6160 N.3   166  LYS166     -0.1245
    112  CA        36.9640   21.8030   50.0140 C.3   166  LYS166      0.1561
    113  C         38.1240   20.9940   49.4150 C.2   166  LYS166      0.2260
    114  O         38.1290   19.7640   49.5080 O.2   166  LYS166     -0.2867
    115  CB        35.9100   22.0900   48.9430 C.3   166  LYS166      0.0271
    116  CG        34.6560   22.7730   49.4600 C.3   166  LYS166      0.0035
    117  CD        33.6550   23.0150   48.3370 C.3   166  LYS166      0.0206
    118  CE        32.3670   23.6100   48.8540 C.3   166  LYS166      0.1093
    119  NZ        31.5140   24.0550   47.7210 N.3   166  LYS166     -0.1314
    120  N         41.8600   28.2590   43.3270 N.3   188  LEU188     -0.1231
    121  CA        41.5840   29.1130   42.1830 C.3   188  LEU188      0.1693
    122  C         40.0820   29.2540   42.0140 C.2   188  LEU188      0.2592
    123  O         39.3400   28.2770   42.1380 O.2   188  LEU188     -0.2718
    124  CB        42.2410   28.5350   40.9120 C.3   188  LEU188      0.0284
    125  CG        41.9240   29.0910   39.5100 C.3   188  LEU188      0.0019
    126  CD1       42.3700   30.5450   39.3380 C.3   188  LEU188      0.0001
    127  CD2       42.5580   28.2290   38.4160 C.3   188  LEU188      0.0001
    128  N         39.6410   30.4840   41.7730 N.am  189  ASN189     -0.1960
    129  CA        38.3150   30.7160   41.2340 C.3   189  ASN189      0.1819
    130  C         38.4420   31.3250   39.8620 C.2   189  ASN189      0.2621
    131  O         39.1350   32.3340   39.6840 O.2   189  ASN189     -0.2715
    132  CB        37.4790   31.6420   42.1130 C.3   189  ASN189      0.1195
    133  CG        36.0050   31.5650   41.7740 C.2   189  ASN189      0.2630
    134  OD1       35.3090   30.6540   42.2210 O.2   189  ASN189     -0.2716
    135  ND2       35.5280   32.5030   40.9500 N.am  189  ASN189     -0.0877
    136  N         37.7880   30.7050   38.8910 N.am  190  ILE190     -0.1977
    137  CA        37.8210   31.2120   37.5310 C.3   190  ILE190      0.1596
    138  C         36.8500   32.3920   37.4070 C.2   190  ILE190      0.2287
    139  O         35.6240   32.2300   37.4340 O.2   190  ILE190     -0.2864
    140  CB        37.6290   30.0920   36.4850 C.3   190  ILE190      0.0276
    141  CG1       38.8210   29.1380   36.5870 C.3   190  ILE190      0.0022
    142  CG2       37.5720   30.6920   35.0530 C.3   190  ILE190      0.0022
    143  CD1       38.5510   27.7830   36.1400 C.3   190  ILE190      0.0001
    144  N         32.6300   20.7120   36.8190 N.3   208  SER208     -0.1202
    145  CA        31.3130   20.8560   37.4250 C.3   208  SER208      0.2020
    146  C         31.0920   22.2380   38.0340 C.2   208  SER208      0.2619
    147  O         29.9850   22.5390   38.4880 O.2   208  SER208     -0.2717
    148  CB        31.0210   19.7590   38.4580 C.3   208  SER208      0.2103
    149  OG        31.9110   19.7710   39.5500 O.3   208  SER208     -0.2182
    150  N         32.1370   23.0730   38.0350 N.am  209  ALA209     -0.1965
    151  CA        31.9890   24.4780   38.4200 C.3   209  ALA209      0.1728
    152  C         30.9160   25.1480   37.5660 C.2   209  ALA209      0.2616
    153  O         30.8440   24.9260   36.3490 O.2   209  ALA209     -0.2715
    154  CB        33.3200   25.2220   38.2950 C.3   209  ALA209      0.0334
    155  N         30.0830   25.9630   38.2050 N.am  210  ASP210     -0.1957
    156  CA        28.8820   26.4740   37.5590 C.3   210  ASP210      0.1840
    157  C         28.6270   27.9840   37.6800 C.2   210  ASP210      0.2622
    158  O         27.5140   28.4480   37.3930 O.2   210  ASP210     -0.2715
    159  CB        27.6780   25.7060   38.0890 C.3   210  ASP210      0.1450
    160  CG        27.5200   25.8130   39.6060 C.2   210  ASP210      0.3671
    161  OD1       28.4670   26.2350   40.3300 O.co2 210  ASP210     -0.2456
    162  OD2       26.4160   25.4620   40.0690 O.co2 210  ASP210     -0.2456
    163  N         29.6320   28.7490   38.1000 N.am  211  HIS211     -0.1973
    164  CA        29.4270   30.1830   38.3270 C.3   211  HIS211      0.1656
    165  C         30.5080   31.0050   37.6300 C.2   211  HIS211      0.2291
    166  O         31.6870   30.7630   37.8340 O.2   211  HIS211     -0.2864
    167  CB        29.3170   30.4930   39.8320 C.3   211  HIS211      0.0771
    168  CG        29.5600   31.9300   40.1820 C.ar  211  HIS211      0.0820
    169  ND1       28.6360   32.9230   39.9340 N.ar  211  HIS211     -0.2267
    170  CD2       30.6220   32.5390   40.7650 C.ar  211  HIS211      0.1154
    171  CE1       29.1220   34.0840   40.3410 C.ar  211  HIS211      0.1986
    172  NE2       30.3230   33.8780   40.8540 N.ar  211  HIS211     -0.2212
    173  N         30.6540   30.3050   32.4850 N.3   215  LEU215     -0.1245
    174  CA        31.8830   29.5660   32.7810 C.3   215  LEU215      0.1561
    175  C         32.1170   28.3890   31.8070 C.2   215  LEU215      0.2260
    176  O         33.2100   28.2510   31.2500 O.2   215  LEU215     -0.2867
    177  CB        31.8900   29.0630   34.2320 C.3   215  LEU215      0.0270
    178  CG        33.1250   28.2120   34.5690 C.3   215  LEU215      0.0019
    179  CD1       34.4350   28.9840   34.3820 C.3   215  LEU215      0.0001
    180  CD2       33.0530   27.6280   35.9610 C.3   215  LEU215      0.0001
    181  N         23.5350   19.3280   37.1760 N.3   235  TYR235     -0.1241
    182  CA        22.1200   19.0450   37.2950 C.3   235  TYR235      0.1605
    183  C         21.3900   20.3410   36.9930 C.2   235  TYR235      0.2264
    184  O         21.9690   21.4350   37.0970 O.2   235  TYR235     -0.2867
    185  CB        21.7580   18.5310   38.7060 C.3   235  TYR235      0.0534
    186  CG        22.5900   19.1570   39.7900 C.ar  235  TYR235     -0.0201
    187  CD1       23.7220   18.5040   40.2700 C.ar  235  TYR235     -0.0009
    188  CD2       22.2900   20.4200   40.2930 C.ar  235  TYR235     -0.0009
    189  CE1       24.5230   19.0730   41.2410 C.ar  235  TYR235      0.0417
    190  CE2       23.0950   21.0160   41.2790 C.ar  235  TYR235      0.0417
    191  CZ        24.2070   20.3260   41.7440 C.ar  235  TYR235      0.1957
    192  OH        25.0290   20.8610   42.6990 O.3   235  TYR235     -0.2866
    193  N         18.8370   29.4000   43.3360 N.3   277  LYS277     -0.1231
    194  CA        19.5100   28.2980   43.9900 C.3   277  LYS277      0.1678
    195  C         18.8600   27.0210   43.4650 C.2   277  LYS277      0.2434
    196  O         17.6360   26.8860   43.5580 O.2   277  LYS277     -0.2733
    197  CB        19.3000   28.4000   45.5060 C.3   277  LYS277      0.0284
    198  CG        20.0040   27.3270   46.3340 C.3   277  LYS277      0.0035
    199  CD        21.4920   27.6170   46.5310 C.3   277  LYS277      0.0206
    200  CE        21.7010   28.7050   47.5670 C.3   277  LYS277      0.1093
    201  NZ        22.9560   29.4290   47.2890 N.3   277  LYS277     -0.1314
    202  N         19.6620   26.0740   42.9190 N.am  278  PRO278     -0.2729
    203  CA        19.0790   24.8410   42.3840 C.3   278  PRO278      0.1401
    204  C         18.2900   24.0740   43.4440 C.2   278  PRO278      0.2269
    205  O         18.7540   23.9640   44.5900 O.2   278  PRO278     -0.2865
    206  CB        20.3080   24.0140   41.9780 C.3   278  PRO278      0.0296
    207  CG        21.3850   24.9960   41.7550 C.3   278  PRO278      0.0237
    208  CD        21.1350   26.0880   42.7760 C.3   278  PRO278      0.0939
@<TRIPOS>BOND
     1   176   175    2
     2   175   174    1
     3   173   174    1
     4   174   177    1
     5   177   178    1
     6   179   178    1
     7   178   180    1
     8   142   140    1
     9     8     6    1
    10   143   141    1
    11   153   152    2
    12   140   141    1
    13   140   137    1
    14     6     5    1
    15     6     7    1
    16   144   145    1
    17     5     2    1
    18   183   184    2
    19   183   182    1
    20   181   182    1
    21   182   185    1
    22   158   157    2
    23   138   139    2
    24   138   137    1
    25   145   146    1
    26   145   148    1
    27   137   136    1
    28   156   157    1
    29   156   159    1
    30   156   155    1
    31   152   155   am
    32   152   151    1
    33   165   166    2
    34   165   164    1
    35   157   163   am
    36   146   150   am
    37   146   147    2
    38   150   151    1
    39   159   160    1
    40   163   164    1
    41     1     2    1
    42   154   151    1
    43     4     3    2
    44   164   167    1
    45     2     3    1
    46   127   125    1
    47   148   149    1
    48    42    40    1
    49   185   186    1
    50   136   130   am
    51     3     9   am
    52    33    31    1
    53   126   125    1
    54   125   124    1
    55   160   162   ar
    56   160   161   ar
    57    34    32    1
    58   131   130    2
    59   186   187   ar
    60   186   188   ar
    61   167   168    1
    62    32    31    1
    63   130   129    1
    64   169   168   ar
    65   169   171   ar
    66    40    39    1
    67   168   170   ar
    68    31    28    1
    69    41    39    1
    70   187   189   ar
    71     9    10    1
    72   188   190   ar
    73   171   172   ar
    74    39    36    1
    75   170   172   ar
    76   124   121    1
    77   135   133   am
    78    10    11    1
    79   129   128    1
    80   129   132    1
    81   189   191   ar
    82   190   191   ar
    83    12    11    2
    84    28    29    1
    85    28    27    1
    86    30    29    2
    87   191   192    1
    88   207   206    1
    89   207   208    1
    90   128   122   am
    91   133   132    1
    92   133   134    2
    93    38    37    2
    94    36    35    1
    95    36    37    1
    96   206   203    1
    97    11    13   am
    98   122   123    2
    99   122   121    1
   100   121   120    1
   101   203   202    1
   102   203   204    1
   103    37    43   am
   104    27    25   am
   105   208   202    1
   106   202   195   am
   107    13    14    1
   108    43    44    1
   109   193   194    1
   110   204   205    2
   111   195   196    2
   112   195   194    1
   113    44    47    1
   114    44    45    1
   115    25    26    2
   116    25    24    1
   117   194   197    1
   118    18    17    1
   119    14    17    1
   120    14    15    1
   121    50    48   ar
   122    19    15   am
   123    19    20    1
   124    47    48    1
   125    48    49   ar
   126    45    46    2
   127    45    51   am
   128    23    24    1
   129    23    21   am
   130    51    52    1
   131    21    22    2
   132    21    20    1
   133    15    16    2
   134    55    52    1
   135    55    56    1
   136   197   198    1
   137    52    53    1
   138    56    58   am
   139    56    57    2
   140   198   199    1
   141   199   200    1
   142    98    97    1
   143    98    99    2
   144    97    96    1
   145   101    99    1
   146    53    59   am
   147    53    54    2
   148   201   200    1
   149    96    95    1
   150    59    60    1
   151    95    92    1
   152    99   100    1
   153   119   118    1
   154    63    60    1
   155    63    64    1
   156    94    93    2
   157    66    64   ar
   158   110   108   am
   159   117   118    1
   160   117   116    1
   161    60    61    1
   162    64    65   ar
   163   108   107    1
   164   108   109    2
   165   107   106    1
   166    93    92    1
   167    93   102   am
   168    92    91    1
   169   115   116    1
   170   115   112    1
   171   103   102    1
   172   103   106    1
   173   103   104    1
   174   113   114    2
   175   113   112    1
   176    62    61    2
   177   112   111    1
   178   104   105    2
   179    90    88   am
   180    86    85    2
   181    88    89    2
   182    88    87    1
   183    84    87    1
   184    84    85    1
   185    84    83    1
   186    79    78    2
   187    74    73   ar
   188    75    73   ar
   189    81    80    1
   190    83    78   am
   191    73    72    1
   192    78    77    1
   193    80    77    1
   194    80    82    1
   195    72    71    1
   196    77    76    1
   197    71    68    1
   198    67    68    1
   199    70    69    2
   200    68    69    1
