@<TRIPOS>MOLECULE
tmp/3h5qA00.pdb
 97 90 0 0 0
SMALL
GASTEIGER

@<TRIPOS>ATOM
      1  N         32.0590    2.2780   23.3090 N.3    78  HIS78      -0.1241
      2  CA        33.3920    1.7760   22.8860 C.3    78  HIS78       0.1621
      3  C         34.4460    2.7350   23.3950 C.2    78  HIS78       0.2264
      4  O         34.3350    3.9650   23.2220 O.2    78  HIS78      -0.2867
      5  CB        33.5500    1.6730   21.3580 C.3    78  HIS78       0.0745
      6  CG        34.9360    1.2390   20.9240 C.ar   78  HIS78       0.0817
      7  ND1       35.3290   -0.0820   20.8950 N.ar   78  HIS78      -0.2268
      8  CD2       36.0470    1.9620   20.6370 C.ar   78  HIS78       0.1154
      9  CE1       36.6060   -0.1580   20.5560 C.ar   78  HIS78       0.1986
     10  NE2       37.0590    1.0650   20.3900 N.ar   78  HIS78      -0.2212
     11  N         38.5570    3.4660   23.1160 N.3    80  THR80      -0.1218
     12  CA        39.8180    3.1570   22.4380 C.3    80  THR80       0.1862
     13  C         40.8670    2.5090   23.3750 C.2    80  THR80       0.2287
     14  O         41.8730    1.9280   22.8960 O.2    80  THR80      -0.2866
     15  CB        40.4240    4.4330   21.7730 C.3    80  THR80       0.1770
     16  OG1       40.7850    5.4220   22.7700 O.3    80  THR80      -0.2211
     17  CG2       39.4290    5.0390   20.7970 C.3    80  THR80       0.0375
     18  N         37.5860   -7.0660    8.6430 N.3   156  ASP156     -0.1239
     19  CA        38.3300   -6.1850    9.5400 C.3   156  ASP156      0.1674
     20  C         39.3860   -6.9370   10.3610 C.2   156  ASP156      0.2266
     21  O         40.4520   -6.4000   10.6260 O.2   156  ASP156     -0.2867
     22  CB        37.4010   -5.4150   10.4990 C.3   156  ASP156      0.1410
     23  CG        38.1750   -4.5150   11.4600 C.2   156  ASP156      0.3668
     24  OD1       38.8250   -3.5530   11.0060 O.co2 156  ASP156     -0.2456
     25  OD2       38.1600   -4.7920   12.6870 O.co2 156  ASP156     -0.2456
     26  N         42.9490   -5.2800    9.7450 N.3   160  TYR160     -0.1241
     27  CA        43.6700   -4.7000   10.8730 C.3   160  TYR160      0.1605
     28  C         44.9980   -5.4070   11.1480 C.2   160  TYR160      0.2264
     29  O         46.0180   -4.7550   11.3880 O.2   160  TYR160     -0.2867
     30  CB        42.8130   -4.6330   12.1310 C.3   160  TYR160      0.0534
     31  CG        43.6080   -4.1630   13.3300 C.ar  160  TYR160     -0.0201
     32  CD1       43.8690   -2.8150   13.5330 C.ar  160  TYR160     -0.0009
     33  CD2       44.1460   -5.0780   14.2320 C.ar  160  TYR160     -0.0009
     34  CE1       44.5880   -2.3740   14.5980 C.ar  160  TYR160      0.0417
     35  CE2       44.9070   -4.6630   15.3020 C.ar  160  TYR160      0.0417
     36  CZ        45.1110   -3.2910   15.4880 C.ar  160  TYR160      0.1957
     37  OH        45.8530   -2.8830   16.5480 O.3   160  TYR160     -0.2866
     38  N         47.2970   -4.2050    8.4810 N.3   163  ARG163     -0.1245
     39  CA        47.6510   -2.8210    8.7890 C.3   163  ARG163      0.1563
     40  C         48.7590   -2.7880    9.8090 C.2   163  ARG163      0.2260
     41  O         49.7240   -2.0460    9.6580 O.2   163  ARG163     -0.2867
     42  CB        46.4540   -2.0400    9.2900 C.3   163  ARG163      0.0307
     43  CG        45.4720   -1.7000    8.1650 C.3   163  ARG163      0.0489
     44  CD        44.0920   -1.2680    8.6560 C.3   163  ARG163      0.2205
     45  NE        44.1930   -0.1340    9.5710 N.pl3 163  ARG163     -0.0865
     46  CZ        43.3980    0.0520   10.6120 C.cat 163  ARG163      0.5346
     47  NH1       42.4170   -0.7750   10.8680 N.pl3 163  ARG163      0.1354
     48  NH2       43.5680    1.0940   11.3860 N.pl3 163  ARG163      0.1354
     49  N         48.2680    1.2660   10.2600 N.3   169  VAL169     -0.1245
     50  CA        47.2970    1.3560   11.3350 C.3   169  VAL169      0.1561
     51  C         46.7910    2.8110   11.5220 C.2   169  VAL169      0.2260
     52  O         45.5690    3.0800   11.5310 O.2   169  VAL169     -0.2867
     53  CB        47.8000    0.8320   12.6740 C.3   169  VAL169      0.0252
     54  CG1       46.6630    1.0720   13.8000 C.3   169  VAL169      0.0019
     55  CG2       48.0320   -0.7190   12.5940 C.3   169  VAL169      0.0019
     56  N         41.0520    3.6260   10.7920 N.3   175  ILE175     -0.1245
     57  CA        40.7190    3.4320   12.2070 C.3   175  ILE175      0.1561
     58  C         39.2190    3.5440   12.4010 C.2   175  ILE175      0.2260
     59  O         38.5950    2.6760   13.0100 O.2   175  ILE175     -0.2867
     60  CB        41.3920    4.4270   13.1450 C.3   175  ILE175      0.0252
     61  CG1       42.9370    4.3820   13.0490 C.3   175  ILE175      0.0019
     62  CG2       40.9370    4.1300   14.6050 C.3   175  ILE175      0.0019
     63  CD1       43.5890    5.7340   13.4680 C.3   175  ILE175      0.0001
     64  N         37.2930    0.7270   10.8990 N.3   178  SER178     -0.1202
     65  CA        37.5590   -0.4790   11.6830 C.3   178  SER178      0.2020
     66  C         36.7410   -0.5390   13.0160 C.2   178  SER178      0.2618
     67  O         36.0430   -1.5210   13.2910 O.2   178  SER178     -0.2717
     68  CB        39.0690   -0.6000   11.9850 C.3   178  SER178      0.2103
     69  OG        39.2950   -1.7400   12.8040 O.3   178  SER178     -0.2182
     70  N         36.8560    0.5000   13.8350 N.am  179  ILE179     -0.1979
     71  CA        36.1570    0.5390   15.1360 C.3   179  ILE179      0.1595
     72  C         34.6290    0.5190   14.9380 C.2   179  ILE179      0.2287
     73  O         33.9180   -0.2670   15.5600 O.2   179  ILE179     -0.2864
     74  CB        36.5910    1.7630   15.9270 C.3   179  ILE179      0.0276
     75  CG1       38.0890    1.6350   16.3270 C.3   179  ILE179      0.0022
     76  CG2       35.7220    1.9770   17.1900 C.3   179  ILE179      0.0022
     77  CD1       38.5800    2.9250   17.0160 C.3   179  ILE179      0.0001
     78  N         32.8320   -2.8960   13.8060 N.3   181  LYS181     -0.1245
     79  CA        32.5870   -3.9030   14.8570 C.3   181  LYS181      0.1561
     80  C         31.4120   -3.5110   15.7300 C.2   181  LYS181      0.2260
     81  O         30.6100   -4.3550   16.0550 O.2   181  LYS181     -0.2867
     82  CB        33.8590   -4.1180   15.6860 C.3   181  LYS181      0.0271
     83  CG        34.9610   -4.7200   14.8040 C.3   181  LYS181      0.0035
     84  CD        36.2060   -5.2360   15.5850 C.3   181  LYS181      0.0206
     85  CE        37.1530   -4.1180   16.0100 C.3   181  LYS181      0.1093
     86  NZ        37.6710   -3.2610   14.9390 N.3   181  LYS181     -0.1314
     87  N         45.7050    5.8330   22.5580 N.3   201  PHE201     -0.1241
     88  CA        46.0680    5.5830   21.1490 C.3   201  PHE201      0.1605
     89  C         46.3330    6.9350   20.4250 C.2   201  PHE201      0.2264
     90  O         47.3510    7.1130   19.7610 O.2   201  PHE201     -0.2867
     91  CB        44.9540    4.7470   20.4980 C.3   201  PHE201      0.0534
     92  CG        45.1370    4.5030   19.0390 C.ar  201  PHE201     -0.0203
     93  CD1       46.3660    4.0650   18.5350 C.ar  201  PHE201     -0.0042
     94  CD2       44.0790    4.6990   18.1560 C.ar  201  PHE201     -0.0042
     95  CE1       46.5450    3.8470   17.1830 C.ar  201  PHE201     -0.0003
     96  CE2       44.2580    4.4840   16.7870 C.ar  201  PHE201     -0.0003
     97  CZ        45.5040    4.0630   16.3150 C.ar  201  PHE201     -0.0000
@<TRIPOS>BOND
     1    43    44    1
     2    43    42    1
     3    38    39    1
     4    18    19    1
     5    44    45    1
     6    39    42    1
     7    39    40    1
     8    19    20    1
     9    19    22    1
    10    45    46    2
    11    41    40    2
    12    26    27    1
    13    49    50    1
    14    20    21    2
    15    22    23    1
    16    46    47    1
    17    46    48    1
    18    56    57    1
    19    27    28    1
    20    27    30    1
    21    64    65    1
    22    24    23   ar
    23    28    29    2
    24    50    51    1
    25    50    53    1
    26    23    25   ar
    27    51    52    2
    28    65    68    1
    29    65    66    1
    30    68    69    1
    31    30    31    1
    32    57    58    1
    33    57    60    1
    34    58    59    2
    35    55    53    1
    36    53    54    1
    37    66    67    2
    38    66    70   am
    39    61    60    1
    40    61    63    1
    41    60    62    1
    42    31    32   ar
    43    31    33   ar
    44    32    34   ar
    45    78    79    1
    46    70    71    1
    47    33    35   ar
    48    34    36   ar
    49    83    84    1
    50    83    82    1
    51    79    82    1
    52    79    80    1
    53    72    71    1
    54    72    73    2
    55    86    85    1
    56    71    74    1
    57    35    36   ar
    58    36    37    1
    59    84    85    1
    60    80    81    2
    61    74    75    1
    62    74    76    1
    63    97    96   ar
    64    97    95   ar
    65    75    77    1
    66    96    94   ar
    67    95    93   ar
    68    94    92   ar
    69    93    92   ar
    70    92    91    1
    71    90    89    2
    72    10     9   ar
    73    10     8   ar
    74    89    88    1
    75    91    88    1
    76     9     7   ar
    77     8     6   ar
    78    17    15    1
    79     7     6   ar
    80     6     5    1
    81    88    87    1
    82     5     2    1
    83    15    12    1
    84    15    16    1
    85    12    11    1
    86    12    13    1
    87     2     1    1
    88     2     3    1
    89    14    13    2
    90     4     3    2
