@<TRIPOS>MOLECULE
tmp/3h5rB00.pdb
 75 71 0 0 0
SMALL
GASTEIGER

@<TRIPOS>ATOM
      1  N          9.3610  -21.6620   -5.9580 N.3    10  LYS10      -0.1231
      2  CA         8.0220  -22.0720   -6.3460 C.3    10  LYS10       0.1693
      3  C          8.2350  -22.5540   -7.7660 C.2    10  LYS10       0.2592
      4  O          9.0530  -22.0100   -8.4830 O.2    10  LYS10      -0.2718
      5  CB         7.1730  -20.7880   -6.4210 C.3    10  LYS10       0.0285
      6  CG         5.7020  -20.8940   -6.1980 C.3    10  LYS10       0.0035
      7  CD         5.1500  -19.4430   -6.0050 C.3    10  LYS10       0.0206
      8  CE         3.6790  -19.4350   -5.5300 C.3    10  LYS10       0.1093
      9  NZ         3.1950  -18.0700   -5.0340 N.3    10  LYS10      -0.1314
     10  N          7.5030  -23.5710   -8.1800 N.am   11  ILE11      -0.1966
     11  CA         7.5790  -24.0910   -9.5420 C.3    11  ILE11       0.1727
     12  C          6.1750  -24.4010  -10.0180 C.2    11  ILE11       0.2616
     13  O          5.3440  -24.8470   -9.2310 O.2    11  ILE11      -0.2715
     14  CB         8.4820  -25.3550   -9.6120 C.3    11  ILE11       0.0290
     15  CG1        9.8570  -24.9850  -10.1670 C.3    11  ILE11       0.0022
     16  CG2        7.9060  -26.4060  -10.5470 C.3    11  ILE11       0.0023
     17  CD1       10.8700  -24.6740   -9.1470 C.3    11  ILE11       0.0001
     18  N          5.8950  -24.1470  -11.2970 N.am   12  ALA12      -0.1977
     19  CA         4.5740  -24.4700  -11.8800 C.3    12  ALA12       0.1597
     20  C          4.6570  -24.7190  -13.3660 C.2    12  ALA12       0.2287
     21  O          5.3930  -24.0440  -14.0830 O.2    12  ALA12      -0.2864
     22  CB         3.5030  -23.3680  -11.5570 C.3    12  ALA12       0.0319
     23  N          3.5170  -24.4000  -17.0270 N.3    14  TYR14      -0.1241
     24  CA         3.0080  -23.2140  -17.6950 C.3    14  TYR14       0.1605
     25  C          3.4470  -23.1370  -19.1520 C.2    14  TYR14       0.2264
     26  O          4.6400  -23.2840  -19.4640 O.2    14  TYR14      -0.2867
     27  CB         3.5260  -21.9810  -16.9750 C.3    14  TYR14       0.0534
     28  CG         2.7970  -20.7120  -17.3140 C.ar   14  TYR14      -0.0201
     29  CD1        1.5390  -20.4400  -16.7570 C.ar   14  TYR14      -0.0009
     30  CD2        3.3700  -19.7690  -18.1610 C.ar   14  TYR14      -0.0009
     31  CE1        0.8700  -19.2730  -17.0420 C.ar   14  TYR14       0.0417
     32  CE2        2.7090  -18.5900  -18.4650 C.ar   14  TYR14       0.0417
     33  CZ         1.4550  -18.3430  -17.9010 C.ar   14  TYR14       0.1957
     34  OH         0.7850  -17.1650  -18.2000 O.3    14  TYR14      -0.2866
     35  N          7.2130  -22.2240  -14.9770 N.3    19  LEU19      -0.1245
     36  CA         7.7230  -21.1270  -14.1960 C.3    19  LEU19       0.1561
     37  C          8.6360  -21.7000  -13.1480 C.2    19  LEU19       0.2260
     38  O          8.3430  -22.7430  -12.5790 O.2    19  LEU19      -0.2867
     39  CB         6.5510  -20.4090  -13.5380 C.3    19  LEU19       0.0270
     40  CG         5.6010  -19.7680  -14.5600 C.3    19  LEU19       0.0019
     41  CD1        4.4840  -19.0810  -13.8180 C.3    19  LEU19       0.0001
     42  CD2        6.3340  -18.7940  -15.4820 C.3    19  LEU19       0.0001
     43  N         10.3970  -20.0150   -9.8060 N.3    21  GLY21      -0.1210
     44  CA        10.6090  -18.8630   -8.9460 C.3    21  GLY21       0.1956
     45  C          9.3240  -18.1270   -8.6910 C.2    21  GLY21       0.2612
     46  O          8.3130  -18.3610   -9.3490 O.2    21  GLY21      -0.2717
     47  N          9.3510  -17.2290   -7.7180 N.am   22  GLY22      -0.1942
     48  CA         8.1770  -16.4480   -7.4240 C.3    22  GLY22       0.2014
     49  C          8.6610  -15.0460   -7.2270 C.2    22  GLY22       0.2639
     50  O          9.6910  -14.8340   -6.5790 O.2    22  GLY22      -0.2714
     51  N          7.9240  -14.0890   -7.7820 N.am   23  GLY23      -0.1954
     52  CA         8.2050  -12.6730   -7.5380 C.3    23  GLY23       0.1869
     53  C          8.9660  -12.1270   -8.7160 C.2    23  GLY23       0.2309
     54  O          8.8480  -12.6390   -9.8450 O.2    23  GLY23      -0.2863
     55  N         10.8830  -14.5830  -10.9120 N.3    26  GLU26      -0.1245
     56  CA        10.1240  -15.6150  -11.5990 C.3    26  GLU26       0.1567
     57  C         10.5470  -15.6560  -13.0420 C.2    26  GLU26       0.2260
     58  O         10.6820  -14.6150  -13.6770 O.2    26  GLU26      -0.2867
     59  CB         8.6290  -15.3560  -11.4560 C.3    26  GLU26       0.0388
     60  CG         7.6900  -16.0810  -12.4030 C.3    26  GLU26       0.1160
     61  CD         6.2130  -15.8790  -11.9980 C.2    26  GLU26       0.3649
     62  OE1        5.4580  -15.2080  -12.7450 O.co2  26  GLU26      -0.2457
     63  OE2        5.8200  -16.3720  -10.9060 O.co2  26  GLU26      -0.2457
     64  N         10.0470  -17.6540  -16.9030 N.3    28  TYR28      -0.1241
     65  CA         9.3570  -18.5640  -17.7920 C.3    28  TYR28       0.1605
     66  C         10.3700  -19.3170  -18.6450 C.2    28  TYR28       0.2264
     67  O         11.0010  -18.7540  -19.5470 O.2    28  TYR28      -0.2867
     68  CB         8.3060  -17.8320  -18.6410 C.3    28  TYR28       0.0534
     69  CG         7.5940  -18.7100  -19.6590 C.ar   28  TYR28      -0.0201
     70  CD1        6.9890  -19.9070  -19.2830 C.ar   28  TYR28      -0.0009
     71  CD2        7.5220  -18.3320  -20.9920 C.ar   28  TYR28      -0.0009
     72  CE1        6.3520  -20.7130  -20.1980 C.ar   28  TYR28       0.0417
     73  CE2        6.8700  -19.1420  -21.9390 C.ar   28  TYR28       0.0417
     74  CZ         6.2850  -20.3260  -21.5270 C.ar   28  TYR28       0.1957
     75  OH         5.6440  -21.1280  -22.4460 O.3    28  TYR28      -0.2866
@<TRIPOS>BOND
     1    75    74    1
     2    73    74   ar
     3    73    71   ar
     4    74    72   ar
     5    71    69   ar
     6    72    70   ar
     7    69    70   ar
     8    69    68    1
     9    67    66    2
    10    26    25    2
    11    25    24    1
    12    66    65    1
    13    68    65    1
    14    32    30   ar
    15    32    33   ar
    16    34    33    1
    17    30    28   ar
    18    33    31   ar
    19    65    64    1
    20    24    23    1
    21    24    27    1
    22    28    27    1
    23    28    29   ar
    24    31    29   ar
    25    42    40    1
    26    35    36    1
    27    40    41    1
    28    40    39    1
    29    36    39    1
    30    36    37    1
    31    21    20    2
    32    58    57    2
    33    20    19    1
    34    37    38    2
    35    57    56    1
    36    62    61   ar
    37    60    61    1
    38    60    59    1
    39    61    63   ar
    40    19    22    1
    41    19    18    1
    42    56    59    1
    43    56    55    1
    44    18    12   am
    45    16    14    1
    46    15    14    1
    47    15    17    1
    48    12    11    1
    49    12    13    2
    50    54    53    2
    51    43    44    1
    52    14    11    1
    53    11    10    1
    54    46    45    2
    55    44    45    1
    56    53    52    1
    57    45    47   am
    58     4     3    2
    59    10     3   am
    60    51    52    1
    61    51    49   am
    62     3     2    1
    63    47    48    1
    64    48    49    1
    65    49    50    2
    66     5     2    1
    67     5     6    1
    68     2     1    1
    69     6     7    1
    70     7     8    1
    71     8     9    1
