@<TRIPOS>MOLECULE
tmp/3h5rB01.pdb
 211 203 0 0 0
SMALL
GASTEIGER

@<TRIPOS>ATOM
      1  N          3.6320    9.0070    8.1750 N.3   122  ILE122     -0.1245
      2  CA         4.7620    8.3290    7.5440 C.3   122  ILE122      0.1561
      3  C          5.7380    7.8080    8.5870 C.2   122  ILE122      0.2260
      4  O          6.1610    6.6650    8.5060 O.2   122  ILE122     -0.2867
      5  CB         5.5300    9.2700    6.5500 C.3   122  ILE122      0.0252
      6  CG1        4.5710    9.8540    5.5030 C.3   122  ILE122      0.0019
      7  CG2        6.7710    8.5510    5.9050 C.3   122  ILE122      0.0019
      8  CD1        4.2920    8.9900    4.2050 C.3   122  ILE122      0.0001
      9  N         12.7970   11.6920    6.2250 N.3   207  VAL207     -0.1231
     10  CA        12.2190   13.0120    6.3410 C.3   207  VAL207      0.1692
     11  C         10.7940   12.9940    5.8320 C.2   207  VAL207      0.2593
     12  O         10.5350   12.6300    4.6900 O.2   207  VAL207     -0.2718
     13  CB        12.9900   14.0580    5.5480 C.3   207  VAL207      0.0266
     14  CG1       12.3480   15.4730    5.7650 C.3   207  VAL207      0.0020
     15  CG2       14.4820   14.0090    5.9230 C.3   207  VAL207      0.0020
     16  N          9.8680   13.3810    6.6980 N.am  208  SER208     -0.1938
     17  CA         8.4940   13.4270    6.2810 C.3   208  SER208      0.2055
     18  C          7.6220   14.3300    7.1440 C.2   208  SER208      0.2643
     19  O          6.6740   13.8300    7.7410 O.2   208  SER208     -0.2714
     20  CB         7.9110   12.0180    6.3760 C.3   208  SER208      0.2130
     21  OG         7.6930   11.6850    7.7400 O.3   208  SER208     -0.2179
     22  N          7.8870   15.6290    7.2100 N.am  209  ALA209     -0.1963
     23  CA         6.9040   16.5050    7.8990 C.3   209  ALA209      0.1728
     24  C          6.1630   17.4210    6.9300 C.2   209  ALA209      0.2616
     25  O          6.8080   18.0300    6.0650 O.2   209  ALA209     -0.2715
     26  CB         7.5460   17.2880    9.0330 C.3   209  ALA209      0.0334
     27  N          4.8230   17.4960    7.0620 N.am  210  ASP210     -0.1971
     28  CA         3.9550   18.2780    6.1420 C.3   210  ASP210      0.1709
     29  C          4.3670   19.7390    6.0650 C.2   210  ASP210      0.2293
     30  O          4.3850   20.3280    4.9760 O.2   210  ASP210     -0.2864
     31  CB         2.4550   18.2070    6.5080 C.3   210  ASP210      0.1436
     32  CG         1.9660   16.7810    6.8210 C.2   210  ASP210      0.3671
     33  OD1        2.4800   16.1850    7.8140 O.co2 210  ASP210     -0.2456
     34  OD2        1.0470   16.2800    6.1000 O.co2 210  ASP210     -0.2456
     35  N          6.2150   24.2420    4.5630 N.3   213  PHE213     -0.1241
     36  CA         6.1450   23.8130    3.1620 C.3   213  PHE213      0.1605
     37  C          7.5350   23.5200    2.5610 C.2   213  PHE213      0.2264
     38  O          7.6690   22.6500    1.7070 O.2   213  PHE213     -0.2867
     39  CB         5.3910   24.8520    2.3160 C.3   213  PHE213      0.0534
     40  CG         6.1930   26.1020    2.0110 C.ar  213  PHE213     -0.0203
     41  CD1        6.3390   27.1170    2.9730 C.ar  213  PHE213     -0.0042
     42  CD2        6.7890   26.2760    0.7530 C.ar  213  PHE213     -0.0042
     43  CE1        7.0800   28.2810    2.6910 C.ar  213  PHE213     -0.0003
     44  CE2        7.5310   27.4340    0.4570 C.ar  213  PHE213     -0.0003
     45  CZ         7.6780   28.4380    1.4320 C.ar  213  PHE213     -0.0000
     46  N         10.3310   22.4330    4.1730 N.3   215  LEU215     -0.1231
     47  CA        11.1380   21.7050    5.1320 C.3   215  LEU215      0.1693
     48  C         12.1760   20.8670    4.4030 C.2   215  LEU215      0.2591
     49  O         13.3370   20.8200    4.8140 O.2   215  LEU215     -0.2718
     50  CB        10.2650   20.8040    5.9970 C.3   215  LEU215      0.0284
     51  CG        11.0600   19.7920    6.8180 C.3   215  LEU215      0.0019
     52  CD1       11.6510   20.4770    8.0490 C.3   215  LEU215      0.0001
     53  CD2       10.1960   18.5850    7.1790 C.3   215  LEU215      0.0001
     54  N         11.7460   20.2100    3.3230 N.am  216  ILE216     -0.1980
     55  CA        12.6420   19.3680    2.5490 C.3   216  ILE216      0.1595
     56  C         13.7770   20.1630    1.8810 C.2   216  ILE216      0.2287
     57  O         14.8570   19.6200    1.7040 O.2   216  ILE216     -0.2864
     58  CB        11.8920   18.5310    1.5260 C.3   216  ILE216      0.0276
     59  CG1       12.6280   17.1920    1.2870 C.3   216  ILE216      0.0022
     60  CG2       11.5730   19.3400    0.2670 C.3   216  ILE216      0.0022
     61  CD1       13.6400   17.1860    0.2170 C.3   216  ILE216      0.0001
     62  N         13.3300   11.2030    1.4900 N.3   232  ASN232     -0.1225
     63  CA        12.0290   11.8890    1.6150 C.3   232  ASN232      0.1785
     64  C         10.8850   10.9730    1.2360 C.2   232  ASN232      0.2597
     65  O         11.0340   10.1250    0.3450 O.2   232  ASN232     -0.2718
     66  CB        12.0310   13.1230    0.7110 C.3   232  ASN232      0.1169
     67  CG        10.8620   14.0730    0.9880 C.2   232  ASN232      0.2627
     68  OD1       10.2170   14.5340    0.0510 O.2   232  ASN232     -0.2716
     69  ND2       10.6060   14.3890    2.2680 N.am  232  ASN232     -0.0877
     70  N          9.7550   11.1010    1.9320 N.am  233  ALA233     -0.1966
     71  CA         8.5580   10.3440    1.6010 C.3   233  ALA233      0.1728
     72  C          7.3920   11.1760    2.0420 C.2   233  ALA233      0.2617
     73  O          7.5360   11.9630    2.9780 O.2   233  ALA233     -0.2715
     74  CB         8.5000    8.9820    2.3310 C.3   233  ALA233      0.0334
     75  N          6.2450   10.9660    1.3930 N.am  234  GLY234     -0.1940
     76  CA         5.0340   11.7430    1.6580 C.3   234  GLY234      0.2014
     77  C          4.0790   11.4800    0.5190 C.2   234  GLY234      0.2639
     78  O          4.0610   10.3900   -0.0580 O.2   234  GLY234     -0.2714
     79  N          3.3190   12.4910    0.1450 N.am  235  TYR235     -0.1959
     80  CA         2.2800   12.3020   -0.8540 C.3   235  TYR235      0.1771
     81  C          1.9380   13.6570   -1.3770 C.2   235  TYR235      0.2619
     82  O          2.1940   14.6770   -0.7080 O.2   235  TYR235     -0.2715
     83  CB         1.0120   11.6340   -0.2600 C.3   235  TYR235      0.0574
     84  CG         0.7830   12.0590    1.1540 C.ar  235  TYR235     -0.0198
     85  CD1        0.1870   13.2870    1.4630 C.ar  235  TYR235     -0.0009
     86  CD2        1.2070   11.2420    2.2110 C.ar  235  TYR235     -0.0009
     87  CE1        0.0040   13.6990    2.8080 C.ar  235  TYR235      0.0417
     88  CE2        1.0300   11.6430    3.5460 C.ar  235  TYR235      0.0417
     89  CZ         0.4450   12.8620    3.8280 C.ar  235  TYR235      0.1957
     90  OH         0.3120   13.2040    5.1530 O.3   235  TYR235     -0.2866
     91  N          1.3790   13.6580   -2.5860 N.am  236  VAL236     -0.1977
     92  CA         0.8120   14.8350   -3.1770 C.3   236  VAL236      0.1596
     93  C         -0.6300   14.4220   -3.4320 C.2   236  VAL236      0.2287
     94  O         -0.9530   13.7270   -4.3940 O.2   236  VAL236     -0.2864
     95  CB         1.5420   15.2410   -4.4770 C.3   236  VAL236      0.0276
     96  CG1        0.9670   16.5810   -4.9640 C.3   236  VAL236      0.0022
     97  CG2        3.0710   15.4010   -4.2130 C.3   236  VAL236      0.0022
     98  N         -1.3840   10.8560   -4.6330 N.3   239  ILE239     -0.1245
     99  CA        -0.1850   10.1780   -5.1700 C.3   239  ILE239      0.1561
    100  C          0.8110    9.9700   -4.0700 C.2   239  ILE239      0.2260
    101  O          1.2800   10.9490   -3.4960 O.2   239  ILE239     -0.2867
    102  CB         0.5080   10.9810   -6.3150 C.3   239  ILE239      0.0252
    103  CG1       -0.4890   11.2090   -7.4710 C.3   239  ILE239      0.0019
    104  CG2        1.8010   10.2280   -6.7650 C.3   239  ILE239      0.0019
    105  CD1        0.0660   12.0050   -8.7350 C.3   239  ILE239      0.0001
    106  N          4.4390    9.2950   -2.6130 N.3   241  VAL241     -0.1245
    107  CA         5.7580    9.7400   -3.0990 C.3   241  VAL241      0.1561
    108  C          6.8650    9.2600   -2.1860 C.2   241  VAL241      0.2260
    109  O          6.7910    9.4130   -0.9670 O.2   241  VAL241     -0.2867
    110  CB         5.8440   11.2970   -3.2330 C.3   241  VAL241      0.0252
    111  CG1        7.2780   11.7300   -3.7020 C.3   241  VAL241      0.0019
    112  CG2        4.7930   11.8230   -4.2170 C.3   241  VAL241      0.0019
    113  N         11.4660    9.0210   -2.2040 N.3   243  GLY243     -0.1225
    114  CA        12.6030    9.4770   -2.9450 C.3   243  GLY243      0.1811
    115  C         12.6360   11.0060   -2.9760 C.2   243  GLY243      0.2280
    116  O         11.6170   11.6480   -2.7570 O.2   243  GLY243     -0.2866
    117  N         18.0100   17.0630   -3.9300 N.3   254  TYR254     -0.1241
    118  CA        16.6130   17.4300   -4.1920 C.3   254  TYR254      0.1605
    119  C         16.5010   18.6150   -5.1570 C.2   254  TYR254      0.2264
    120  O         15.4800   18.8000   -5.7940 O.2   254  TYR254     -0.2867
    121  CB        15.8910   17.7550   -2.8780 C.3   254  TYR254      0.0534
    122  CG        14.3820   17.9150   -2.9930 C.ar  254  TYR254     -0.0201
    123  CD1       13.5450   16.8030   -3.1310 C.ar  254  TYR254     -0.0009
    124  CD2       13.7880   19.1880   -2.9340 C.ar  254  TYR254     -0.0009
    125  CE1       12.1380   16.9540   -3.2100 C.ar  254  TYR254      0.0417
    126  CE2       12.3930   19.3550   -3.0170 C.ar  254  TYR254      0.0417
    127  CZ        11.5780   18.2340   -3.1570 C.ar  254  TYR254      0.1957
    128  OH        10.1990   18.3950   -3.2490 O.3   254  TYR254     -0.2866
    129  N         15.7710   20.2160  -10.6160 N.3   258  LYS258     -0.1245
    130  CA        14.9850   21.4340  -10.6110 C.3   258  LYS258      0.1561
    131  C         15.1430   22.1980   -9.3060 C.2   258  LYS258      0.2260
    132  O         15.1590   23.4330   -9.3110 O.2   258  LYS258     -0.2867
    133  CB        13.5110   21.1380  -10.9030 C.3   258  LYS258      0.0271
    134  CG        12.8040   20.4000   -9.8590 C.3   258  LYS258      0.0035
    135  CD        11.3770   20.0420  -10.3150 C.3   258  LYS258      0.0206
    136  CE        10.4310   19.4260   -9.3620 C.3   258  LYS258      0.1093
    137  NZ        10.9110   18.3110   -8.6080 N.3   258  LYS258     -0.1314
    138  N         -3.4190   25.6450    1.9910 N.3   273  PHE273     -0.1241
    139  CA        -3.3400   24.2980    1.5110 C.3   273  PHE273      0.1605
    140  C         -3.3520   23.2480    2.6230 C.2   273  PHE273      0.2264
    141  O         -2.5580   23.3170    3.5400 O.2   273  PHE273     -0.2867
    142  CB        -2.1100   24.0820    0.6040 C.3   273  PHE273      0.0534
    143  CG        -1.9380   22.6400    0.1530 C.ar  273  PHE273     -0.0203
    144  CD1       -2.7060   22.1240   -0.8830 C.ar  273  PHE273     -0.0042
    145  CD2       -1.0200   21.8060    0.7740 C.ar  273  PHE273     -0.0042
    146  CE1       -2.5830   20.8080   -1.2920 C.ar  273  PHE273     -0.0003
    147  CE2       -0.8570   20.4750    0.3660 C.ar  273  PHE273     -0.0003
    148  CZ        -1.6490   19.9650   -0.6770 C.ar  273  PHE273     -0.0000
    149  N         -3.3770   18.8560    2.6710 N.3   275  PRO275     -0.2116
    150  CA        -3.3570   17.7280    1.7640 C.3   275  PRO275      0.1372
    151  C         -4.5860   16.8190    1.9370 C.2   275  PRO275      0.2244
    152  O         -5.1590   16.6910    3.0340 O.2   275  PRO275     -0.2868
    153  CB        -2.0530   16.9970    2.1410 C.3   275  PRO275      0.0268
    154  CG        -1.8380   17.3230    3.5830 C.3   275  PRO275      0.0207
    155  CD        -2.3720   18.7300    3.7540 C.3   275  PRO275      0.0892
    156  N         12.7690   10.4450   -7.6820 N.3   309  ARG309     -0.1231
    157  CA        11.5570   10.7110   -6.9160 C.3   309  ARG309      0.1694
    158  C         10.4620    9.8870   -7.5640 C.2   309  ARG309      0.2592
    159  O         10.1580   10.0540   -8.7580 O.2   309  ARG309     -0.2718
    160  CB        11.2070   12.2050   -6.9990 C.3   309  ARG309      0.0321
    161  CG         9.9810   12.5870   -6.2030 C.3   309  ARG309      0.0489
    162  CD        10.0830   14.0910   -6.0190 C.3   309  ARG309      0.2205
    163  NE         8.9210   14.6400   -5.3480 N.pl3 309  ARG309     -0.0865
    164  CZ         7.8810   15.1480   -5.9920 C.cat 309  ARG309      0.5346
    165  NH1        7.8850   15.1630   -7.3200 N.pl3 309  ARG309      0.1354
    166  NH2        6.8430   15.6300   -5.3110 N.pl3 309  ARG309      0.1354
    167  N          9.8700    8.9980   -6.7990 N.am  310  ILE310     -0.1966
    168  CA         8.9010    8.0590   -7.3560 C.3   310  ILE310      0.1727
    169  C          7.4530    8.3190   -6.8720 C.2   310  ILE310      0.2616
    170  O          7.2190    8.4970   -5.6780 O.2   310  ILE310     -0.2715
    171  CB         9.3190    6.6080   -6.9860 C.3   310  ILE310      0.0290
    172  CG1       10.7160    6.3330   -7.5450 C.3   310  ILE310      0.0022
    173  CG2        8.3210    5.5940   -7.5210 C.3   310  ILE310      0.0023
    174  CD1       11.4520    5.2800   -6.7720 C.3   310  ILE310      0.0001
    175  N          6.5080    8.3630   -7.8100 N.am  311  GLY311     -0.1955
    176  CA         5.1040    8.5120   -7.4900 C.3   311  GLY311      0.1869
    177  C          4.3510    7.2410   -7.8250 C.2   311  GLY311      0.2309
    178  O          4.4530    6.7120   -8.9550 O.2   311  GLY311     -0.2863
    179  N          0.3800    6.1670   -8.1910 N.3   313  TRP313     -0.1241
    180  CA        -0.9720    6.7110   -8.2350 C.3   313  TRP313      0.1605
    181  C         -1.9160    5.8010   -7.4640 C.2   313  TRP313      0.2264
    182  O         -1.6940    4.5910   -7.3330 O.2   313  TRP313     -0.2867
    183  CB        -1.4740    6.7930   -9.6670 C.3   313  TRP313      0.0550
    184  CG        -1.1270    8.0600  -10.3930 C.ar  313  TRP313      0.0003
    185  CD1       -2.0120    8.9420  -10.9490 C.ar  313  TRP313      0.0946
    186  CD2        0.1880    8.5950  -10.6420 C.ar  313  TRP313      0.0152
    187  NE1       -1.3290    9.9960  -11.5420 N.ar  313  TRP313     -0.2442
    188  CE2        0.0190    9.7830  -11.4000 C.ar  313  TRP313      0.0810
    189  CE3        1.4870    8.1440  -10.3780 C.ar  313  TRP313      0.0012
    190  CZ2        1.1050   10.5790  -11.8100 C.ar  313  TRP313      0.0191
    191  CZ3        2.5850    8.9480  -10.8050 C.ar  313  TRP313      0.0001
    192  CH2        2.3800   10.1360  -11.4850 C.ar  313  TRP313      0.0015
    193  N          5.3400    6.4120  -11.6180 N.3   320  HIS320     -0.1241
    194  CA         6.1390    7.2650  -12.4710 C.3   320  HIS320      0.1621
    195  C          7.3140    7.7770  -11.6660 C.2   320  HIS320      0.2264
    196  O          7.2080    8.1100  -10.4590 O.2   320  HIS320     -0.2867
    197  CB         5.3080    8.4210  -13.0260 C.3   320  HIS320      0.0745
    198  CG         6.1130    9.4600  -13.7310 C.ar  320  HIS320      0.0817
    199  ND1        6.6460    9.2630  -14.9900 N.ar  320  HIS320     -0.2268
    200  CD2        6.4850   10.7100  -13.3560 C.ar  320  HIS320      0.1154
    201  CE1        7.3140   10.3440  -15.3590 C.ar  320  HIS320      0.1986
    202  NE2        7.2290   11.2370  -14.3880 N.ar  320  HIS320     -0.2212
    203  N         10.6360   10.4020  -11.4010 N.3   322  GLN322     -0.1245
    204  CA        11.3360   11.6220  -11.8740 C.3   322  GLN322      0.1566
    205  C         12.8240   11.5540  -11.5620 C.2   322  GLN322      0.2260
    206  O         13.2280   11.2780  -10.4320 O.2   322  GLN322     -0.2867
    207  CB        10.7830   12.8990  -11.2450 C.3   322  GLN322      0.0367
    208  CG         9.4400   13.3710  -11.7420 C.3   322  GLN322      0.0905
    209  CD         8.7430   14.2930  -10.7280 C.2   322  GLN322      0.2608
    210  OE1        9.3900   14.9520   -9.8930 O.2   322  GLN322     -0.2717
    211  NE2        7.4170   14.3330  -10.7980 N.am  322  GLN322     -0.0878
@<TRIPOS>BOND
     1   201   199   ar
     2   201   202   ar
     3   199   198   ar
     4   202   200   ar
     5   198   200   ar
     6   198   197    1
     7   197   194    1
     8   194   195    1
     9   194   193    1
    10   204   205    1
    11   204   203    1
    12   204   207    1
    13   190   192   ar
    14   190   188   ar
    15   208   207    1
    16   208   209    1
    17   195   196    2
    18   205   206    2
    19   187   188   ar
    20   187   185   ar
    21   192   191   ar
    22   188   186   ar
    23   185   184   ar
    24   133   130    1
    25   133   134    1
    26   191   189   ar
    27   211   209   am
    28   209   210    2
    29   186   184   ar
    30   186   189   ar
    31   129   130    1
    32   130   131    1
    33   184   183    1
    34   135   134    1
    35   135   136    1
    36   183   180    1
    37   136   137    1
    38   132   131    2
    39   178   177    2
    40   159   158    2
    41   105   103    1
    42   180   179    1
    43   180   181    1
    44   177   176    1
    45   175   176    1
    46   175   169   am
    47   156   157    1
    48   158   157    1
    49   158   167   am
    50   172   171    1
    51   172   174    1
    52   173   171    1
    53   103   102    1
    54   181   182    2
    55   168   171    1
    56   168   169    1
    57   168   167    1
    58   165   164    1
    59   160   157    1
    60   160   161    1
    61   169   170    2
    62   104   102    1
    63   102    99    1
    64   161   162    1
    65   162   163    1
    66   164   163    2
    67   164   166    1
    68   120   119    2
    69    99    98    1
    70    99   100    1
    71   119   118    1
    72    96    95    1
    73    95    97    1
    74    95    92    1
    75    94    93    2
    76   112   110    1
    77   118   117    1
    78   118   121    1
    79   100   101    2
    80   111   110    1
    81    93    92    1
    82   128   127    1
    83   110   107    1
    84   125   127   ar
    85   125   123   ar
    86    92    91    1
    87   127   126   ar
    88   123   122   ar
    89   107   106    1
    90   107   108    1
    91   126   124   ar
    92   122   124   ar
    93   122   121    1
    94   115   114    1
    95   115   116    2
    96   114   113    1
    97    91    81   am
    98   108   109    2
    99    81    80    1
   100    81    82    2
   101   146   144   ar
   102   146   148   ar
   103   144   143   ar
   104    80    83    1
   105    80    79    1
   106   148   147   ar
   107    83    84    1
   108    78    77    2
   109    68    67    2
   110    79    77   am
   111   143   142    1
   112   143   145   ar
   113    61    59    1
   114    60    58    1
   115    65    64    2
   116   147   145   ar
   117    44    42   ar
   118    44    45   ar
   119    77    76    1
   120   142   139    1
   121    66    67    1
   122    66    63    1
   123    42    40   ar
   124    67    69   am
   125    84    85   ar
   126    84    86   ar
   127    64    63    1
   128    64    70   am
   129    59    58    1
   130    75    76    1
   131    75    72   am
   132    45    43   ar
   133    85    87   ar
   134    62    63    1
   135   139   138    1
   136   139   140    1
   137    58    55    1
   138    71    70    1
   139    71    72    1
   140    71    74    1
   141    57    56    2
   142    38    37    2
   143   150   151    1
   144   150   153    1
   145   150   149    1
   146    56    55    1
   147   151   152    2
   148    40    39    1
   149    40    41   ar
   150    72    73    2
   151   153   154    1
   152    86    88   ar
   153    39    36    1
   154    55    54    1
   155    37    36    1
   156   140   141    2
   157   149   155    1
   158    43    41   ar
   159    87    89   ar
   160    36    35    1
   161    54    48   am
   162    88    89   ar
   163   154   155    1
   164    89    90    1
   165    46    47    1
   166     8     6    1
   167    48    49    2
   168    48    47    1
   169    12    11    2
   170    30    29    2
   171    47    50    1
   172     6     5    1
   173    13    14    1
   174    13    15    1
   175    13    10    1
   176    11    10    1
   177    11    16   am
   178     7     5    1
   179    50    51    1
   180    25    24    2
   181    29    28    1
   182    34    32   ar
   183    28    31    1
   184    28    27    1
   185     9    10    1
   186    17    20    1
   187    17    16    1
   188    17    18    1
   189    20    21    1
   190    31    32    1
   191     5     2    1
   192    51    53    1
   193    51    52    1
   194    32    33   ar
   195    24    27   am
   196    24    23    1
   197    18    22   am
   198    18    19    2
   199    22    23    1
   200     2     1    1
   201     2     3    1
   202    23    26    1
   203     4     3    2
