@<TRIPOS>MOLECULE
tmp/3h5sA00.pdb
 200 189 0 0 0
SMALL
GASTEIGER

@<TRIPOS>ATOM
      1  N         -1.7640    5.6120    7.0080 N.3   188  PHE188     -0.1241
      2  CA        -2.6480    4.5990    7.5830 C.3   188  PHE188      0.1605
      3  C         -1.8650    3.4580    8.2060 C.2   188  PHE188      0.2264
      4  O         -2.4390    2.5380    8.7690 O.2   188  PHE188     -0.2867
      5  CB        -3.6210    4.0370    6.5210 C.3   188  PHE188      0.0534
      6  CG        -4.7220    4.9770    6.1160 C.ar  188  PHE188     -0.0203
      7  CD1       -5.6020    5.5110    7.0670 C.ar  188  PHE188     -0.0042
      8  CD2       -4.9270    5.3030    4.7750 C.ar  188  PHE188     -0.0042
      9  CE1       -6.6350    6.3560    6.6910 C.ar  188  PHE188     -0.0003
     10  CE2       -5.9720    6.1680    4.4000 C.ar  188  PHE188     -0.0003
     11  CZ        -6.8310    6.6700    5.3440 C.ar  188  PHE188     -0.0000
     12  N         -2.0330    6.3840   16.5760 N.3   192  PRO192     -0.2116
     13  CA        -1.9410    7.8110   16.9190 C.3   192  PRO192      0.1372
     14  C         -0.5620    8.2020   17.4590 C.2   192  PRO192      0.2244
     15  O          0.0010    9.1990   17.0250 O.2   192  PRO192     -0.2868
     16  CB        -3.0370    7.9810   17.9830 C.3   192  PRO192      0.0268
     17  CG        -4.0250    6.8910   17.6380 C.3   192  PRO192      0.0207
     18  CD        -3.1930    5.7410   17.2140 C.3   192  PRO192      0.0892
     19  N          1.8790    8.4180   14.7570 N.3   195  ARG195     -0.1245
     20  CA         1.6030    9.5620   13.9110 C.3   195  ARG195      0.1563
     21  C          2.0870   10.8670   14.5300 C.2   195  ARG195      0.2260
     22  O          2.6470   11.7000   13.8150 O.2   195  ARG195     -0.2867
     23  CB         0.1060    9.6610   13.5950 C.3   195  ARG195      0.0307
     24  CG        -0.2350   10.6910   12.5460 C.3   195  ARG195      0.0489
     25  CD        -1.7490   10.8790   12.4010 C.3   195  ARG195      0.2205
     26  NE        -2.0430   12.0880   11.6250 N.pl3 195  ARG195     -0.0865
     27  CZ        -2.1080   12.1420   10.2960 C.cat 195  ARG195      0.5346
     28  NH1       -1.9400   11.0640    9.5580 N.pl3 195  ARG195      0.1354
     29  NH2       -2.3460   13.2910    9.6960 N.pl3 195  ARG195      0.1354
     30  N        -13.1390   12.7040   -4.6710 N.3   220  ASP220     -0.1239
     31  CA       -13.5950   11.5220   -5.4190 C.3   220  ASP220      0.1674
     32  C        -14.0440   11.9040   -6.8360 C.2   220  ASP220      0.2266
     33  O        -13.7210   11.2170   -7.8060 O.2   220  ASP220     -0.2867
     34  CB       -14.7330   10.8230   -4.6810 C.3   220  ASP220      0.1410
     35  CG       -14.2630    9.9640   -3.5270 C.2   220  ASP220      0.3668
     36  OD1      -13.0590    9.9020   -3.1780 O.co2 220  ASP220     -0.2456
     37  OD2      -15.1360    9.2900   -2.9640 O.co2 220  ASP220     -0.2456
     38  N        -16.9440    5.7370   -4.1960 N.3   277  SER277     -0.1217
     39  CA       -16.5980    5.9170   -2.7880 C.3   277  SER277      0.1889
     40  C        -16.6880    4.6230   -1.9800 C.2   277  SER277      0.2288
     41  O        -16.1920    4.5700   -0.8490 O.2   277  SER277     -0.2866
     42  CB       -17.5100    6.9980   -2.1490 C.3   277  SER277      0.2089
     43  OG       -18.8840    6.7930   -2.4860 O.3   277  SER277     -0.2183
     44  N        -10.9000    2.3750   -2.9940 N.3   282  THR282     -0.1203
     45  CA       -11.1250    3.7890   -2.7150 C.3   282  THR282      0.1994
     46  C         -9.9950    4.4330   -1.8950 C.2   282  THR282      0.2618
     47  O         -9.5170    5.4890   -2.2420 O.2   282  THR282     -0.2717
     48  CB       -12.4560    4.0300   -2.0040 C.3   282  THR282      0.1784
     49  OG1      -13.5230    3.5180   -2.8060 O.3   282  THR282     -0.2211
     50  CG2      -12.6710    5.5310   -1.7730 C.3   282  THR282      0.0376
     51  N         -9.5580    3.7720   -0.8300 N.am  283  SER283     -0.1951
     52  CA        -8.5280    4.3340    0.0510 C.3   283  SER283      0.1924
     53  C         -7.1630    4.3080   -0.5960 C.2   283  SER283      0.2314
     54  O         -6.4790    5.3230   -0.6440 O.2   283  SER283     -0.2863
     55  CB        -8.4770    3.5910    1.3830 C.3   283  SER283      0.2116
     56  OG        -7.5680    4.2390    2.2470 O.3   283  SER283     -0.2180
     57  N         -7.1700    6.6210   -3.6880 N.3   286  ASN286     -0.1240
     58  CA        -7.1440    8.0080   -3.2680 C.3   286  ASN286      0.1653
     59  C         -5.7680    8.3700   -2.7380 C.2   286  ASN286      0.2266
     60  O         -5.2580    9.4380   -3.0640 O.2   286  ASN286     -0.2867
     61  CB        -8.2470    8.3250   -2.2350 C.3   286  ASN286      0.1155
     62  CG        -9.5840    8.6510   -2.8850 C.2   286  ASN286      0.2627
     63  OD1       -9.7110    8.6440   -4.1140 O.2   286  ASN286     -0.2716
     64  ND2      -10.6020    8.9400   -2.0540 N.am  286  ASN286     -0.0877
     65  N         -3.2780   10.4460    3.8980 N.3   311  ASN311     -0.1225
     66  CA        -4.2530    9.4170    4.2940 C.3   311  ASN311      0.1785
     67  C         -5.4210    9.5950    3.3510 C.2   311  ASN311      0.2598
     68  O         -6.2580   10.4320    3.5960 O.2   311  ASN311     -0.2718
     69  CB        -4.7730    9.6490    5.7300 C.3   311  ASN311      0.1169
     70  CG        -3.7440    9.3710    6.7900 C.2   311  ASN311      0.2627
     71  OD1       -2.7320   10.0530    6.8800 O.2   311  ASN311     -0.2716
     72  ND2       -4.0120    8.3690    7.6270 N.am  311  ASN311     -0.0877
     73  N         -5.4750    8.8360    2.2560 N.am  312  GLY312     -0.1942
     74  CA        -6.5200    9.0380    1.2710 C.3   312  GLY312      0.2014
     75  C         -6.2840   10.3850    0.6450 C.2   312  GLY312      0.2639
     76  O         -5.1890   10.6670    0.2350 O.2   312  GLY312     -0.2714
     77  N         -7.3020   11.2250    0.6210 N.am  313  ASP313     -0.1957
     78  CA        -7.1790   12.5920    0.1290 C.3   313  ASP313      0.1840
     79  C         -6.7760   13.5890    1.2190 C.2   313  ASP313      0.2622
     80  O         -6.6760   14.7860    0.9530 O.2   313  ASP313     -0.2715
     81  CB        -8.4810   13.0360   -0.5330 C.3   313  ASP313      0.1450
     82  CG        -9.6170   13.2880    0.4570 C.2   313  ASP313      0.3671
     83  OD1       -9.6030   12.7850    1.6010 O.co2 313  ASP313     -0.2456
     84  OD2      -10.5630   14.0000    0.0730 O.co2 313  ASP313     -0.2456
     85  N         -6.5390   13.1030    2.4380 N.am  314  ASP314     -0.1971
     86  CA        -6.1220   13.9800    3.5110 C.3   314  ASP314      0.1709
     87  C         -4.6070   14.1520    3.4290 C.2   314  ASP314      0.2293
     88  O         -3.8440   13.2020    3.5580 O.2   314  ASP314     -0.2864
     89  CB        -6.5890   13.4480    4.8560 C.3   314  ASP314      0.1436
     90  CG        -6.3770   14.4500    5.9750 C.2   314  ASP314      0.3671
     91  OD1       -5.1940   14.6360    6.3590 O.co2 314  ASP314     -0.2456
     92  OD2       -7.3770   15.0530    6.4590 O.co2 314  ASP314     -0.2456
     93  N         -5.9730   14.8190    9.1520 N.3   361  CYS361     -0.1221
     94  CA        -6.9540   13.8450    9.6090 C.3   361  CYS361      0.1808
     95  C         -7.7890   14.4540   10.7450 C.2   361  CYS361      0.2602
     96  O         -7.9470   13.8500   11.8000 O.2   361  CYS361     -0.2717
     97  CB        -6.2680   12.5400   10.0370 C.3   361  CYS361      0.0970
     98  SG        -5.5410   11.5910    8.6540 S.3   361  CYS361     -0.0800
     99  N         -8.2660   15.6780   10.5270 N.am  362  SER362     -0.1938
    100  CA        -9.1510   16.3830   11.4580 C.3   362  SER362      0.2055
    101  C         -8.5480   16.6440   12.8410 C.2   362  SER362      0.2643
    102  O         -9.2670   16.9650   13.7620 O.2   362  SER362     -0.2714
    103  CB       -10.4800   15.6180   11.6160 C.3   362  SER362      0.2130
    104  OG       -11.0480   15.3530   10.3550 O.3   362  SER362     -0.2179
    105  N         -7.2350   16.5000   12.9840 N.am  363  SER363     -0.1949
    106  CA        -6.5980   16.5370   14.2900 C.3   363  SER363      0.1924
    107  C         -5.4170   17.5050   14.2890 C.2   363  SER363      0.2314
    108  O         -4.7760   17.7220   13.2610 O.2   363  SER363     -0.2863
    109  CB        -6.1110   15.1410   14.6730 C.3   363  SER363      0.2116
    110  OG        -7.1310   14.1880   14.4920 O.3   363  SER363     -0.2180
    111  N         -2.3970   13.8150   19.8850 N.3   379  LEU379     -0.1245
    112  CA        -3.3040   14.3570   18.9040 C.3   379  LEU379      0.1561
    113  C         -4.6960   14.5520   19.4770 C.2   379  LEU379      0.2260
    114  O         -5.2540   13.6750   20.1530 O.2   379  LEU379     -0.2867
    115  CB        -3.3320   13.4570   17.6550 C.3   379  LEU379      0.0270
    116  CG        -2.1150   13.6520   16.7400 C.3   379  LEU379      0.0019
    117  CD1       -2.0190   12.4940   15.7670 C.3   379  LEU379      0.0001
    118  CD2       -2.2160   14.9720   15.9900 C.3   379  LEU379      0.0001
    119  N         -8.5610   17.1660   18.7510 N.3   381  ARG381     -0.1245
    120  CA        -9.3590   17.9180   17.8010 C.3   381  ARG381      0.1563
    121  C        -10.4140   18.7280   18.5440 C.2   381  ARG381      0.2260
    122  O        -10.6320   18.5180   19.7390 O.2   381  ARG381     -0.2867
    123  CB       -10.0370   16.9760   16.8070 C.3   381  ARG381      0.0307
    124  CG       -10.9410   15.8910   17.4130 C.3   381  ARG381      0.0489
    125  CD       -11.8020   15.2720   16.3360 C.3   381  ARG381      0.2205
    126  NE       -12.7630   16.2640   15.8780 N.pl3 381  ARG381     -0.0865
    127  CZ       -13.3860   16.2840   14.7030 C.cat 381  ARG381      0.5346
    128  NH1      -13.1780   15.3630   13.7920 N.pl3 381  ARG381      0.1354
    129  NH2      -14.2420   17.2610   14.4430 N.pl3 381  ARG381      0.1354
    130  N        -14.8690    4.6770   18.5920 N.3   405  GLY405     -0.1210
    131  CA       -13.7990    5.1010   17.7130 C.3   405  GLY405      0.1956
    132  C        -13.0680    6.3010   18.2980 C.2   405  GLY405      0.2611
    133  O        -11.8410    6.3430   18.3120 O.2   405  GLY405     -0.2717
    134  N        -13.8290    7.2680   18.8010 N.am  406  ASN406     -0.1974
    135  CA       -13.2500    8.4650   19.3880 C.3   406  ASN406      0.1688
    136  C        -12.5070    8.2240   20.7220 C.2   406  ASN406      0.2292
    137  O        -11.4210    8.7830   20.9320 O.2   406  ASN406     -0.2864
    138  CB       -14.3260    9.5530   19.5020 C.3   406  ASN406      0.1181
    139  CG       -14.5730   10.2640   18.1820 C.2   406  ASN406      0.2629
    140  OD1      -13.6340   10.5060   17.4170 O.2   406  ASN406     -0.2716
    141  ND2      -15.8230   10.6160   17.9130 N.am  406  ASN406     -0.0877
    142  N         -9.0970    6.4440   19.5330 N.3   409  MET409     -0.1230
    143  CA        -8.1020    7.2410   18.8150 C.3   409  MET409      0.1702
    144  C         -7.7340    8.5370   19.5410 C.2   409  MET409      0.2592
    145  O         -6.6260    9.0880   19.3560 O.2   409  MET409     -0.2718
    146  CB        -8.5950    7.5230   17.3790 C.3   409  MET409      0.0401
    147  CG        -8.7470    6.2140   16.5290 C.3   409  MET409      0.0596
    148  SD        -7.1550    5.3930   16.2600 S.3   409  MET409     -0.1393
    149  CE        -6.5920    6.2360   14.7730 C.3   409  MET409      0.0692
    150  N         -8.6600    9.0430   20.3480 N.am  410  TYR410     -0.1976
    151  CA        -8.4120   10.2630   21.1120 C.3   410  TYR410      0.1639
    152  C         -8.3770    9.9950   22.6180 C.2   410  TYR410      0.2290
    153  O         -8.6100   10.8980   23.4070 O.2   410  TYR410     -0.2864
    154  CB        -9.4590   11.3330   20.7870 C.3   410  TYR410      0.0560
    155  CG        -9.4090   11.8440   19.3840 C.ar  410  TYR410     -0.0198
    156  CD1       -8.3520   12.6010   18.9520 C.ar  410  TYR410     -0.0009
    157  CD2      -10.4240   11.5650   18.4860 C.ar  410  TYR410     -0.0009
    158  CE1       -8.2940   13.0740   17.6700 C.ar  410  TYR410      0.0417
    159  CE2      -10.3750   12.0170   17.2000 C.ar  410  TYR410      0.0417
    160  CZ        -9.3130   12.7830   16.7900 C.ar  410  TYR410      0.1957
    161  OH        -9.2710   13.2610   15.5070 O.3   410  TYR410     -0.2866
    162  N        -15.3520    1.8990   13.4560 N.3   441  GLN441     -0.1231
    163  CA       -14.5550    1.9940   12.2490 C.3   441  GLN441      0.1698
    164  C        -13.3170    2.8150   12.5010 C.2   441  GLN441      0.2592
    165  O        -13.3980    3.9890   12.8810 O.2   441  GLN441     -0.2718
    166  CB       -15.3610    2.5920   11.0950 C.3   441  GLN441      0.0381
    167  CG       -16.3400    1.6090   10.4830 C.3   441  GLN441      0.0905
    168  CD       -16.9350    2.1020    9.1880 C.2   441  GLN441      0.2608
    169  OE1      -16.9540    3.3040    8.9090 O.2   441  GLN441     -0.2717
    170  NE2      -17.4130    1.1670    8.3730 N.am  441  GLN441     -0.0878
    171  N        -12.1770    2.1790   12.2710 N.am  442  ILE442     -0.1966
    172  CA       -10.8520    2.7880   12.4320 C.3   442  ILE442      0.1727
    173  C        -10.1260    2.6260   11.0940 C.2   442  ILE442      0.2616
    174  O         -9.9880    1.5150   10.6120 O.2   442  ILE442     -0.2715
    175  CB       -10.0690    2.1080   13.5440 C.3   442  ILE442      0.0290
    176  CG1      -10.7310    2.4320   14.9100 C.3   442  ILE442      0.0022
    177  CG2       -8.5900    2.5650   13.5390 C.3   442  ILE442      0.0023
    178  CD1      -10.4560    1.4010   15.9600 C.3   442  ILE442      0.0001
    179  N         -9.7040    3.7390   10.5100 N.am  443  TYR443     -0.1960
    180  CA        -9.0600    3.7530    9.1840 C.3   443  TYR443      0.1771
    181  C         -9.9390    3.0170    8.1420 C.2   443  TYR443      0.2620
    182  O         -9.4450    2.3690    7.2150 O.2   443  TYR443     -0.2715
    183  CB        -7.6280    3.2020    9.2620 C.3   443  TYR443      0.0574
    184  CG        -6.6290    4.0460   10.0560 C.ar  443  TYR443     -0.0198
    185  CD1       -6.9460    5.3350   10.5190 C.ar  443  TYR443     -0.0009
    186  CD2       -5.3310    3.5690   10.3050 C.ar  443  TYR443     -0.0009
    187  CE1       -6.0300    6.1050   11.2330 C.ar  443  TYR443      0.0417
    188  CE2       -4.3810    4.3530   11.0050 C.ar  443  TYR443      0.0417
    189  CZ        -4.7440    5.6230   11.4730 C.ar  443  TYR443      0.1957
    190  OH        -3.8380    6.4270   12.1720 O.3   443  TYR443     -0.2866
    191  N        -11.2550    3.1580    8.3250 N.am  444  GLY444     -0.1954
    192  CA       -12.2690    2.6750    7.4190 C.3   444  GLY444      0.1869
    193  C        -12.6530    1.2210    7.5950 C.2   444  GLY444      0.2309
    194  O        -13.6410    0.7930    7.0330 O.2   444  GLY444     -0.2863
    195  N        -11.4990    2.7310    3.8260 N.3   551  SER551     -0.1217
    196  CA       -12.7840    3.4670    3.7520 C.3   551  SER551      0.1889
    197  C        -13.5690    3.1150    2.4770 C.2   551  SER551      0.2288
    198  O        -13.0410    3.2150    1.3740 O.2   551  SER551     -0.2866
    199  CB       -12.5690    4.9930    3.8450 C.3   551  SER551      0.2089
    200  OG       -13.7530    5.7050    3.5130 O.3   551  SER551     -0.2183
@<TRIPOS>BOND
     1    33    32    2
     2    32    31    1
     3    31    34    1
     4    31    30    1
     5    34    35    1
     6    38    39    1
     7    63    62    2
     8    57    58    1
     9    35    36   ar
    10    35    37   ar
    11    58    59    1
    12    58    61    1
    13    60    59    2
    14    44    45    1
    15    62    61    1
    16    62    64   am
    17    49    48    1
    18    39    42    1
    19    39    40    1
    20    45    48    1
    21    45    46    1
    22    43    42    1
    23    47    46    2
    24    48    50    1
    25    40    41    2
    26    46    51   am
    27    51    52    1
    28    54    53    2
    29    53    52    1
    30    81    78    1
    31    81    82    1
    32    52    55    1
    33    84    82   ar
    34    78    77    1
    35    78    79    1
    36    76    75    2
    37    82    83   ar
    38    77    75   am
    39    75    74    1
    40    80    79    2
    41    79    85   am
    42    74    73    1
    43   198   197    2
    44    55    56    1
    45    73    67   am
    46    85    86    1
    47   197   196    1
    48    67    68    2
    49    67    66    1
    50    87    86    1
    51    87    88    2
    52    86    89    1
    53   200   199    1
    54   196   195    1
    55   196   199    1
    56    65    66    1
    57    66    69    1
    58    10     8   ar
    59    10    11   ar
    60     8     6   ar
    61    89    90    1
    62    11     9   ar
    63    69    70    1
    64    90    91   ar
    65    90    92   ar
    66     6     5    1
    67     6     7   ar
    68     5     2    1
    69     9     7   ar
    70    70    71    2
    71    70    72   am
    72     1     2    1
    73   194   193    2
    74   182   181    2
    75   192   193    1
    76   192   191    1
    77     2     3    1
    78   181   191   am
    79   181   180    1
    80     3     4    2
    81   170   168   am
    82    98    97    1
    83   169   168    2
    84    93    94    1
    85   180   183    1
    86   180   179    1
    87   168   167    1
    88   183   184    1
    89    28    27    1
    90    94    97    1
    91    94    95    1
    92    29    27    1
    93   184   186   ar
    94   184   185   ar
    95    27    26    2
    96   186   188   ar
    97   104   103    1
    98   167   166    1
    99   179   173   am
   100   185   187   ar
   101    99    95   am
   102    99   100    1
   103   174   173    2
   104    95    96    2
   105   188   189   ar
   106   173   172    1
   107   166   163    1
   108   187   189   ar
   109   100   103    1
   110   100   101    1
   111   189   190    1
   112    26    25    1
   113   163   164    1
   114   163   162    1
   115   171   172    1
   116   171   164   am
   117    25    24    1
   118   172   175    1
   119   164   165    2
   120    24    23    1
   121   101   105   am
   122   101   102    2
   123   105   106    1
   124   108   107    2
   125   177   175    1
   126   175   176    1
   127    23    20    1
   128   128   127    1
   129    22    21    2
   130    20    21    1
   131    20    19    1
   132   107   106    1
   133   106   109    1
   134   129   127    1
   135   110   109    1
   136   127   126    2
   137   149   148    1
   138   176   178    1
   139   161   160    1
   140   117   116    1
   141   126   125    1
   142   118   116    1
   143   148   147    1
   144   125   124    1
   145   147   146    1
   146    12    13    1
   147    12    18    1
   148   116   115    1
   149   160   159   ar
   150   160   158   ar
   151   123   124    1
   152   123   120    1
   153    13    14    1
   154    13    16    1
   155    15    14    2
   156   159   157   ar
   157    18    17    1
   158   146   143    1
   159   140   139    2
   160    17    16    1
   161   115   112    1
   162   158   156   ar
   163   131   132    1
   164   131   130    1
   165   120   121    1
   166   120   119    1
   167   141   139   am
   168   139   138    1
   169   132   133    2
   170   132   134   am
   171   157   155   ar
   172   121   122    2
   173   134   135    1
   174   143   142    1
   175   143   144    1
   176   112   113    1
   177   112   111    1
   178   156   155   ar
   179   145   144    2
   180   155   154    1
   181   135   138    1
   182   135   136    1
   183   113   114    2
   184   144   150   am
   185   150   151    1
   186   136   137    2
   187   154   151    1
   188   151   152    1
   189   152   153    2
