@<TRIPOS>MOLECULE
tmp/3h67A00.pdb
 123 118 0 0 0
SMALL
GASTEIGER

@<TRIPOS>ATOM
      1  N         30.2250  -17.3470  -40.8370 N.3    67  ASP67      -0.1239
      2  CA        29.8220  -18.0550  -39.6240 C.3    67  ASP67       0.1674
      3  C         29.0540  -17.0350  -38.7330 C.2    67  ASP67       0.2266
      4  O         29.4570  -15.8610  -38.6420 O.2    67  ASP67      -0.2867
      5  CB        31.0300  -18.4920  -38.8040 C.3    67  ASP67       0.1410
      6  CG        32.0100  -19.4350  -39.5410 C.2    67  ASP67       0.3668
      7  OD1       32.3890  -19.1990  -40.6920 O.co2  67  ASP67      -0.2456
      8  OD2       32.5180  -20.3420  -38.8930 O.co2  67  ASP67      -0.2456
      9  N         27.4280  -18.6190  -35.5220 N.3    69  HIS69      -0.1241
     10  CA        27.6960  -19.2930  -34.2250 C.3    69  HIS69       0.1621
     11  C         26.8480  -18.8180  -33.0760 C.2    69  HIS69       0.2264
     12  O         27.3720  -18.5160  -32.0010 O.2    69  HIS69      -0.2867
     13  CB        29.1700  -19.2080  -33.8340 C.3    69  HIS69       0.0745
     14  CG        30.0300  -20.1390  -34.6270 C.ar   69  HIS69       0.0817
     15  ND1       29.9570  -21.5150  -34.5120 N.ar   69  HIS69      -0.2268
     16  CD2       31.0080  -19.8670  -35.5190 C.ar   69  HIS69       0.1154
     17  CE1       30.8420  -22.0470  -35.3500 C.ar   69  HIS69       0.1986
     18  NE2       31.4940  -21.0560  -35.9630 N.ar   69  HIS69      -0.2212
     19  N         27.7920  -22.8900  -40.2830 N.3    96  ASP96      -0.1239
     20  CA        28.1080  -22.6580  -38.8740 C.3    96  ASP96       0.1674
     21  C         27.1840  -21.6050  -38.2040 C.2    96  ASP96       0.2266
     22  O         27.6800  -20.5700  -37.6890 O.2    96  ASP96      -0.2867
     23  CB        29.5890  -22.2430  -38.6730 C.3    96  ASP96       0.1410
     24  CG        30.5990  -23.4330  -38.7920 C.2    96  ASP96       0.3668
     25  OD1       30.2240  -24.5250  -39.1620 O.co2  96  ASP96      -0.2456
     26  OD2       31.7650  -23.2060  -38.5040 O.co2  96  ASP96      -0.2456
     27  N         29.1000  -22.8080  -30.0170 N.3   100  ARG100     -0.1245
     28  CA        29.9500  -21.7170  -29.4640 C.3   100  ARG100      0.1563
     29  C         29.1150  -20.5950  -28.8000 C.2   100  ARG100      0.2260
     30  O         29.1840  -20.4070  -27.5670 O.2   100  ARG100     -0.2867
     31  CB        30.9400  -21.1530  -30.4980 C.3   100  ARG100      0.0307
     32  CG        31.7710  -22.2320  -31.2610 C.3   100  ARG100      0.0489
     33  CD        32.9940  -22.6380  -30.4620 C.3   100  ARG100      0.2205
     34  NE        33.9470  -23.4440  -31.2630 N.pl3 100  ARG100     -0.0865
     35  CZ        35.0430  -24.0530  -30.7970 C.cat 100  ARG100      0.5346
     36  NH1       35.8000  -24.7600  -31.6380 N.pl3 100  ARG100      0.1354
     37  NH2       35.3880  -23.9960  -29.5030 N.pl3 100  ARG100      0.1354
     38  N         30.6820  -27.0970  -40.8940 N.3   128  ASN128     -0.1225
     39  CA        31.1930  -28.2330  -40.1150 C.3   128  ASN128      0.1785
     40  C         30.5020  -28.3820  -38.7710 C.2   128  ASN128      0.2597
     41  O         30.4150  -29.4820  -38.2440 O.2   128  ASN128     -0.2718
     42  CB        32.7560  -28.2940  -39.9590 C.3   128  ASN128      0.1169
     43  CG        33.3470  -27.0070  -39.3340 C.2   128  ASN128      0.2627
     44  OD1       33.0150  -25.9010  -39.7620 O.2   128  ASN128     -0.2716
     45  ND2       34.1850  -27.1490  -38.3190 N.am  128  ASN128     -0.0877
     46  N         29.9110  -27.2840  -38.2920 N.am  129  HIS129     -0.1975
     47  CA        29.0900  -27.3590  -37.0730 C.3   129  HIS129      0.1656
     48  C         27.5780  -27.8090  -37.2570 C.2   129  HIS129      0.2291
     49  O         26.9070  -28.0740  -36.2370 O.2   129  HIS129     -0.2864
     50  CB        29.2350  -26.0440  -36.2820 C.3   129  HIS129      0.0771
     51  CG        30.5350  -25.9430  -35.5110 C.ar  129  HIS129      0.0820
     52  ND1       30.6100  -26.3090  -34.1950 N.ar  129  HIS129     -0.2267
     53  CD2       31.7890  -25.5430  -35.8570 C.ar  129  HIS129      0.1154
     54  CE1       31.8440  -26.1450  -33.7470 C.ar  129  HIS129      0.1986
     55  NE2       32.5880  -25.6920  -34.7400 N.ar  129  HIS129     -0.2212
     56  N         29.9730  -32.4450  -33.7170 N.3   134  MET134     -0.1245
     57  CA        30.2370  -31.0920  -33.2820 C.3   134  MET134      0.1570
     58  C         29.1870  -30.5710  -32.2800 C.2   134  MET134      0.2261
     59  O         29.5600  -30.0070  -31.2330 O.2   134  MET134     -0.2867
     60  CB        30.4100  -30.1620  -34.5000 C.3   134  MET134      0.0387
     61  CG        31.5760  -30.6310  -35.4050 C.3   134  MET134      0.0595
     62  SD        33.2370  -30.6950  -34.6570 S.3   134  MET134     -0.1393
     63  CE        33.6620  -28.9890  -34.4790 C.3   134  MET134      0.0692
     64  N         44.1470  -29.2850  -38.0750 N.3   225  ARG225     -0.1245
     65  CA        42.8570  -29.6390  -37.4480 C.3   225  ARG225      0.1563
     66  C         42.6410  -31.1620  -37.3250 C.2   225  ARG225      0.2260
     67  O         41.7160  -31.6120  -36.6520 O.2   225  ARG225     -0.2867
     68  CB        41.6670  -29.0740  -38.2320 C.3   225  ARG225      0.0307
     69  CG        41.6850  -27.5730  -38.5040 C.3   225  ARG225      0.0489
     70  CD        40.4080  -27.2280  -39.2900 C.3   225  ARG225      0.2205
     71  NE        40.2780  -25.8500  -39.7690 N.pl3 225  ARG225     -0.0865
     72  CZ        39.4030  -24.9450  -39.2780 C.cat 225  ARG225      0.5346
     73  NH1       38.6120  -25.2310  -38.2330 N.pl3 225  ARG225      0.1354
     74  NH2       39.3260  -23.7360  -39.8150 N.pl3 225  ARG225      0.1354
     75  N         34.7930  -20.1340  -42.1410 N.3   252  HIS252     -0.1226
     76  CA        35.5070  -21.2450  -41.3710 C.3   252  HIS252      0.1752
     77  C         36.8240  -20.8440  -40.6130 C.2   252  HIS252      0.2596
     78  O         37.4350  -21.6260  -39.8900 O.2   252  HIS252     -0.2718
     79  CB        35.7110  -22.4130  -42.4000 C.3   252  HIS252      0.0759
     80  CG        36.2540  -23.7170  -41.8840 C.ar  252  HIS252      0.0818
     81  ND1       35.6340  -24.4820  -40.9090 N.ar  252  HIS252     -0.2268
     82  CD2       37.3010  -24.4720  -42.3220 C.ar  252  HIS252      0.1154
     83  CE1       36.3120  -25.5900  -40.7070 C.ar  252  HIS252      0.1986
     84  NE2       37.3100  -25.6310  -41.5690 N.ar  252  HIS252     -0.2212
     85  N         37.2260  -19.5890  -40.7410 N.am  253  GLU253     -0.1965
     86  CA        38.3620  -19.0620  -40.0160 C.3   253  GLU253      0.1733
     87  C         38.0760  -17.6440  -39.5260 C.2   253  GLU253      0.2616
     88  O         37.6190  -16.8030  -40.2790 O.2   253  GLU253     -0.2715
     89  CB        39.6280  -19.0420  -40.9020 C.3   253  GLU253      0.0429
     90  CG        40.1860  -20.4280  -41.2230 C.3   253  GLU253      0.1163
     91  CD        41.5950  -20.3320  -41.8140 C.2   253  GLU253      0.3649
     92  OE1       41.7100  -20.0890  -43.0220 O.co2 253  GLU253     -0.2457
     93  OE2       42.5900  -20.5170  -41.0630 O.co2 253  GLU253     -0.2457
     94  N         38.3580  -17.3800  -38.2550 N.am  254  VAL254     -0.1977
     95  CA        38.2340  -16.0250  -37.7250 C.3   254  VAL254      0.1596
     96  C         39.2920  -15.0970  -38.3470 C.2   254  VAL254      0.2287
     97  O         40.4910  -15.4750  -38.4270 O.2   254  VAL254     -0.2864
     98  CB        38.3150  -15.9570  -36.1500 C.3   254  VAL254      0.0276
     99  CG1       39.7160  -16.1270  -35.6540 C.3   254  VAL254      0.0022
    100  CG2       37.8520  -14.5750  -35.6690 C.3   254  VAL254      0.0022
    101  N         33.6760  -13.7730  -42.5760 N.3   271  PHE271     -0.1241
    102  CA        33.3530  -14.2840  -41.2550 C.3   271  PHE271      0.1605
    103  C         32.3610  -13.3010  -40.6100 C.2   271  PHE271      0.2264
    104  O         32.6770  -12.1310  -40.5260 O.2   271  PHE271     -0.2867
    105  CB        34.6650  -14.4060  -40.4530 C.3   271  PHE271      0.0534
    106  CG        34.5230  -15.0980  -39.1210 C.ar  271  PHE271     -0.0203
    107  CD1       34.4010  -16.4950  -39.0690 C.ar  271  PHE271     -0.0042
    108  CD2       34.5410  -14.3620  -37.9310 C.ar  271  PHE271     -0.0042
    109  CE1       34.2790  -17.1640  -37.8160 C.ar  271  PHE271     -0.0003
    110  CE2       34.4530  -15.0430  -36.6630 C.ar  271  PHE271     -0.0003
    111  CZ        34.2830  -16.4160  -36.6420 C.ar  271  PHE271     -0.0000
    112  N         34.1450  -12.6190  -31.6300 N.3   276  TYR276     -0.1241
    113  CA        33.8160  -14.0050  -31.4930 C.3   276  TYR276      0.1605
    114  C         34.0520  -14.5980  -30.0780 C.2   276  TYR276      0.2264
    115  O         35.1140  -14.4090  -29.4300 O.2   276  TYR276     -0.2867
    116  CB        34.5300  -14.7790  -32.6090 C.3   276  TYR276      0.0534
    117  CG        34.5020  -16.2630  -32.4620 C.ar  276  TYR276     -0.0201
    118  CD1       33.3540  -16.9840  -32.7910 C.ar  276  TYR276     -0.0009
    119  CD2       35.6320  -16.9620  -32.0290 C.ar  276  TYR276     -0.0009
    120  CE1       33.3150  -18.3500  -32.6900 C.ar  276  TYR276      0.0417
    121  CE2       35.5860  -18.3640  -31.8770 C.ar  276  TYR276      0.0417
    122  CZ        34.4300  -19.0370  -32.2350 C.ar  276  TYR276      0.1957
    123  OH        34.3960  -20.4060  -32.1130 O.3   276  TYR276     -0.2866
@<TRIPOS>BOND
     1    92    91   ar
     2   101   102    1
     3    79    80    1
     4    79    76    1
     5    82    80   ar
     6    82    84   ar
     7    75    76    1
     8    80    81   ar
     9    91    90    1
    10    91    93   ar
    11    84    83   ar
    12    76    77    1
    13   102   103    1
    14   102   105    1
    15    90    89    1
    16    81    83   ar
    17    89    86    1
    18    38    39    1
    19     1     2    1
    20    85    77   am
    21    85    86    1
    22     7     6   ar
    23    77    78    2
    24   103   104    2
    25   105   106    1
    26    19    20    1
    27    88    87    2
    28    39    42    1
    29    39    40    1
    30    86    87    1
    31    42    43    1
    32    74    72    1
    33    71    70    1
    34    71    72    2
    35    44    43    2
    36     2     5    1
    37     2     3    1
    38     6     8   ar
    39     6     5    1
    40    87    94   am
    41    43    45   am
    42    70    69    1
    43    72    73    1
    44    25    24   ar
    45   106   107   ar
    46   106   108   ar
    47   107   109   ar
    48    20    23    1
    49    20    21    1
    50    24    23    1
    51    24    26   ar
    52    40    46   am
    53    40    41    2
    54     3     4    2
    55    69    68    1
    56    97    96    2
    57    96    95    1
    58    46    47    1
    59    94    95    1
    60    68    65    1
    61    21    22    2
    62    64    65    1
    63   108   110   ar
    64   109   111   ar
    65    95    98    1
    66    65    66    1
    67    66    67    2
    68    48    47    1
    69    48    49    2
    70    47    50    1
    71   110   111   ar
    72    50    51    1
    73    98   100    1
    74    98    99    1
    75    18    16   ar
    76    18    17   ar
    77    53    51   ar
    78    53    55   ar
    79     9    10    1
    80    16    14   ar
    81    51    52   ar
    82    61    62    1
    83    61    60    1
    84    17    15   ar
    85    55    54   ar
    86    62    63    1
    87    14    15   ar
    88    14    13    1
    89    60    57    1
    90    10    13    1
    91    10    11    1
    92    52    54   ar
    93    56    57    1
    94    57    58    1
    95    11    12    2
    96   118   120   ar
    97   118   117   ar
    98   120   122   ar
    99   116   117    1
   100   116   113    1
   101   117   119   ar
   102    58    59    2
   103   122   123    1
   104   122   121   ar
   105   119   121   ar
   106    36    35    1
   107   112   113    1
   108   113   114    1
   109    34    35    2
   110    34    33    1
   111    32    31    1
   112    32    33    1
   113    35    37    1
   114    31    28    1
   115   114   115    2
   116    27    28    1
   117    28    29    1
   118    29    30    2
