@<TRIPOS>MOLECULE
tmp/3h69B00.pdb
 149 145 0 0 0
SMALL
GASTEIGER

@<TRIPOS>ATOM
      1  N         51.3710  -18.2070  -14.3910 N.3    67  ASP67      -0.1239
      2  CA        51.5610  -18.9280  -15.6720 C.3    67  ASP67       0.1674
      3  C         52.0690  -17.9310  -16.6910 C.2    67  ASP67       0.2266
      4  O         51.6330  -16.7690  -16.6760 O.2    67  ASP67      -0.2867
      5  CB        50.2710  -19.5430  -16.2260 C.3    67  ASP67       0.1410
      6  CG        49.4350  -20.2660  -15.1350 C.2    67  ASP67       0.3668
      7  OD1       49.4920  -19.9430  -13.9310 O.co2  67  ASP67      -0.2456
      8  OD2       48.7320  -21.1680  -15.4810 O.co2  67  ASP67      -0.2456
      9  N         52.8650  -19.2990  -20.2160 N.3    69  HIS69      -0.1241
     10  CA        52.2970  -19.9640  -21.3700 C.3    69  HIS69       0.1621
     11  C         52.8860  -19.6080  -22.7270 C.2    69  HIS69       0.2264
     12  O         52.1280  -19.3680  -23.6900 O.2    69  HIS69      -0.2867
     13  CB        50.7720  -19.8680  -21.3980 C.3    69  HIS69       0.0745
     14  CG        50.1140  -20.9250  -20.5810 C.ar   69  HIS69       0.0817
     15  ND1       50.4830  -22.2610  -20.6480 N.ar   69  HIS69      -0.2268
     16  CD2       49.1960  -20.8330  -19.5910 C.ar   69  HIS69       0.1154
     17  CE1       49.7520  -22.9490  -19.7830 C.ar   69  HIS69       0.1986
     18  NE2       48.9600  -22.1050  -19.1600 N.ar   69  HIS69      -0.2212
     19  N         53.6320  -23.8140  -15.5240 N.3    96  ASP96      -0.1239
     20  CA        52.9640  -23.4590  -16.7680 C.3    96  ASP96       0.1674
     21  C         53.7170  -22.3700  -17.5600 C.2    96  ASP96       0.2266
     22  O         53.2180  -21.2600  -17.7670 O.2    96  ASP96      -0.2867
     23  CB        51.5460  -23.0180  -16.5030 C.3    96  ASP96       0.1410
     24  CG        50.5710  -24.1880  -16.2500 C.2    96  ASP96       0.3668
     25  OD1       51.0620  -25.2230  -15.8610 O.co2  96  ASP96      -0.2456
     26  OD2       49.3320  -24.0950  -16.5010 O.co2  96  ASP96      -0.2456
     27  N         50.0520  -23.7150  -25.3070 N.3   100  ARG100     -0.1245
     28  CA        49.0840  -22.6710  -25.5700 C.3   100  ARG100      0.1563
     29  C         49.7150  -21.5120  -26.3420 C.2   100  ARG100      0.2260
     30  O         49.2360  -21.1990  -27.4100 O.2   100  ARG100     -0.2867
     31  CB        48.3750  -22.1760  -24.3160 C.3   100  ARG100      0.0307
     32  CG        47.5080  -23.2370  -23.6140 C.3   100  ARG100      0.0489
     33  CD        46.0730  -23.1620  -24.1410 C.3   100  ARG100      0.2205
     34  NE        45.1670  -24.2550  -23.7730 N.pl3 100  ARG100     -0.0865
     35  CZ        45.0390  -24.6960  -22.5350 C.cat 100  ARG100      0.5346
     36  NH1       45.7970  -24.1500  -21.6000 N.pl3 100  ARG100      0.1354
     37  NH2       44.1990  -25.6920  -22.2450 N.pl3 100  ARG100      0.1354
     38  N         50.8590  -27.9250  -14.1680 N.3   128  ASN128     -0.1225
     39  CA        50.2000  -29.0550  -14.8260 C.3   128  ASN128      0.1785
     40  C         50.6290  -29.2030  -16.2930 C.2   128  ASN128      0.2597
     41  O         50.5220  -30.3040  -16.8700 O.2   128  ASN128     -0.2718
     42  CB        48.6530  -29.0420  -14.6810 C.3   128  ASN128      0.1169
     43  CG        48.0020  -27.7550  -15.1410 C.2   128  ASN128      0.2627
     44  OD1       48.4430  -26.6800  -14.7220 O.2   128  ASN128     -0.2716
     45  ND2       46.8830  -27.8350  -15.9740 N.am  128  ASN128     -0.0877
     46  N         51.1330  -28.1380  -16.8750 N.am  129  HIS129     -0.1975
     47  CA        51.6020  -28.2240  -18.2400 C.3   129  HIS129      0.1656
     48  C         53.0520  -28.6420  -18.3750 C.2   129  HIS129      0.2291
     49  O         53.5450  -28.6840  -19.4820 O.2   129  HIS129     -0.2864
     50  CB        51.3320  -26.9300  -19.0430 C.3   129  HIS129      0.0771
     51  CG        49.9150  -26.7820  -19.4740 C.ar  129  HIS129      0.0820
     52  ND1       49.4860  -27.0970  -20.7410 N.ar  129  HIS129     -0.2267
     53  CD2       48.8360  -26.2860  -18.8220 C.ar  129  HIS129      0.1154
     54  CE1       48.1940  -26.8520  -20.8400 C.ar  129  HIS129      0.1986
     55  NE2       47.7750  -26.3540  -19.6940 N.ar  129  HIS129     -0.2212
     56  N         49.9820  -33.2410  -21.4470 N.3   134  MET134     -0.1245
     57  CA        49.5530  -31.9040  -21.7430 C.3   134  MET134      0.1570
     58  C         50.3660  -31.3890  -22.9680 C.2   134  MET134      0.2261
     59  O         49.8020  -30.7900  -23.8720 O.2   134  MET134     -0.2867
     60  CB        49.7410  -31.0300  -20.4920 C.3   134  MET134      0.0387
     61  CG        48.9960  -31.6100  -19.2330 C.3   134  MET134      0.0595
     62  SD        47.2730  -31.1660  -19.4530 S.3   134  MET134     -0.1393
     63  CE        46.4970  -32.5670  -20.1000 C.3   134  MET134      0.0692
     64  N         48.7500  -29.6390  -26.2640 N.3   138  TYR138     -0.1241
     65  CA        48.6350  -28.1640  -26.2080 C.3   138  TYR138      0.1605
     66  C         49.7500  -27.3380  -26.8880 C.2   138  TYR138      0.2264
     67  O         49.8260  -26.1150  -26.6870 O.2   138  TYR138     -0.2867
     68  CB        48.3760  -27.6810  -24.7660 C.3   138  TYR138      0.0534
     69  CG        47.0680  -28.2240  -24.3100 C.ar  138  TYR138     -0.0201
     70  CD1       45.8900  -27.7990  -24.9240 C.ar  138  TYR138     -0.0009
     71  CD2       46.9930  -29.2240  -23.3100 C.ar  138  TYR138     -0.0009
     72  CE1       44.6760  -28.3260  -24.5370 C.ar  138  TYR138      0.0417
     73  CE2       45.8010  -29.7420  -22.9120 C.ar  138  TYR138      0.0417
     74  CZ        44.6490  -29.3030  -23.5310 C.ar  138  TYR138      0.1957
     75  OH        43.4200  -29.8010  -23.1720 O.3   138  TYR138     -0.2866
     76  N         47.0830  -29.4150   -9.9520 N.3   211  TRP211     -0.1241
     77  CA        45.7730  -29.3450  -10.5480 C.3   211  TRP211      0.1605
     78  C         44.5860  -28.7170   -9.7080 C.2   211  TRP211      0.2264
     79  O         43.5630  -28.3540  -10.3000 O.2   211  TRP211     -0.2867
     80  CB        45.3750  -30.7740  -11.0130 C.3   211  TRP211      0.0550
     81  CG        46.0380  -31.2030  -12.2710 C.ar  211  TRP211      0.0003
     82  CD1       47.1780  -31.9690  -12.4210 C.ar  211  TRP211      0.0946
     83  CD2       45.5620  -30.9260  -13.6080 C.ar  211  TRP211      0.0152
     84  NE1       47.4260  -32.1790  -13.8080 N.ar  211  TRP211     -0.2442
     85  CE2       46.4330  -31.5570  -14.5200 C.ar  211  TRP211      0.0810
     86  CE3       44.4680  -30.2210  -14.1020 C.ar  211  TRP211      0.0012
     87  CZ2       46.2480  -31.4950  -15.8880 C.ar  211  TRP211      0.0191
     88  CZ3       44.2970  -30.1300  -15.4740 C.ar  211  TRP211      0.0001
     89  CH2       45.1960  -30.7580  -16.3510 C.ar  211  TRP211      0.0015
     90  N         37.3930  -29.9440  -13.8940 N.3   225  ARG225     -0.1245
     91  CA        38.4350  -30.2770  -14.8530 C.3   225  ARG225      0.1563
     92  C         38.5660  -31.7850  -15.1050 C.2   225  ARG225      0.2260
     93  O         39.3880  -32.2030  -15.9520 O.2   225  ARG225     -0.2867
     94  CB        39.7550  -29.8310  -14.3220 C.3   225  ARG225      0.0307
     95  CG        39.9240  -28.2780  -14.3160 C.3   225  ARG225      0.0489
     96  CD        41.2670  -27.9800  -13.8230 C.3   225  ARG225      0.2205
     97  NE        41.4590  -26.6110  -13.3680 N.pl3 225  ARG225     -0.0865
     98  CZ        42.2040  -25.7030  -13.9880 C.cat 225  ARG225      0.5346
     99  NH1       42.8050  -26.0010  -15.1580 N.pl3 225  ARG225      0.1354
    100  NH2       42.3380  -24.4970  -13.4300 N.pl3 225  ARG225      0.1354
    101  N         47.1830  -20.9750  -12.2340 N.3   252  HIS252     -0.1226
    102  CA        46.4070  -22.0200  -12.7640 C.3   252  HIS252      0.1752
    103  C         45.0310  -21.6040  -13.2120 C.2   252  HIS252      0.2596
    104  O         44.3290  -22.4500  -13.7450 O.2   252  HIS252     -0.2718
    105  CB        46.3750  -23.1100  -11.7060 C.3   252  HIS252      0.0759
    106  CG        45.7830  -24.4280  -12.0870 C.ar  252  HIS252      0.0818
    107  ND1       46.2990  -25.2510  -13.0680 N.ar  252  HIS252     -0.2268
    108  CD2       44.7800  -25.1400  -11.4990 C.ar  252  HIS252      0.1154
    109  CE1       45.5720  -26.3550  -13.1570 C.ar  252  HIS252      0.1986
    110  NE2       44.6970  -26.3500  -12.1600 N.ar  252  HIS252     -0.2212
    111  N         44.6550  -20.3400  -13.0420 N.am  253  GLU253     -0.1965
    112  CA        43.3760  -19.7750  -13.5510 C.3   253  GLU253      0.1733
    113  C         43.5920  -18.3350  -14.0650 C.2   253  GLU253      0.2616
    114  O         44.2500  -17.5640  -13.3420 O.2   253  GLU253     -0.2715
    115  CB        42.3250  -19.6900  -12.4140 C.3   253  GLU253      0.0429
    116  CG        41.6260  -21.0200  -12.2000 C.3   253  GLU253      0.1163
    117  CD        40.6800  -21.1030  -10.9560 C.2   253  GLU253      0.3649
    118  OE1       41.0790  -20.9030   -9.7690 O.co2 253  GLU253     -0.2457
    119  OE2       39.5060  -21.4190  -11.2050 O.co2 253  GLU253     -0.2457
    120  N         43.0790  -17.9760  -15.2690 N.am  254  VAL254     -0.1977
    121  CA        43.0510  -16.5690  -15.7030 C.3   254  VAL254      0.1596
    122  C         42.1500  -15.7480  -14.7940 C.2   254  VAL254      0.2287
    123  O         41.0460  -16.1680  -14.4280 O.2   254  VAL254     -0.2864
    124  CB        42.7400  -16.3370  -17.2860 C.3   254  VAL254      0.0276
    125  CG1       41.7470  -17.2580  -17.7670 C.3   254  VAL254      0.0022
    126  CG2       42.2620  -14.9530  -17.5930 C.3   254  VAL254      0.0022
    127  N         48.5230  -14.5390  -11.9180 N.3   271  PHE271     -0.1241
    128  CA        48.4980  -15.0460  -13.2770 C.3   271  PHE271      0.1605
    129  C         49.2750  -14.0800  -14.1860 C.2   271  PHE271      0.2264
    130  O         48.9060  -12.8820  -14.3090 O.2   271  PHE271     -0.2867
    131  CB        47.0500  -15.1930  -13.7550 C.3   271  PHE271      0.0534
    132  CG        46.9070  -15.9290  -15.0950 C.ar  271  PHE271     -0.0203
    133  CD1       47.0590  -17.3050  -15.1720 C.ar  271  PHE271     -0.0042
    134  CD2       46.6230  -15.2340  -16.2740 C.ar  271  PHE271     -0.0042
    135  CE1       46.9640  -17.9910  -16.4180 C.ar  271  PHE271     -0.0003
    136  CE2       46.5180  -15.8970  -17.5110 C.ar  271  PHE271     -0.0003
    137  CZ        46.6620  -17.2620  -17.6010 C.ar  271  PHE271     -0.0000
    138  N         45.3940  -13.4970  -22.4610 N.3   276  TYR276     -0.1241
    139  CA        45.7990  -14.8580  -22.6000 C.3   276  TYR276      0.1605
    140  C         45.3780  -15.4350  -23.9400 C.2   276  TYR276      0.2264
    141  O         44.1930  -15.3330  -24.3400 O.2   276  TYR276     -0.2867
    142  CB        45.2320  -15.6500  -21.4200 C.3   276  TYR276      0.0534
    143  CG        45.3570  -17.1380  -21.4890 C.ar  276  TYR276     -0.0201
    144  CD1       46.5960  -17.7880  -21.3920 C.ar  276  TYR276     -0.0009
    145  CD2       44.2130  -17.9180  -21.6290 C.ar  276  TYR276     -0.0009
    146  CE1       46.6670  -19.1850  -21.4570 C.ar  276  TYR276      0.0417
    147  CE2       44.2790  -19.2830  -21.7080 C.ar  276  TYR276      0.0417
    148  CZ        45.4890  -19.9240  -21.6400 C.ar  276  TYR276      0.1957
    149  OH        45.4530  -21.3040  -21.7130 O.3   276  TYR276     -0.2866
@<TRIPOS>BOND
     1    30    29    2
     2    66    67    2
     3    66    65    1
     4    29    28    1
     5    64    65    1
     6    65    68    1
     7    28    27    1
     8    28    31    1
     9    70    72   ar
    10    70    69   ar
    11    68    69    1
    12    72    74   ar
    13   141   140    2
    14    31    32    1
    15    69    71   ar
    16    33    34    1
    17    33    32    1
    18   140   139    1
    19    59    58    2
    20    34    35    2
    21    12    11    2
    22    74    75    1
    23    74    73   ar
    24    71    73   ar
    25    58    57    1
    26    11    10    1
    27   139   138    1
    28   139   142    1
    29    35    37    1
    30    35    36    1
    31    57    56    1
    32    57    60    1
    33   149   148    1
    34   147   148   ar
    35   147   145   ar
    36   148   146   ar
    37   145   143   ar
    38   143   142    1
    39   143   144   ar
    40   146   144   ar
    41    13    10    1
    42    13    14    1
    43    10     9    1
    44    54    52   ar
    45    54    55   ar
    46    52    51   ar
    47    15    14   ar
    48    15    17   ar
    49    14    16   ar
    50    60    61    1
    51    63    62    1
    52    17    18   ar
    53    55    53   ar
    54    16    18   ar
    55    49    48    2
    56    51    50    1
    57    51    53   ar
    58    62    61    1
    59    50    47    1
    60    48    47    1
    61    47    46    1
    62    22    21    2
    63   125   124    1
    64   137   136   ar
    65   137   135   ar
    66   126   124    1
    67    21    20    1
    68   136   134   ar
    69   124   121    1
    70    46    40   am
    71    41    40    2
    72    20    23    1
    73    20    19    1
    74     3     4    2
    75     3     2    1
    76    23    24    1
    77    26    24   ar
    78   135   133   ar
    79    89    87   ar
    80    89    88   ar
    81    40    39    1
    82   134   132   ar
    83    24    25   ar
    84     5     2    1
    85     5     6    1
    86    45    43   am
    87    93    92    2
    88    87    85   ar
    89   121   120    1
    90   121   122    1
    91     2     1    1
    92     8     6   ar
    93    88    86   ar
    94   120   113   am
    95   133   132   ar
    96    99    98    1
    97    43    44    2
    98    43    42    1
    99     6     7   ar
   100    92    91    1
   101   132   131    1
   102    91    94    1
   103    91    90    1
   104    39    42    1
   105    39    38    1
   106   122   123    2
   107    85    84   ar
   108    85    83   ar
   109    94    95    1
   110    95    96    1
   111   130   129    2
   112   129   128    1
   113    86    83   ar
   114   113   112    1
   115   113   114    2
   116    98   100    1
   117    98    97    2
   118    96    97    1
   119    84    82   ar
   120   131   128    1
   121   104   103    2
   122    83    81   ar
   123   112   111    1
   124   112   115    1
   125   128   127    1
   126   103   111   am
   127   103   102    1
   128   109   107   ar
   129   109   110   ar
   130   107   106   ar
   131   102   101    1
   132   102   105    1
   133    82    81   ar
   134   115   116    1
   135    81    80    1
   136   116   117    1
   137   110   108   ar
   138   106   105    1
   139   106   108   ar
   140   119   117   ar
   141    80    77    1
   142   117   118   ar
   143    77    76    1
   144    77    78    1
   145    79    78    2
