@<TRIPOS>MOLECULE
tmp/3h6gB03.pdb
 103 99 0 0 0
SMALL
GASTEIGER

@<TRIPOS>ATOM
      1  N        -67.6100   34.2050  -11.3330 N.3   101  ARG101     -0.1245
      2  CA       -66.5160   34.0640  -10.3890 C.3   101  ARG101      0.1563
      3  C        -66.6460   32.7210   -9.7030 C.2   101  ARG101      0.2260
      4  O        -67.7450   32.2200   -9.4770 O.2   101  ARG101     -0.2867
      5  CB       -66.5580   35.1990   -9.3530 C.3   101  ARG101      0.0307
      6  CG       -65.2660   35.4230   -8.5900 C.3   101  ARG101      0.0489
      7  CD       -64.2740   36.2450   -9.3990 C.3   101  ARG101      0.2205
      8  NE       -64.6860   37.6400   -9.5120 N.pl3 101  ARG101     -0.0865
      9  CZ       -64.6250   38.5150   -8.5150 C.cat 101  ARG101      0.5346
     10  NH1      -64.1770   38.1370   -7.3250 N.pl3 101  ARG101      0.1354
     11  NH2      -65.0190   39.7660   -8.7030 N.pl3 101  ARG101      0.1354
     12  N        -66.5520   31.1990  -15.0820 N.3   118  TYR118     -0.1241
     13  CA       -65.1780   31.2170  -14.6100 C.3   118  TYR118      0.1605
     14  C        -64.5050   29.8700  -14.8510 C.2   118  TYR118      0.2264
     15  O        -65.0900   28.8340  -14.5670 O.2   118  TYR118     -0.2867
     16  CB       -65.1550   31.5550  -13.1260 C.3   118  TYR118      0.0534
     17  CG       -63.7720   31.7760  -12.6080 C.ar  118  TYR118     -0.0201
     18  CD1      -63.1790   33.0390  -12.6610 C.ar  118  TYR118     -0.0009
     19  CD2      -63.0460   30.7220  -12.0810 C.ar  118  TYR118     -0.0009
     20  CE1      -61.9010   33.2340  -12.1970 C.ar  118  TYR118      0.0417
     21  CE2      -61.7680   30.9070  -11.6140 C.ar  118  TYR118      0.0417
     22  CZ       -61.2000   32.1550  -11.6740 C.ar  118  TYR118      0.1957
     23  OH       -59.9310   32.3190  -11.1930 O.3   118  TYR118     -0.2866
     24  N        -57.5230   26.0630   -4.7860 N.3   152  ARG152     -0.1245
     25  CA       -57.2130   26.2490   -6.2020 C.3   152  ARG152      0.1563
     26  C        -55.9580   25.4710   -6.6040 C.2   152  ARG152      0.2260
     27  O        -55.7540   25.1550   -7.7730 O.2   152  ARG152     -0.2867
     28  CB       -57.0260   27.7380   -6.5250 C.3   152  ARG152      0.0307
     29  CG       -56.7780   28.0220   -8.0080 C.3   152  ARG152      0.0489
     30  CD       -55.9620   29.2810   -8.2030 C.3   152  ARG152      0.2205
     31  NE       -56.6800   30.4640   -7.7410 N.pl3 152  ARG152     -0.0865
     32  CZ       -57.1540   31.4160   -8.5380 C.cat 152  ARG152      0.5346
     33  NH1      -56.9810   31.3470   -9.8550 N.pl3 152  ARG152      0.1354
     34  NH2      -57.7960   32.4500   -8.0130 N.pl3 152  ARG152      0.1354
     35  N        -52.5570   34.2800   -5.6200 N.3   198  CYS198     -0.1221
     36  CA       -53.0270   35.5290   -5.0490 C.3   198  CYS198      0.1808
     37  C        -53.5930   36.4330   -6.1440 C.2   198  CYS198      0.2602
     38  O        -53.3670   36.2060   -7.3340 O.2   198  CYS198     -0.2717
     39  CB       -51.8840   36.2540   -4.3280 C.3   198  CYS198      0.0970
     40  SG       -50.5990   36.7790   -5.4250 S.3   198  CYS198     -0.0800
     41  N        -54.3330   37.4650   -5.7480 N.am  199  SER199     -0.1938
     42  CA       -54.8950   38.3660   -6.7420 C.3   199  SER199      0.2055
     43  C        -53.7720   39.1050   -7.4980 C.2   199  SER199      0.2643
     44  O        -52.6480   39.2120   -7.0070 O.2   199  SER199     -0.2714
     45  CB       -55.8110   39.3600   -6.0620 C.3   199  SER199      0.2130
     46  OG       -55.0830   40.4730   -5.5710 O.3   199  SER199     -0.2179
     47  N        -54.0700   39.6270   -8.6820 N.am  200  HIS200     -0.1959
     48  CA       -53.0700   40.3890   -9.4180 C.3   200  HIS200      0.1787
     49  C        -52.6640   41.6760   -8.7120 C.2   200  HIS200      0.2620
     50  O        -51.5680   42.1690   -8.9510 O.2   200  HIS200     -0.2715
     51  CB       -53.5120   40.6870  -10.8510 C.3   200  HIS200      0.0785
     52  CG       -54.6170   41.6800  -10.9570 C.ar  200  HIS200      0.0821
     53  ND1      -55.8790   41.4490  -10.4640 N.ar  200  HIS200     -0.2267
     54  CD2      -54.6640   42.9030  -11.5480 C.ar  200  HIS200      0.1154
     55  CE1      -56.6530   42.4920  -10.7190 C.ar  200  HIS200      0.1986
     56  NE2      -55.9340   43.3820  -11.3800 N.ar  200  HIS200     -0.2212
     57  N        -53.5090   42.2100   -7.8320 N.am  201  GLU201     -0.1977
     58  CA       -53.1150   43.3950   -7.0520 C.3   201  GLU201      0.1602
     59  C        -52.0990   43.0180   -5.9870 C.2   201  GLU201      0.2287
     60  O        -51.1570   43.7770   -5.7390 O.2   201  GLU201     -0.2864
     61  CB       -54.3020   44.0930   -6.3690 C.3   201  GLU201      0.0415
     62  CG       -55.3140   44.7210   -7.3110 C.3   201  GLU201      0.1163
     63  CD       -56.4510   43.7760   -7.6880 C.2   201  GLU201      0.3649
     64  OE1      -56.4370   42.5940   -7.2770 O.co2 201  GLU201     -0.2457
     65  OE2      -57.3660   44.2260   -8.4040 O.co2 201  GLU201     -0.2457
     66  N        -52.6120   34.0400  -10.9990 N.3   226  THR226     -0.1203
     67  CA       -53.6130   34.9790  -11.5060 C.3   226  THR226      0.1994
     68  C        -53.7010   35.0520  -13.0260 C.2   226  THR226      0.2618
     69  O        -52.6950   35.0350  -13.7230 O.2   226  THR226     -0.2717
     70  CB       -53.3760   36.4160  -10.9890 C.3   226  THR226      0.1784
     71  OG1      -54.3110   37.2880  -11.6190 O.3   226  THR226     -0.2211
     72  CG2      -51.9720   36.9200  -11.3080 C.3   226  THR226      0.0376
     73  N        -54.9260   35.1520  -13.5250 N.am  227  LEU227     -0.1965
     74  CA       -55.1920   35.2370  -14.9520 C.3   227  LEU227      0.1728
     75  C        -55.0560   36.6660  -15.4440 C.2   227  LEU227      0.2616
     76  O        -55.0830   36.9250  -16.6450 O.2   227  LEU227     -0.2715
     77  CB       -56.6080   34.7570  -15.2320 C.3   227  LEU227      0.0311
     78  CG       -56.8670   33.3040  -14.8730 C.3   227  LEU227      0.0022
     79  CD1      -58.3400   32.9760  -15.0260 C.3   227  LEU227      0.0001
     80  CD2      -56.0150   32.4150  -15.7470 C.3   227  LEU227      0.0001
     81  N        -54.9410   37.5930  -14.5030 N.am  228  ASP228     -0.1971
     82  CA       -54.7900   39.0070  -14.8140 C.3   228  ASP228      0.1709
     83  C        -53.3380   39.4380  -14.7590 C.2   228  ASP228      0.2293
     84  O        -53.0360   40.6230  -14.6000 O.2   228  ASP228     -0.2864
     85  CB       -55.6210   39.8250  -13.8350 C.3   228  ASP228      0.1436
     86  CG       -57.0740   39.7910  -14.1770 C.2   228  ASP228      0.3671
     87  OD1      -57.3530   39.8760  -15.3850 O.co2 228  ASP228     -0.2456
     88  OD2      -57.9230   39.6640  -13.2690 O.co2 228  ASP228     -0.2456
     89  N        -60.1360   40.2700  -16.0130 N.3   286  THR286     -0.1203
     90  CA       -60.8450   39.0480  -16.3440 C.3   286  THR286      0.1994
     91  C        -62.2450   39.0260  -15.7200 C.2   286  THR286      0.2617
     92  O        -63.1850   38.5770  -16.3560 O.2   286  THR286     -0.2717
     93  CB       -60.0140   37.8060  -15.9460 C.3   286  THR286      0.1784
     94  OG1      -58.8840   37.6990  -16.8230 O.3   286  THR286     -0.2211
     95  CG2      -60.8280   36.5320  -16.0660 C.3   286  THR286      0.0376
     96  N        -62.3900   39.5390  -14.4970 N.am  287  ASP287     -0.1973
     97  CA       -63.7010   39.6180  -13.8340 C.3   287  ASP287      0.1709
     98  C        -64.7580   40.2860  -14.7290 C.2   287  ASP287      0.2293
     99  O        -65.9480   40.0110  -14.6030 O.2   287  ASP287     -0.2864
    100  CB       -63.5990   40.3530  -12.4740 C.3   287  ASP287      0.1436
    101  CG       -63.2970   41.8720  -12.6230 C.2   287  ASP287      0.3671
    102  OD1      -63.4060   42.3930  -13.7490 O.co2 287  ASP287     -0.2456
    103  OD2      -62.9620   42.5610  -11.6240 O.co2 287  ASP287     -0.2456
@<TRIPOS>BOND
     1    94    93    1
     2    76    75    2
     3    92    91    2
     4    90    89    1
     5    90    93    1
     6    90    91    1
     7    95    93    1
     8    80    78    1
     9    91    96   am
    10    75    74    1
    11    75    81   am
    12    87    86   ar
    13    77    74    1
    14    77    78    1
    15    12    13    1
    16    79    78    1
    17    74    73    1
    18    14    13    1
    19    14    15    2
    20    82    83    1
    21    82    81    1
    22    82    85    1
    23    83    84    2
    24    98    99    2
    25    98    97    1
    26    13    16    1
    27    96    97    1
    28    86    85    1
    29    86    88   ar
    30    97   100    1
    31   102   101   ar
    32    69    68    2
    33    73    68   am
    34    16    17    1
    35    68    67    1
    36    18    17   ar
    37    18    20   ar
    38   101   100    1
    39   101   103   ar
    40    17    19   ar
    41    20    22   ar
    42    19    21   ar
    43    22    21   ar
    44    22    23    1
    45    71    70    1
    46    54    56   ar
    47    54    52   ar
    48    67    66    1
    49    67    70    1
    50    56    55   ar
    51     1     2    1
    52    72    70    1
    53    52    51    1
    54    52    53   ar
    55    51    48    1
    56    55    53   ar
    57     2     3    1
    58     2     5    1
    59    33    32    1
    60     3     4    2
    61     8     7    1
    62     8     9    2
    63    48    49    1
    64    48    47    1
    65     7     6    1
    66     5     6    1
    67    50    49    2
    68    49    57   am
    69    11     9    1
    70    47    43   am
    71    32    34    1
    72    32    31    2
    73     9    10    1
    74    65    63   ar
    75    30    29    1
    76    30    31    1
    77    29    28    1
    78    57    58    1
    79    27    26    2
    80    63    62    1
    81    63    64   ar
    82    43    44    2
    83    43    42    1
    84    38    37    2
    85    62    61    1
    86    58    61    1
    87    58    59    1
    88    42    45    1
    89    42    41    1
    90    26    25    1
    91    28    25    1
    92    25    24    1
    93    37    41   am
    94    37    36    1
    95    45    46    1
    96    59    60    2
    97    35    36    1
    98    40    39    1
    99    36    39    1
