@<TRIPOS>MOLECULE
tmp/3h6hB01.pdb
 111 107 0 0 0
SMALL
GASTEIGER

@<TRIPOS>ATOM
      1  N        -36.8280  -32.1360  -30.0790 N.3   135  PHE135     -0.1227
      2  CA       -37.0730  -31.2540  -31.2170 C.3   135  PHE135      0.1736
      3  C        -37.2990  -29.8120  -30.7590 C.2   135  PHE135      0.2595
      4  O        -36.8650  -28.8710  -31.4190 O.2   135  PHE135     -0.2718
      5  CB       -38.2770  -31.7640  -32.0000 C.3   135  PHE135      0.0547
      6  CG       -38.7890  -30.8140  -33.0430 C.ar  135  PHE135     -0.0202
      7  CD1      -38.2050  -30.7540  -34.2950 C.ar  135  PHE135     -0.0042
      8  CD2      -39.8900  -30.0150  -32.7850 C.ar  135  PHE135     -0.0042
      9  CE1      -38.6920  -29.9000  -35.2630 C.ar  135  PHE135     -0.0003
     10  CE2      -40.3840  -29.1570  -33.7480 C.ar  135  PHE135     -0.0003
     11  CZ       -39.7840  -29.0990  -34.9890 C.ar  135  PHE135     -0.0000
     12  N        -37.9740  -29.6460  -29.6250 N.am  136  PHE136     -0.1976
     13  CA       -38.1750  -28.3260  -29.0350 C.3   136  PHE136      0.1639
     14  C        -36.9440  -27.9090  -28.2380 C.2   136  PHE136      0.2290
     15  O        -36.8820  -26.8030  -27.7010 O.2   136  PHE136     -0.2864
     16  CB       -39.4070  -28.3070  -28.1200 C.3   136  PHE136      0.0560
     17  CG       -40.7010  -28.5330  -28.8420 C.ar  136  PHE136     -0.0200
     18  CD1      -40.9030  -28.0050  -30.1020 C.ar  136  PHE136     -0.0042
     19  CD2      -41.7200  -29.2610  -28.2580 C.ar  136  PHE136     -0.0042
     20  CE1      -42.0870  -28.2100  -30.7690 C.ar  136  PHE136     -0.0003
     21  CE2      -42.9020  -29.4710  -28.9250 C.ar  136  PHE136     -0.0003
     22  CZ       -43.0860  -28.9440  -30.1810 C.ar  136  PHE136     -0.0000
     23  N        -47.4080  -16.8180  -23.6680 N.3   219  GLU219     -0.1245
     24  CA       -46.4010  -17.1980  -24.6590 C.3   219  GLU219      0.1567
     25  C        -45.1590  -17.7730  -23.9950 C.2   219  GLU219      0.2260
     26  O        -44.2420  -18.2350  -24.6720 O.2   219  GLU219     -0.2867
     27  CB       -46.0190  -16.0100  -25.5530 C.3   219  GLU219      0.0388
     28  CG       -45.9950  -14.6580  -24.8380 C.3   219  GLU219      0.1160
     29  CD       -47.3840  -14.0410  -24.6950 C.2   219  GLU219      0.3649
     30  OE1      -48.1280  -14.0100  -25.7030 O.co2 219  GLU219     -0.2457
     31  OE2      -47.7280  -13.5910  -23.5760 O.co2 219  GLU219     -0.2457
     32  N        -45.3390  -23.8300  -22.4890 N.3   222  HIS222     -0.1241
     33  CA       -45.5930  -24.8170  -23.5210 C.3   222  HIS222      0.1621
     34  C        -45.9930  -26.0870  -22.7960 C.2   222  HIS222      0.2264
     35  O        -45.2750  -26.5540  -21.9200 O.2   222  HIS222     -0.2867
     36  CB       -44.3400  -25.0700  -24.3450 C.3   222  HIS222      0.0745
     37  CG       -44.5830  -25.8510  -25.5970 C.ar  222  HIS222      0.0817
     38  ND1      -43.7330  -25.8100  -26.6750 N.ar  222  HIS222     -0.2268
     39  CD2      -45.5960  -26.6850  -25.9390 C.ar  222  HIS222      0.1154
     40  CE1      -44.2040  -26.5920  -27.6360 C.ar  222  HIS222      0.1986
     41  NE2      -45.3300  -27.1310  -27.2140 N.ar  222  HIS222     -0.2212
     42  N        -56.7070  -20.2290  -27.6100 N.3   239  ARG239     -0.1245
     43  CA       -55.9690  -20.1510  -28.8700 C.3   239  ARG239      0.1563
     44  C        -55.4570  -18.7470  -29.1820 C.2   239  ARG239      0.2260
     45  O        -54.6180  -18.5690  -30.0710 O.2   239  ARG239     -0.2867
     46  CB       -56.7920  -20.6850  -30.0420 C.3   239  ARG239      0.0307
     47  CG       -58.1520  -20.0650  -30.2020 C.3   239  ARG239      0.0489
     48  CD       -58.5650  -20.1130  -31.6530 C.3   239  ARG239      0.2205
     49  NE       -59.9800  -19.8360  -31.8530 N.pl3 239  ARG239     -0.0865
     50  CZ       -60.5140  -19.5280  -33.0290 C.cat 239  ARG239      0.5346
     51  NH1      -59.7480  -19.4500  -34.1080 N.pl3 239  ARG239      0.1354
     52  NH2      -61.8140  -19.2940  -33.1270 N.pl3 239  ARG239      0.1354
     53  N        -51.7820  -17.4360  -27.0740 N.3   242  GLY242     -0.1210
     54  CA       -50.4880  -17.8370  -27.5700 C.3   242  GLY242      0.1956
     55  C        -49.6880  -18.6830  -26.5890 C.2   242  GLY242      0.2612
     56  O        -48.4740  -18.5400  -26.5280 O.2   242  GLY242     -0.2717
     57  N        -50.3410  -19.5460  -25.8070 N.am  243  VAL243     -0.1965
     58  CA       -49.6140  -20.6590  -25.1960 C.3   243  VAL243      0.1727
     59  C        -49.2660  -21.5670  -26.3290 C.2   243  VAL243      0.2616
     60  O        -49.8400  -21.4640  -27.4200 O.2   243  VAL243     -0.2715
     61  CB       -50.4320  -21.5360  -24.2250 C.3   243  VAL243      0.0290
     62  CG1      -50.6190  -20.8380  -22.9070 C.3   243  VAL243      0.0023
     63  CG2      -51.7730  -21.9230  -24.8470 C.3   243  VAL243      0.0023
     64  N        -48.3270  -22.4610  -26.0590 N.am  244  ASN244     -0.1972
     65  CA       -48.0370  -23.5580  -26.9540 C.3   244  ASN244      0.1688
     66  C        -48.6650  -24.8010  -26.3530 C.2   244  ASN244      0.2292
     67  O        -48.6180  -25.0060  -25.1390 O.2   244  ASN244     -0.2864
     68  CB       -46.5280  -23.7140  -27.1310 C.3   244  ASN244      0.1181
     69  CG       -45.9580  -22.7250  -28.1260 C.2   244  ASN244      0.2629
     70  OD1      -44.9310  -22.0840  -27.8830 O.2   244  ASN244     -0.2716
     71  ND2      -46.6310  -22.5890  -29.2540 N.am  244  ASN244     -0.0877
     72  N        -50.4290  -29.3920  -32.8910 N.3   357  SER357     -0.1202
     73  CA       -50.1240  -28.2630  -32.0030 C.3   357  SER357      0.2020
     74  C        -51.1210  -27.1050  -32.1190 C.2   357  SER357      0.2619
     75  O        -51.7830  -26.9420  -33.1410 O.2   357  SER357     -0.2717
     76  CB       -48.7120  -27.7530  -32.2690 C.3   357  SER357      0.2103
     77  OG       -48.1980  -27.0430  -31.1520 O.3   357  SER357     -0.2182
     78  N        -51.2140  -26.3020  -31.0600 N.am  358  LEU358     -0.1965
     79  CA       -52.1760  -25.2080  -30.9910 C.3   358  LEU358      0.1728
     80  C        -51.6720  -23.9490  -31.6870 C.2   358  LEU358      0.2616
     81  O        -50.9090  -23.1770  -31.1130 O.2   358  LEU358     -0.2715
     82  CB       -52.4950  -24.8810  -29.5330 C.3   358  LEU358      0.0311
     83  CG       -53.4770  -23.7300  -29.2950 C.3   358  LEU358      0.0022
     84  CD1      -54.8130  -24.0040  -29.9640 C.3   358  LEU358      0.0001
     85  CD2      -53.6640  -23.4920  -27.8060 C.3   358  LEU358      0.0001
     86  N        -52.0940  -23.7590  -32.9320 N.am  359  LYS359     -0.1963
     87  CA       -51.8990  -22.4970  -33.6280 C.3   359  LYS359      0.1728
     88  C        -53.0310  -21.5590  -33.2160 C.2   359  LYS359      0.2616
     89  O        -53.9100  -21.9440  -32.4480 O.2   359  LYS359     -0.2715
     90  CB       -51.9090  -22.7040  -35.1450 C.3   359  LYS359      0.0311
     91  CG       -50.7590  -23.5470  -35.6740 C.3   359  LYS359      0.0038
     92  CD       -49.4530  -23.1740  -35.0040 C.3   359  LYS359      0.0206
     93  CE       -48.2650  -23.7460  -35.7500 C.3   359  LYS359      0.1093
     94  NZ       -47.9770  -25.1420  -35.3450 N.3   359  LYS359     -0.1314
     95  N        -53.0220  -20.3330  -33.7250 N.am  360  GLU360     -0.1977
     96  CA       -54.0370  -19.3590  -33.3420 C.3   360  GLU360      0.1602
     97  C        -55.4090  -19.6950  -33.9330 C.2   360  GLU360      0.2287
     98  O        -56.4350  -19.2670  -33.4130 O.2   360  GLU360     -0.2864
     99  CB       -53.6120  -17.9570  -33.7680 C.3   360  GLU360      0.0415
    100  CG       -54.5590  -16.8690  -33.3110 C.3   360  GLU360      0.1163
    101  CD       -54.0010  -15.4790  -33.5330 C.2   360  GLU360      0.3649
    102  OE1      -53.0180  -15.1160  -32.8540 O.co2 360  GLU360     -0.2457
    103  OE2      -54.5550  -14.7450  -34.3780 O.co2 360  GLU360     -0.2457
    104  N        -48.8900  -30.6570  -37.5230 N.3   366  ILE366     -0.1245
    105  CA       -47.5880  -30.0770  -37.8190 C.3   366  ILE366      0.1561
    106  C        -46.5250  -31.1350  -38.0730 C.2   366  ILE366      0.2260
    107  O        -45.3350  -30.8250  -38.0820 O.2   366  ILE366     -0.2867
    108  CB       -47.1100  -29.1800  -36.6720 C.3   366  ILE366      0.0252
    109  CG1      -46.7750  -30.0200  -35.4410 C.3   366  ILE366      0.0019
    110  CG2      -48.1660  -28.1530  -36.3400 C.3   366  ILE366      0.0019
    111  CD1      -46.5400  -29.1970  -34.2080 C.3   366  ILE366      0.0001
@<TRIPOS>BOND
     1   107   106    2
     2   106   105    1
     3   105   104    1
     4   105   108    1
     5   108   110    1
     6   108   109    1
     7    93    94    1
     8    93    92    1
     9    91    90    1
    10    91    92    1
    11   109   111    1
    12     9    11   ar
    13     9     7   ar
    14    90    87    1
    15    11    10   ar
    16   103   101   ar
    17     7     6   ar
    18    51    50    1
    19    97    98    2
    20    97    96    1
    21    99    96    1
    22    99   100    1
    23    10     8   ar
    24    95    96    1
    25    95    88   am
    26    87    88    1
    27    87    86    1
    28   101   100    1
    29   101   102   ar
    30    88    89    2
    31    75    74    2
    32    52    50    1
    33     6     8   ar
    34     6     5    1
    35    50    49    2
    36    86    80   am
    37    72    73    1
    38    76    73    1
    39    76    77    1
    40    74    73    1
    41    74    78   am
    42     5     2    1
    43    49    48    1
    44    80    81    2
    45    80    79    1
    46    48    47    1
    47     4     3    2
    48     2     3    1
    49     2     1    1
    50    78    79    1
    51    79    82    1
    52    20    22   ar
    53    20    18   ar
    54     3    12   am
    55    47    46    1
    56    22    21   ar
    57    18    17   ar
    58    45    44    2
    59    46    43    1
    60    84    83    1
    61    12    13    1
    62    82    83    1
    63    83    85    1
    64    71    69   am
    65    44    43    1
    66    13    14    1
    67    13    16    1
    68    21    19   ar
    69    43    42    1
    70    17    19   ar
    71    17    16    1
    72    14    15    2
    73    69    70    2
    74    69    68    1
    75    40    41   ar
    76    40    38   ar
    77    54    53    1
    78    54    55    1
    79    60    59    2
    80    41    39   ar
    81    68    65    1
    82    65    66    1
    83    65    64    1
    84    38    37   ar
    85    55    56    2
    86    55    57   am
    87    66    67    2
    88    59    64   am
    89    59    58    1
    90    39    37   ar
    91    57    58    1
    92    30    29   ar
    93    37    36    1
    94    27    28    1
    95    27    24    1
    96    58    61    1
    97    63    61    1
    98    28    29    1
    99    29    31   ar
   100    26    25    2
   101    24    25    1
   102    24    23    1
   103    36    33    1
   104    61    62    1
   105    33    34    1
   106    33    32    1
   107    34    35    2
