@<TRIPOS>MOLECULE
tmp/3h6kA01.pdb
 176 166 0 0 0
SMALL
GASTEIGER

@<TRIPOS>ATOM
      1  N          3.9300   -6.3860   22.9330 N.3    96  ILE96      -0.1231
      2  CA         3.4480   -6.7990   21.6110 C.3    96  ILE96       0.1692
      3  C          4.0080   -8.1750   21.2250 C.2    96  ILE96       0.2593
      4  O          5.0010   -8.6380   21.8010 O.2    96  ILE96      -0.2718
      5  CB         3.7990   -5.7680   20.4980 C.3    96  ILE96       0.0266
      6  CG1        5.3000   -5.4410   20.5050 C.3    96  ILE96       0.0019
      7  CG2        2.9560   -4.4950   20.6450 C.3    96  ILE96       0.0020
      8  CD1        5.7630   -4.6000   19.3030 C.3    96  ILE96       0.0001
      9  N          3.3770   -8.8270   20.2510 N.am   97  THR97      -0.1939
     10  CA         3.8690  -10.1140   19.7710 C.3    97  THR97       0.2028
     11  C          5.0280   -9.8850   18.8250 C.2    97  THR97       0.2642
     12  O          5.0930   -8.8550   18.1660 O.2    97  THR97      -0.2714
     13  CB         2.7910  -10.9050   19.0250 C.3    97  THR97       0.1808
     14  OG1        3.2540  -12.2430   18.8160 O.3    97  THR97      -0.2208
     15  CG2        2.4930  -10.2640   17.6710 C.3    97  THR97       0.0379
     16  N          5.9530  -10.8310   18.7500 N.am   98  ASN98      -0.1957
     17  CA         7.1210  -10.6190   17.9130 C.3    98  ASN98       0.1819
     18  C          6.6730  -10.2530   16.4930 C.2    98  ASN98       0.2622
     19  O          5.8430  -10.9370   15.8850 O.2    98  ASN98      -0.2715
     20  CB         8.0770  -11.8230   17.9570 C.3    98  ASN98       0.1195
     21  CG         8.7530  -11.9930   19.3300 C.2    98  ASN98       0.2630
     22  OD1        8.1660  -11.6960   20.3750 O.2    98  ASN98      -0.2716
     23  ND2        9.9900  -12.4740   19.3220 N.am   98  ASN98      -0.0877
     24  N          7.1910   -9.1360   15.9970 N.am   99  THR99      -0.1937
     25  CA         6.8090   -8.6280   14.6880 C.3    99  THR99       0.2028
     26  C          8.0500   -8.2360   13.9000 C.2    99  THR99       0.2643
     27  O          9.0320   -7.7500   14.4640 O.2    99  THR99      -0.2714
     28  CB         5.9130   -7.3760   14.7960 C.3    99  THR99       0.1808
     29  OG1        5.0710   -7.4680   15.9500 O.3    99  THR99      -0.2208
     30  CG2        5.0480   -7.2230   13.5440 C.3    99  THR99       0.0379
     31  N          7.9930   -8.4430   12.5920 N.am  100  SER100     -0.1935
     32  CA         9.0650   -8.0110   11.7120 C.3   100  SER100      0.2055
     33  C          8.5000   -7.2480   10.5130 C.2   100  SER100      0.2642
     34  O          7.2800   -7.1110   10.3660 O.2   100  SER100     -0.2714
     35  CB         9.9150   -9.2030   11.2650 C.3   100  SER100      0.2130
     36  OG         9.1040  -10.2970   10.8780 O.3   100  SER100     -0.2179
     37  N          9.3930   -6.7410    9.6690 N.am  101  LEU101     -0.1977
     38  CA         8.9950   -5.9900    8.4870 C.3   101  LEU101      0.1596
     39  C          8.8970   -6.8730    7.2570 C.2   101  LEU101      0.2287
     40  O          9.9090   -7.3350    6.7230 O.2   101  LEU101     -0.2864
     41  CB         9.9770   -4.8490    8.2270 C.3   101  LEU101      0.0297
     42  CG         9.9560   -3.6280    9.1500 C.3   101  LEU101      0.0022
     43  CD1       10.7280   -2.5010    8.4900 C.3   101  LEU101      0.0001
     44  CD2        8.5340   -3.1930    9.4530 C.3   101  LEU101      0.0001
     45  N          1.5190    3.3420   18.0750 N.3   145  SER145     -0.1202
     46  CA         2.5460    3.7440   17.1330 C.3   145  SER145      0.2020
     47  C          2.0030    4.6120   16.0100 C.2   145  SER145      0.2619
     48  O          0.7900    4.7590   15.8410 O.2   145  SER145     -0.2717
     49  CB         3.1840    2.4970   16.5430 C.3   145  SER145      0.2103
     50  OG         3.2050    1.4820   17.5200 O.3   145  SER145     -0.2182
     51  N          2.9180    5.1830   15.2370 N.am  146  LEU146     -0.1965
     52  CA         2.5440    5.9090   14.0390 C.3   146  LEU146      0.1728
     53  C          1.6930    5.0240   13.1210 C.2   146  LEU146      0.2616
     54  O          0.7400    5.4980   12.5140 O.2   146  LEU146     -0.2715
     55  CB         3.7940    6.4130   13.3140 C.3   146  LEU146      0.0311
     56  CG         4.2570    7.8550   13.5520 C.3   146  LEU146      0.0022
     57  CD1        3.3810    8.8230   12.7720 C.3   146  LEU146      0.0001
     58  CD2        4.2700    8.2150   15.0260 C.3   146  LEU146      0.0001
     59  N          2.0180    3.7360   13.0410 N.am  147  ALA147     -0.1977
     60  CA         1.2450    2.8220   12.1980 C.3   147  ALA147      0.1597
     61  C         -0.1490    2.5950   12.7710 C.2   147  ALA147      0.2287
     62  O         -1.0010    1.9810   12.1280 O.2   147  ALA147     -0.2864
     63  CB         1.9750    1.5010   12.0010 C.3   147  ALA147      0.0319
     64  N          1.1810    2.4730    6.6520 N.3   152  TYR152     -0.1241
     65  CA         2.5030    2.1800    6.1070 C.3   152  TYR152      0.1605
     66  C          2.5150    0.7630    5.5570 C.2   152  TYR152      0.2264
     67  O          1.8120   -0.1120    6.0700 O.2   152  TYR152     -0.2867
     68  CB         3.5920    2.2980    7.1770 C.3   152  TYR152      0.0534
     69  CG         3.7930    3.6790    7.7290 C.ar  152  TYR152     -0.0201
     70  CD1        3.4170    3.9770    9.0300 C.ar  152  TYR152     -0.0009
     71  CD2        4.3690    4.6890    6.9610 C.ar  152  TYR152     -0.0009
     72  CE1        3.6010    5.2460    9.5620 C.ar  152  TYR152      0.0417
     73  CE2        4.5640    5.9690    7.4840 C.ar  152  TYR152      0.0417
     74  CZ         4.1710    6.2370    8.7890 C.ar  152  TYR152      0.1957
     75  OH         4.3440    7.4900    9.3300 O.3   152  TYR152     -0.2866
     76  N          3.7940   -3.4150    7.4030 N.3   155  VAL155     -0.1245
     77  CA         3.3440   -3.5630    8.7940 C.3   155  VAL155      0.1561
     78  C          1.8230   -3.7780    8.9090 C.2   155  VAL155      0.2260
     79  O          1.1880   -3.2710    9.8360 O.2   155  VAL155     -0.2867
     80  CB         3.7270   -2.3280    9.6490 C.3   155  VAL155      0.0252
     81  CG1        5.2390   -2.1670    9.7250 C.3   155  VAL155      0.0019
     82  CG2        3.0760   -1.0660    9.0870 C.3   155  VAL155      0.0019
     83  N          0.3180   -5.5730   12.1900 N.3   158  TYR158     -0.1241
     84  CA         0.6700   -4.6740   13.2810 C.3   158  TYR158      0.1605
     85  C         -0.2060   -3.4190   13.3260 C.2   158  TYR158      0.2264
     86  O         -0.7610   -3.0810   14.3790 O.2   158  TYR158     -0.2867
     87  CB         2.1590   -4.3020   13.1810 C.3   158  TYR158      0.0534
     88  CG         2.6590   -3.3420   14.2440 C.ar  158  TYR158     -0.0201
     89  CD1        3.0440   -3.8010   15.4980 C.ar  158  TYR158     -0.0009
     90  CD2        2.7850   -1.9930   13.9800 C.ar  158  TYR158     -0.0009
     91  CE1        3.5150   -2.9370   16.4580 C.ar  158  TYR158      0.0417
     92  CE2        3.2580   -1.1240   14.9280 C.ar  158  TYR158      0.0417
     93  CZ         3.6210   -1.5910   16.1580 C.ar  158  TYR158      0.1957
     94  OH         4.0920   -0.6930   17.0840 O.3   158  TYR158     -0.2866
     95  N          3.8690    6.5280   19.2820 N.3   190  LEU190     -0.1231
     96  CA         5.3220    6.6490   19.1980 C.3   190  LEU190      0.1693
     97  C          5.8440    6.3470   17.8000 C.2   190  LEU190      0.2593
     98  O          5.4690    5.3420   17.1940 O.2   190  LEU190     -0.2718
     99  CB         5.9990    5.7040   20.1920 C.3   190  LEU190      0.0284
    100  CG         5.3960    5.5320   21.5870 C.3   190  LEU190      0.0019
    101  CD1        6.0440    4.3340   22.2730 C.3   190  LEU190      0.0001
    102  CD2        5.5580    6.7800   22.4280 C.3   190  LEU190      0.0001
    103  N          6.7080    7.2220   17.2910 N.am  191  GLY191     -0.1942
    104  CA         7.3910    6.9640   16.0330 C.3   191  GLY191      0.2014
    105  C          8.4620    5.9320   16.2950 C.2   191  GLY191      0.2639
    106  O          8.3640    5.1870   17.2720 O.2   191  GLY191     -0.2714
    107  N          9.4970    5.8850   15.4650 N.am  192  LEU192     -0.1963
    108  CA        10.5550    4.8980   15.6790 C.3   192  LEU192      0.1728
    109  C         11.3370    5.1890   16.9620 C.2   192  LEU192      0.2616
    110  O         11.6480    6.3450   17.2710 O.2   192  LEU192     -0.2715
    111  CB        11.5050    4.8230   14.4850 C.3   192  LEU192      0.0311
    112  CG        12.6320    3.7980   14.6200 C.3   192  LEU192      0.0022
    113  CD1       12.1480    2.3830   14.3150 C.3   192  LEU192      0.0001
    114  CD2       13.7770    4.1740   13.7030 C.3   192  LEU192      0.0001
    115  N         11.6390    4.1350   17.7140 N.am  193  ILE193     -0.1977
    116  CA        12.4340    4.2670   18.9260 C.3   193  ILE193      0.1596
    117  C         13.5880    3.2840   18.8630 C.2   193  ILE193      0.2287
    118  O         13.4610    2.2180   18.2580 O.2   193  ILE193     -0.2864
    119  CB        11.5980    4.0210   20.1910 C.3   193  ILE193      0.0276
    120  CG1       10.2510    4.7410   20.0840 C.3   193  ILE193      0.0022
    121  CG2       12.3610    4.4850   21.4310 C.3   193  ILE193      0.0022
    122  CD1       10.3410    6.2500   20.2790 C.3   193  ILE193      0.0001
    123  N         14.8690    0.9170   20.3530 N.3   195  THR195     -0.1218
    124  CA        14.8800   -0.3550   21.0560 C.3   195  THR195      0.1862
    125  C         15.6100   -1.3620   20.1860 C.2   195  THR195      0.2287
    126  O         15.5200   -1.3300   18.9590 O.2   195  THR195     -0.2866
    127  CB        13.4630   -0.8860   21.3950 C.3   195  THR195      0.1770
    128  OG1       12.7880   -1.2760   20.1940 O.3   195  THR195     -0.2211
    129  CG2       12.6480    0.1580   22.1530 C.3   195  THR195      0.0375
    130  N         14.9450   -4.2320   19.4360 N.3   197  THR197     -0.1203
    131  CA        14.0550   -4.9920   18.5580 C.3   197  THR197      0.1994
    132  C         13.5250   -4.1650   17.3880 C.2   197  THR197      0.2617
    133  O         13.4010   -4.6770   16.2730 O.2   197  THR197     -0.2717
    134  CB        12.8690   -5.5790   19.3340 C.3   197  THR197      0.1784
    135  OG1       13.3140   -6.0120   20.6230 O.3   197  THR197     -0.2211
    136  CG2       12.2700   -6.7580   18.5840 C.3   197  THR197      0.0376
    137  N         13.1970   -2.8980   17.6390 N.am  198  ALA198     -0.1979
    138  CA        12.8250   -1.9910   16.5570 C.3   198  ALA198      0.1597
    139  C         13.9940   -1.8440   15.5890 C.2   198  ALA198      0.2287
    140  O         13.8220   -1.9830   14.3800 O.2   198  ALA198     -0.2864
    141  CB        12.4080   -0.6260   17.0970 C.3   198  ALA198      0.0319
    142  N         14.6880   -4.7540   13.3950 N.3   201  ALA201     -0.1231
    143  CA        13.6060   -4.9670   12.4450 C.3   201  ALA201      0.1694
    144  C         13.7240   -3.9820   11.3010 C.2   201  ALA201      0.2591
    145  O         13.6060   -4.3540   10.1360 O.2   201  ALA201     -0.2718
    146  CB        12.2680   -4.8110   13.1300 C.3   201  ALA201      0.0304
    147  N         13.9750   -2.7240   11.6520 N.am  202  VAL202     -0.1980
    148  CA        14.0090   -1.6260   10.6930 C.3   202  VAL202      0.1595
    149  C         15.4070   -1.4010   10.1170 C.2   202  VAL202      0.2287
    150  O         15.9980   -0.3320   10.3040 O.2   202  VAL202     -0.2864
    151  CB        13.5130   -0.3130   11.3460 C.3   202  VAL202      0.0276
    152  CG1       13.5480    0.8550   10.3670 C.3   202  VAL202      0.0022
    153  CG2       12.0660   -0.5120   11.8040 C.3   202  VAL202      0.0022
    154  N         15.4450    0.3550    5.3920 N.3   206  VAL206     -0.1245
    155  CA        15.5430    1.8060    5.3680 C.3   206  VAL206      0.1561
    156  C         16.0340    2.2580    6.7310 C.2   206  VAL206      0.2260
    157  O         16.6960    1.4930    7.4350 O.2   206  VAL206     -0.2867
    158  CB        14.1850    2.4660    5.0700 C.3   206  VAL206      0.0252
    159  CG1       13.7500    2.1960    3.6420 C.3   206  VAL206      0.0019
    160  CG2       13.1300    2.0230    6.0850 C.3   206  VAL206      0.0019
    161  N         15.1140    5.9630    9.5130 N.3   208  MET208     -0.1245
    162  CA        15.0420    7.3720    9.8620 C.3   208  MET208      0.1570
    163  C         15.6480    7.5440   11.2490 C.2   208  MET208      0.2261
    164  O         16.2160    6.6050   11.8030 O.2   208  MET208     -0.2867
    165  CB        13.5950    7.8620    9.8460 C.3   208  MET208      0.0387
    166  CG        12.8430    7.5040    8.5870 C.3   208  MET208      0.0595
    167  SD        13.2360    8.6760    7.3020 S.3   208  MET208     -0.1393
    168  CE        12.3730   10.0720    8.0680 C.3   208  MET208      0.0692
    169  N          8.0600   11.4620   18.8520 N.3   234  ASP234     -0.1239
    170  CA         8.8540   11.1340   17.6690 C.3   234  ASP234      0.1674
    171  C         10.1980   11.8810   17.6580 C.2   234  ASP234      0.2266
    172  O         10.4030   12.8300   18.4180 O.2   234  ASP234     -0.2867
    173  CB         8.0590   11.4700   16.4050 C.3   234  ASP234      0.1410
    174  CG         8.6610   10.8540   15.1640 C.2   234  ASP234      0.3668
    175  OD1        9.1620   11.6070   14.3050 O.co2 234  ASP234     -0.2456
    176  OD2        8.6540    9.6100   15.0540 O.co2 234  ASP234     -0.2456
@<TRIPOS>BOND
     1   159   158    1
     2   158   155    1
     3   158   160    1
     4   155   154    1
     5   155   156    1
     6    66    67    2
     7    66    65    1
     8    65    64    1
     9    65    68    1
    10    40    39    2
    11   156   157    2
    12    71    73   ar
    13    71    69   ar
    14    68    69    1
    15    39    38    1
    16   167   168    1
    17   167   166    1
    18    76    77    1
    19    73    74   ar
    20    69    70   ar
    21    41    38    1
    22    41    42    1
    23    38    37    1
    24    43    42    1
    25   166   165    1
    26    74    75    1
    27    74    72   ar
    28    77    78    1
    29    77    80    1
    30    78    79    2
    31    70    72   ar
    32    82    80    1
    33    42    44    1
    34   161   162    1
    35    80    81    1
    36    37    33   am
    37   165   162    1
    38   162   163    1
    39   149   150    2
    40   149   148    1
    41   145   144    2
    42    34    33    2
    43   152   151    1
    44    33    32    1
    45   148   151    1
    46   148   147    1
    47    36    35    1
    48   163   164    2
    49    35    32    1
    50   144   147   am
    51   144   143    1
    52   151   153    1
    53    32    31    1
    54    63    60    1
    55    62    61    2
    56    83    84    1
    57    60    61    1
    58    60    59    1
    59   143   146    1
    60   143   142    1
    61    54    53    2
    62    31    26   am
    63    57    56    1
    64    59    53   am
    65    53    52    1
    66    87    84    1
    67    87    88    1
    68    84    85    1
    69    55    56    1
    70    55    52    1
    71    85    86    2
    72    30    28    1
    73    56    58    1
    74   114   112    1
    75    26    27    2
    76    26    25    1
    77    90    88   ar
    78    90    92   ar
    79    52    51    1
    80    88    89   ar
    81   175   174   ar
    82   113   112    1
    83   140   139    2
    84   111   112    1
    85   111   108    1
    86    25    28    1
    87    25    24    1
    88    28    29    1
    89    92    93   ar
    90   176   174   ar
    91   174   173    1
    92    51    47   am
    93   107   108    1
    94   107   105   am
    95    89    91   ar
    96   139   138    1
    97   108   109    1
    98    48    47    2
    99    19    18    2
   100    24    18   am
   101    47    46    1
   102   104   105    1
   103   104   103    1
   104    93    91   ar
   105    93    94    1
   106   133   132    2
   107   105   106    2
   108   173   170    1
   109    18    17    1
   110    49    46    1
   111    49    50    1
   112   138   141    1
   113   138   137    1
   114   109   110    2
   115   109   115   am
   116    46    45    1
   117    98    97    2
   118   103    97   am
   119   132   137   am
   120   132   131    1
   121   171   170    1
   122   171   172    2
   123   170   169    1
   124    15    13    1
   125   115   116    1
   126    97    96    1
   127    17    20    1
   128    17    16    1
   129    20    21    1
   130    12    11    2
   131   118   117    2
   132   131   134    1
   133   131   130    1
   134   136   134    1
   135    16    11   am
   136    14    13    1
   137    11    10    1
   138   117   116    1
   139   116   119    1
   140   126   125    2
   141    13    10    1
   142    96    95    1
   143    96    99    1
   144     8     6    1
   145    23    21   am
   146    21    22    2
   147   134   135    1
   148    10     9    1
   149   120   119    1
   150   120   122    1
   151   125   124    1
   152   119   121    1
   153    99   100    1
   154   128   127    1
   155     9     3   am
   156   123   124    1
   157     5     6    1
   158     5     7    1
   159     5     2    1
   160   124   127    1
   161     3     2    1
   162     3     4    2
   163   127   129    1
   164   100   101    1
   165   100   102    1
   166     2     1    1
