@<TRIPOS>MOLECULE
tmp/3h6oA01.pdb
 85 81 0 0 0
SMALL
GASTEIGER

@<TRIPOS>ATOM
      1  N         14.3050   -1.9740   13.9190 N.3    13  PHE13      -0.1241
      2  CA        13.5980   -1.1810   12.9620 C.3    13  PHE13       0.1605
      3  C         14.5570   -0.5830   11.9460 C.2    13  PHE13       0.2264
      4  O         14.2210   -0.5130   10.7600 O.2    13  PHE13      -0.2867
      5  CB        12.7870   -0.0610   13.5930 C.3    13  PHE13       0.0534
      6  CG        11.9800    0.7040   12.5850 C.ar   13  PHE13      -0.0203
      7  CD1       12.3610    1.9750   12.1810 C.ar   13  PHE13      -0.0042
      8  CD2       10.8760    0.1110   11.9810 C.ar   13  PHE13      -0.0042
      9  CE1       11.6390    2.6560   11.2320 C.ar   13  PHE13      -0.0003
     10  CE2       10.1420    0.7850   11.0390 C.ar   13  PHE13      -0.0003
     11  CZ        10.5340    2.0580   10.6500 C.ar   13  PHE13      -0.0000
     12  N         -5.6240    2.4210   16.9490 N.3   277  ASN277     -0.1240
     13  CA        -4.9410    1.1460   16.9130 C.3   277  ASN277      0.1653
     14  C         -4.8800    0.4980   18.2920 C.2   277  ASN277      0.2266
     15  O         -5.0920   -0.6980   18.4170 O.2   277  ASN277     -0.2867
     16  CB        -3.4810    1.3170   16.3870 C.3   277  ASN277      0.1155
     17  CG        -3.3690    1.4400   14.8410 C.2   277  ASN277      0.2627
     18  OD1       -2.2470    1.4200   14.3030 O.2   277  ASN277     -0.2716
     19  ND2       -4.4720    1.5700   14.1490 N.am  277  ASN277     -0.0877
     20  N          1.5930    2.7810    6.8210 N.3   312  LEU312     -0.1231
     21  CA         2.6040    2.4580    7.8200 C.3   312  LEU312      0.1693
     22  C          2.2390    2.9890    9.2070 C.2   312  LEU312      0.2592
     23  O          2.5380    2.3190   10.1870 O.2   312  LEU312     -0.2718
     24  CB         3.9820    2.9840    7.4090 C.3   312  LEU312      0.0284
     25  CG         4.5870    2.3510    6.1690 C.3   312  LEU312      0.0019
     26  CD1        5.7760    3.2040    5.7250 C.3   312  LEU312      0.0001
     27  CD2        5.0100    0.8890    6.4280 C.3   312  LEU312      0.0001
     28  N          1.6200    4.1790    9.2910 N.am  313  ASP313     -0.1960
     29  CA         1.1380    4.7240   10.5870 C.3   313  ASP313      0.1840
     30  C          0.1690    3.7510   11.2650 C.2   313  ASP313      0.2622
     31  O          0.1600    3.6230   12.5060 O.2   313  ASP313     -0.2715
     32  CB         0.3880    6.0640   10.4310 C.3   313  ASP313      0.1450
     33  CG         1.2940    7.2140   10.1020 C.2   313  ASP313      0.3671
     34  OD1        2.5260    7.0820   10.2600 O.co2 313  ASP313     -0.2456
     35  OD2        0.7600    8.2620    9.6620 O.co2 313  ASP313     -0.2456
     36  N         -0.6580    3.1010   10.4520 N.am  314  GLY314     -0.1954
     37  CA        -1.6610    2.1570   10.9540 C.3   314  GLY314      0.1869
     38  C         -3.1100    2.4760   10.5880 C.2   314  GLY314      0.2309
     39  O         -4.0240    1.9530   11.2330 O.2   314  GLY314     -0.2863
     40  N          5.3110   -2.9250    6.5500 N.3   348  ILE348     -0.1231
     41  CA         5.0890   -2.7360    7.9520 C.3   348  ILE348      0.1692
     42  C          6.0040   -3.6710    8.7270 C.2   348  ILE348      0.2592
     43  O          6.2770   -4.7950    8.2860 O.2   348  ILE348     -0.2718
     44  CB         3.6330   -3.0310    8.3600 C.3   348  ILE348      0.0266
     45  CG1        2.6760   -1.9400    7.8440 C.3   348  ILE348      0.0019
     46  CG2        3.5490   -3.1030    9.8430 C.3   348  ILE348      0.0020
     47  CD1        1.2720   -2.3820    7.7050 C.3   348  ILE348      0.0001
     48  N          6.4630   -3.2060    9.8860 N.am  349  TYR349     -0.1976
     49  CA         7.3720   -3.9830   10.7240 C.3   349  TYR349      0.1639
     50  C          6.5170   -4.7900   11.7090 C.2   349  TYR349      0.2290
     51  O          6.4040   -4.4690   12.8940 O.2   349  TYR349     -0.2864
     52  CB         8.3920   -3.0470   11.3930 C.3   349  TYR349      0.0560
     53  CG         9.5030   -3.7120   12.1700 C.ar  349  TYR349     -0.0198
     54  CD1       10.1250   -4.8610   11.7020 C.ar  349  TYR349     -0.0009
     55  CD2        9.9800   -3.1370   13.3520 C.ar  349  TYR349     -0.0009
     56  CE1       11.1500   -5.4550   12.4060 C.ar  349  TYR349      0.0417
     57  CE2       11.0090   -3.7120   14.0710 C.ar  349  TYR349      0.0417
     58  CZ        11.5930   -4.8740   13.5930 C.ar  349  TYR349      0.1957
     59  OH        12.5930   -5.4580   14.2880 O.3   349  TYR349     -0.2866
     60  N          7.6860   -6.0540   15.4640 N.3   352  GLN352     -0.1231
     61  CA         7.5290   -5.2150   16.6520 C.3   352  GLN352      0.1698
     62  C          6.0850   -4.7850   16.9020 C.2   352  GLN352      0.2592
     63  O          5.6790   -4.6170   18.0500 O.2   352  GLN352     -0.2718
     64  CB         8.4150   -3.9800   16.5900 C.3   352  GLN352      0.0381
     65  CG         8.4470   -3.2150   17.9140 C.3   352  GLN352      0.0905
     66  CD         9.5630   -2.1790   17.9990 C.2   352  GLN352      0.2608
     67  OE1       10.5970   -2.3060   17.3510 O.2   352  GLN352     -0.2717
     68  NE2        9.3430   -1.1410   18.8050 N.am  352  GLN352     -0.0878
     69  N          5.3340   -4.5730   15.8260 N.am  353  LEU353     -0.1980
     70  CA         3.9500   -4.1460   15.9030 C.3   353  LEU353      0.1596
     71  C          3.1180   -5.1690   16.6570 C.2   353  LEU353      0.2287
     72  O          2.3440   -4.8150   17.5410 O.2   353  LEU353     -0.2864
     73  CB         3.3640   -3.9620   14.4920 C.3   353  LEU353      0.0297
     74  CG         1.8850   -3.6080   14.4250 C.3   353  LEU353      0.0022
     75  CD1        1.6310   -2.2670   15.1180 C.3   353  LEU353      0.0001
     76  CD2        1.3750   -3.5900   13.0100 C.3   353  LEU353      0.0001
     77  N          4.2040   -5.3560   20.3770 N.3   356  GLU356     -0.1245
     78  CA         3.7020   -4.2610   21.1860 C.3   356  GLU356      0.1567
     79  C          2.1960   -4.3260   21.4130 C.2   356  GLU356      0.2260
     80  O          1.7420   -3.9140   22.4590 O.2   356  GLU356     -0.2867
     81  CB         4.0700   -2.9000   20.5760 C.3   356  GLU356      0.0388
     82  CG         5.5770   -2.6090   20.5650 C.3   356  GLU356      0.1160
     83  CD         5.9310   -1.1820   20.1440 C.2   356  GLU356      0.3649
     84  OE1        5.0600   -0.4650   19.6360 O.co2 356  GLU356     -0.2457
     85  OE2        7.1120   -0.7800   20.3280 O.co2 356  GLU356     -0.2457
@<TRIPOS>BOND
     1    26    25    1
     2    25    27    1
     3    25    24    1
     4    40    41    1
     5    20    21    1
     6    24    21    1
     7    47    45    1
     8    21    22    1
     9    45    44    1
    10    41    44    1
    11    41    42    1
    12    43    42    2
    13    44    46    1
    14    42    48   am
    15    22    28   am
    16    22    23    2
    17    28    29    1
    18    35    33   ar
    19    48    49    1
    20    33    34   ar
    21    33    32    1
    22    32    29    1
    23    36    37    1
    24    36    30   am
    25    29    30    1
    26    38    37    1
    27    38    39    2
    28    11    10   ar
    29    11     9   ar
    30    49    52    1
    31    49    50    1
    32     4     3    2
    33    10     8   ar
    34     9     7   ar
    35    30    31    2
    36    52    53    1
    37    54    53   ar
    38    54    56   ar
    39    50    51    2
    40     3     2    1
    41     8     6   ar
    42    53    55   ar
    43     7     6   ar
    44    56    58   ar
    45     6     5    1
    46     2     5    1
    47     2     1    1
    48    76    74    1
    49    55    57   ar
    50    58    57   ar
    51    58    59    1
    52    19    17   am
    53    18    17    2
    54    74    73    1
    55    74    75    1
    56    73    70    1
    57    17    16    1
    58    60    61    1
    59    69    70    1
    60    69    62   am
    61    70    71    1
    62    16    13    1
    63    64    61    1
    64    64    65    1
    65    61    62    1
    66    71    72    2
    67    62    63    2
    68    13    12    1
    69    13    14    1
    70    67    66    2
    71    65    66    1
    72    66    68   am
    73    14    15    2
    74    84    83   ar
    75    83    85   ar
    76    83    82    1
    77    77    78    1
    78    82    81    1
    79    81    78    1
    80    78    79    1
    81    79    80    2
