@<TRIPOS>MOLECULE
tmp/3h6oC01.pdb
 85 81 0 0 0
SMALL
GASTEIGER

@<TRIPOS>ATOM
      1  N         13.4040   -6.6700   32.3700 N.3    13  PHE13      -0.1241
      2  CA        13.8170   -7.7660   33.2450 C.3    13  PHE13       0.1605
      3  C         14.2640   -7.2390   34.6240 C.2    13  PHE13       0.2264
      4  O         13.9710   -7.8520   35.6400 O.2    13  PHE13      -0.2867
      5  CB        14.9190   -8.6240   32.6090 C.3    13  PHE13       0.0534
      6  CG        15.4080   -9.7240   33.5180 C.ar   13  PHE13      -0.0203
      7  CD1       16.5980   -9.5870   34.2330 C.ar   13  PHE13      -0.0042
      8  CD2       14.6510  -10.8590   33.7110 C.ar   13  PHE13      -0.0042
      9  CE1       17.0350  -10.5860   35.0880 C.ar   13  PHE13      -0.0003
     10  CE2       15.0900  -11.8620   34.5550 C.ar   13  PHE13      -0.0003
     11  CZ        16.2840  -11.7120   35.2610 C.ar   13  PHE13      -0.0000
     12  N         16.9660  -25.4550   24.7310 N.3   255  ASN255     -0.1240
     13  CA        15.7170  -24.7230   24.5520 C.3   255  ASN255      0.1653
     14  C         15.5750  -24.1910   23.1060 C.2   255  ASN255      0.2266
     15  O         14.4820  -24.1830   22.5360 O.2   255  ASN255     -0.2867
     16  CB        15.6490  -23.5310   25.5180 C.3   255  ASN255      0.1155
     17  CG        15.6090  -23.9300   26.9860 C.2   255  ASN255      0.2627
     18  OD1       15.6490  -23.0590   27.8490 O.2   255  ASN255     -0.2716
     19  ND2       15.5290  -25.2370   27.2820 N.am  255  ASN255     -0.0877
     20  N         15.0790  -21.4550   36.2660 N.3   290  LEU290     -0.1231
     21  CA        15.1350  -20.1600   35.5890 C.3   290  LEU290      0.1693
     22  C         15.9980  -20.2420   34.3260 C.2   290  LEU290      0.2592
     23  O         15.6500  -19.6580   33.3020 O.2   290  LEU290     -0.2718
     24  CB        15.6400  -19.0640   36.5250 C.3   290  LEU290      0.0284
     25  CG        14.7330  -18.7390   37.7190 C.3   290  LEU290      0.0019
     26  CD1       15.4670  -17.8490   38.7260 C.3   290  LEU290      0.0001
     27  CD2       13.4460  -18.0860   37.2480 C.3   290  LEU290      0.0001
     28  N         17.1070  -20.9810   34.3820 N.am  291  ASP291     -0.1960
     29  CA        17.9180  -21.1980   33.1700 C.3   291  ASP291      0.1840
     30  C         17.0770  -21.8090   32.0600 C.2   291  ASP291      0.2622
     31  O         17.2390  -21.4680   30.9030 O.2   291  ASP291     -0.2715
     32  CB        19.0900  -22.1320   33.4260 C.3   291  ASP291      0.1450
     33  CG        20.1610  -21.5140   34.2670 C.2   291  ASP291      0.3671
     34  OD1       20.1610  -20.2780   34.4670 O.co2 291  ASP291     -0.2456
     35  OD2       21.0030  -22.2810   34.7390 O.co2 291  ASP291     -0.2456
     36  N         16.1930  -22.7220   32.4360 N.am  292  GLY292     -0.1954
     37  CA        15.2930  -23.3780   31.4930 C.3   292  GLY292      0.1869
     38  C         15.4370  -24.8870   31.4440 C.2   292  GLY292      0.2309
     39  O         15.1560  -25.4850   30.4110 O.2   292  GLY292     -0.2863
     40  N          9.9230  -17.1730   36.2330 N.3   326  ILE326     -0.1231
     41  CA        10.4520  -17.0780   34.8670 C.3   326  ILE326      0.1692
     42  C          9.8800  -15.8550   34.1670 C.2   326  ILE326      0.2592
     43  O          8.7020  -15.5320   34.3380 O.2   326  ILE326     -0.2718
     44  CB        10.0720  -18.3280   34.0220 C.3   326  ILE326      0.0266
     45  CG1       10.7980  -19.5680   34.5320 C.3   326  ILE326      0.0019
     46  CG2       10.3910  -18.1030   32.5180 C.3   326  ILE326      0.0020
     47  CD1       10.2460  -20.8370   33.9820 C.3   326  ILE326      0.0001
     48  N         10.7130  -15.1610   33.3990 N.am  327  TYR327     -0.1976
     49  CA        10.2810  -13.9380   32.7170 C.3   327  TYR327      0.1639
     50  C          9.7350  -14.3100   31.3270 C.2   327  TYR327      0.2290
     51  O         10.3570  -14.0350   30.2800 O.2   327  TYR327     -0.2864
     52  CB        11.4200  -12.9290   32.6540 C.3   327  TYR327      0.0560
     53  CG        11.0480  -11.5630   32.1080 C.ar  327  TYR327     -0.0198
     54  CD1        9.8190  -10.9590   32.4110 C.ar  327  TYR327     -0.0009
     55  CD2       11.9470  -10.8510   31.3220 C.ar  327  TYR327     -0.0009
     56  CE1        9.4910   -9.7100   31.9200 C.ar  327  TYR327      0.0417
     57  CE2       11.6370   -9.6050   30.8290 C.ar  327  TYR327      0.0417
     58  CZ        10.4110   -9.0290   31.1290 C.ar  327  TYR327      0.1957
     59  OH        10.1220   -7.7730   30.6270 O.3   327  TYR327     -0.2866
     60  N          9.4960  -12.0370   27.8950 N.3   330  GLN330     -0.1231
     61  CA        10.6350  -11.9690   26.9670 C.3   330  GLN330      0.1698
     62  C         11.0520  -13.3610   26.4530 C.2   330  GLN330      0.2592
     63  O         11.4600  -13.5120   25.3100 O.2   330  GLN330     -0.2718
     64  CB        11.8150  -11.2490   27.6110 C.3   330  GLN330      0.0381
     65  CG        13.0660  -11.2350   26.7260 C.3   330  GLN330      0.0905
     66  CD        14.1050  -10.2820   27.1950 C.2   330  GLN330      0.2608
     67  OE1       13.8110   -9.3420   27.9300 O.2   330  GLN330     -0.2717
     68  NE2       15.3550  -10.5170   26.7840 N.am  330  GLN330     -0.0878
     69  N         10.9640  -14.3670   27.3030 N.am  331  LEU331     -0.1980
     70  CA        11.2750  -15.7370   26.8920 C.3   331  LEU331      0.1596
     71  C         10.4370  -16.1670   25.6720 C.2   331  LEU331      0.2287
     72  O         10.9790  -16.6760   24.6860 O.2   331  LEU331     -0.2864
     73  CB        11.0200  -16.7060   28.0510 C.3   331  LEU331      0.0297
     74  CG        11.1520  -18.2050   27.7520 C.3   331  LEU331      0.0022
     75  CD1       12.5680  -18.5270   27.2720 C.3   331  LEU331      0.0001
     76  CD2       10.7990  -19.0100   28.9880 C.3   331  LEU331      0.0001
     77  N         11.3160  -14.1390   22.5060 N.3   334  GLU334     -0.1245
     78  CA        12.5710  -14.6340   21.9160 C.3   334  GLU334      0.1567
     79  C         12.4250  -15.9910   21.2350 C.2   334  GLU334      0.2260
     80  O         12.9970  -16.2080   20.1630 O.2   334  GLU334     -0.2867
     81  CB        13.6920  -14.6910   22.9740 C.3   334  GLU334      0.0388
     82  CG        14.1210  -13.3100   23.4370 C.3   334  GLU334      0.1160
     83  CD        15.3510  -13.2830   24.3040 C.2   334  GLU334      0.3649
     84  OE1       15.8500  -14.3360   24.7170 O.co2 334  GLU334     -0.2457
     85  OE2       15.8330  -12.1660   24.5720 O.co2 334  GLU334     -0.2457
@<TRIPOS>BOND
     1    80    79    2
     2    79    78    1
     3    78    77    1
     4    78    81    1
     5    15    14    2
     6    81    82    1
     7    14    13    1
     8    82    83    1
     9    83    85   ar
    10    83    84   ar
    11    13    12    1
    12    13    16    1
    13    72    71    2
    14    63    62    2
    15    16    17    1
    16    71    70    1
    17    62    61    1
    18    62    69   am
    19    65    66    1
    20    65    64    1
    21    68    66   am
    22    70    69    1
    23    70    73    1
    24    61    64    1
    25    61    60    1
    26    17    19   am
    27    17    18    2
    28    66    67    2
    29    75    74    1
    30    74    73    1
    31    74    76    1
    32    51    50    2
    33    39    38    2
    34    59    58    1
    35    57    58   ar
    36    57    55   ar
    37    31    30    2
    38    58    56   ar
    39    55    53   ar
    40    50    49    1
    41    38    37    1
    42    37    36    1
    43    56    54   ar
    44    30    36   am
    45    30    29    1
    46    53    54   ar
    47    53    52    1
    48     1     2    1
    49    46    44    1
    50     5     2    1
    51     5     6    1
    52    52    49    1
    53    49    48    1
    54    29    32    1
    55    29    28    1
    56     2     3    1
    57    23    22    2
    58    48    42   am
    59    32    33    1
    60     6     8   ar
    61     6     7   ar
    62     8    10   ar
    63    47    45    1
    64    44    45    1
    65    44    41    1
    66    42    43    2
    67    42    41    1
    68     7     9   ar
    69    33    34   ar
    70    33    35   ar
    71    22    28   am
    72    22    21    1
    73    10    11   ar
    74     3     4    2
    75    41    40    1
    76     9    11   ar
    77    21    20    1
    78    21    24    1
    79    24    25    1
    80    27    25    1
    81    25    26    1
