@<TRIPOS>MOLECULE
tmp/3h6oC00.pdb
 159 155 0 0 0
SMALL
GASTEIGER

@<TRIPOS>ATOM
      1  N         -4.1910  -34.1000   23.2330 N.3   368  LEU368     -0.1231
      2  CA        -4.2250  -35.5240   22.8880 C.3   368  LEU368      0.1693
      3  C         -3.0460  -35.8440   21.9910 C.2   368  LEU368      0.2593
      4  O         -2.7470  -35.1020   21.0650 O.2   368  LEU368     -0.2718
      5  CB        -5.5230  -35.9240   22.1720 C.3   368  LEU368      0.0284
      6  CG        -6.8700  -35.4840   22.7570 C.3   368  LEU368      0.0019
      7  CD1       -7.9950  -36.3960   22.2410 C.3   368  LEU368      0.0001
      8  CD2       -6.8360  -35.4740   24.2480 C.3   368  LEU368      0.0001
      9  N         -2.4070  -36.9740   22.2540 N.am  369  THR369     -0.1939
     10  CA        -1.1740  -37.3220   21.5890 C.3   369  THR369      0.2028
     11  C         -0.8990  -38.8160   21.7300 C.2   369  THR369      0.2642
     12  O         -1.1300  -39.3960   22.7840 O.2   369  THR369     -0.2714
     13  CB         0.0130  -36.4770   22.1430 C.3   369  THR369      0.1808
     14  OG1        1.2070  -36.7900   21.4280 O.3   369  THR369     -0.2208
     15  CG2        0.2280  -36.7280   23.6280 C.3   369  THR369      0.0379
     16  N         -0.4400  -39.4330   20.6460 N.am  370  LYS370     -0.1963
     17  CA        -0.1150  -40.8600   20.6380 C.3   370  LYS370      0.1728
     18  C          1.3690  -41.0350   20.8930 C.2   370  LYS370      0.2616
     19  O          1.7690  -41.7780   21.7850 O.2   370  LYS370     -0.2715
     20  CB        -0.4850  -41.4880   19.2900 C.3   370  LYS370      0.0311
     21  CG        -1.9480  -41.3170   18.9040 C.3   370  LYS370      0.0038
     22  CD        -2.1990  -41.6530   17.4410 C.3   370  LYS370      0.0206
     23  CE        -2.0480  -43.1430   17.1520 C.3   370  LYS370      0.1093
     24  NZ        -2.8310  -44.0200   18.0790 N.3   370  LYS370     -0.1314
     25  N          2.1780  -40.3330   20.1040 N.am  371  SER371     -0.1950
     26  CA         3.6380  -40.3910   20.2050 C.3   371  SER371      0.1924
     27  C          4.2090  -39.4110   21.2460 C.2   371  SER371      0.2314
     28  O          5.3740  -39.5320   21.6580 O.2   371  SER371     -0.2863
     29  CB         4.2540  -40.0990   18.8300 C.3   371  SER371      0.2116
     30  OG         3.9850  -38.7680   18.4300 O.3   371  SER371     -0.2180
     31  N          4.6150  -36.2780   20.5550 N.3   373  ARG373     -0.1231
     32  CA         5.1430  -35.1920   19.7060 C.3   373  ARG373      0.1694
     33  C          4.3380  -33.8690   19.7580 C.2   373  ARG373      0.2592
     34  O          4.9240  -32.8010   19.8430 O.2   373  ARG373     -0.2718
     35  CB         5.2280  -35.6830   18.2570 C.3   373  ARG373      0.0321
     36  CG         6.0300  -34.7780   17.3270 C.3   373  ARG373      0.0489
     37  CD         5.2780  -33.4950   16.9420 C.3   373  ARG373      0.2205
     38  NE         4.0270  -33.7840   16.2510 N.pl3 373  ARG373     -0.0865
     39  CZ         3.9100  -33.9530   14.9310 C.cat 373  ARG373      0.5346
     40  NH1        4.9730  -33.8680   14.1420 N.pl3 373  ARG373      0.1354
     41  NH2        2.7300  -34.2130   14.3900 N.pl3 373  ARG373      0.1354
     42  N          3.0130  -33.9550   19.6950 N.am  374  SER374     -0.1952
     43  CA         2.1450  -32.7620   19.7460 C.3   374  SER374      0.1924
     44  C          2.3290  -31.9520   21.0330 C.2   374  SER374      0.2314
     45  O          2.3590  -30.7220   21.0030 O.2   374  SER374     -0.2863
     46  CB         0.6760  -33.1590   19.5940 C.3   374  SER374      0.2116
     47  OG         0.4250  -33.7160   18.3070 O.3   374  SER374     -0.2180
     48  N         -2.8450  -43.0030   25.1600 N.3   392  ARG392     -0.1245
     49  CA        -3.1250  -44.4120   25.4680 C.3   392  ARG392      0.1563
     50  C         -1.8250  -45.2270   25.4500 C.2   392  ARG392      0.2260
     51  O         -1.8160  -46.3990   25.8240 O.2   392  ARG392     -0.2867
     52  CB        -4.1270  -44.9970   24.4600 C.3   392  ARG392      0.0307
     53  CG        -5.5700  -44.4910   24.6100 C.3   392  ARG392      0.0489
     54  CD        -6.5820  -45.5440   24.1110 C.3   392  ARG392      0.2205
     55  NE        -7.9520  -45.2600   24.5610 N.pl3 392  ARG392     -0.0865
     56  CZ        -8.8250  -44.4810   23.9160 C.cat 392  ARG392      0.5346
     57  NH1      -10.0400  -44.3020   24.4220 N.pl3 392  ARG392      0.1354
     58  NH2       -8.4990  -43.8700   22.7770 N.pl3 392  ARG392      0.1354
     59  N        -15.3720  -41.7080   16.2750 N.3   419  TRP419     -0.1241
     60  CA       -14.1390  -41.0020   16.6150 C.3   419  TRP419      0.1605
     61  C        -14.3970  -39.7070   17.4040 C.2   419  TRP419      0.2264
     62  O        -13.6820  -39.4130   18.3660 O.2   419  TRP419     -0.2867
     63  CB       -13.3010  -40.7360   15.3660 C.3   419  TRP419      0.0550
     64  CG       -11.9790  -40.1730   15.7070 C.ar  419  TRP419      0.0003
     65  CD1      -10.9630  -40.8070   16.3620 C.ar  419  TRP419      0.0946
     66  CD2      -11.5320  -38.8470   15.4550 C.ar  419  TRP419      0.0152
     67  NE1       -9.9030  -39.9570   16.5190 N.ar  419  TRP419     -0.2442
     68  CE2      -10.2250  -38.7430   15.9710 C.ar  419  TRP419      0.0810
     69  CE3      -12.1020  -37.7350   14.8290 C.ar  419  TRP419      0.0012
     70  CZ2       -9.4790  -37.5740   15.8820 C.ar  419  TRP419      0.0191
     71  CZ3      -11.3650  -36.5780   14.7430 C.ar  419  TRP419      0.0001
     72  CH2      -10.0650  -36.5050   15.2680 C.ar  419  TRP419      0.0015
     73  N        -14.7780  -40.4830   20.9790 N.3   422  ASP422     -0.1225
     74  CA       -13.5260  -40.9880   21.5300 C.3   422  ASP422      0.1805
     75  C        -12.6050  -39.8620   21.9600 C.2   422  ASP422      0.2597
     76  O        -11.8920  -39.9800   22.9600 O.2   422  ASP422     -0.2718
     77  CB       -12.8020  -41.8670   20.5150 C.3   422  ASP422      0.1424
     78  CG       -11.7060  -42.6870   21.1530 C.2   422  ASP422      0.3668
     79  OD1      -12.0150  -43.4970   22.0440 O.co2 422  ASP422     -0.2456
     80  OD2      -10.5370  -42.5040   20.7810 O.co2 422  ASP422     -0.2456
     81  N        -12.6140  -38.7810   21.1820 N.am  423  VAL423     -0.1980
     82  CA       -11.8090  -37.6000   21.4520 C.3   423  VAL423      0.1595
     83  C        -12.3700  -36.8540   22.6540 C.2   423  VAL423      0.2287
     84  O        -11.6210  -36.4740   23.5510 O.2   423  VAL423     -0.2864
     85  CB       -11.7700  -36.6590   20.2130 C.3   423  VAL423      0.0276
     86  CG1      -10.9920  -35.3750   20.5170 C.3   423  VAL423      0.0022
     87  CG2      -11.1630  -37.3780   19.0120 C.3   423  VAL423      0.0022
     88  N        -11.4850  -38.4620   26.0330 N.3   426  ARG426     -0.1245
     89  CA       -10.1300  -38.1430   26.4860 C.3   426  ARG426      0.1563
     90  C         -9.9850  -36.6900   26.9160 C.2   426  ARG426      0.2260
     91  O         -9.1950  -36.3870   27.8040 O.2   426  ARG426     -0.2867
     92  CB        -9.1060  -38.4870   25.4030 C.3   426  ARG426      0.0307
     93  CG        -8.8780  -39.9880   25.2670 C.3   426  ARG426      0.0489
     94  CD        -8.0850  -40.3120   24.0310 C.3   426  ARG426      0.2205
     95  NE        -8.8850  -40.1320   22.8230 N.pl3 426  ARG426     -0.0865
     96  CZ        -8.3870  -40.0560   21.5940 C.cat 426  ARG426      0.5346
     97  NH1       -7.0780  -40.1280   21.3910 N.pl3 426  ARG426      0.1354
     98  NH2       -9.2070  -39.9000   20.5610 N.pl3 426  ARG426      0.1354
     99  N         -6.5280  -30.8430   19.5750 N.3   450  THR450     -0.1203
    100  CA        -6.8840  -32.0910   18.9180 C.3   450  THR450      0.1994
    101  C         -6.5040  -32.0500   17.4280 C.2   450  THR450      0.2618
    102  O         -6.1090  -31.0040   16.9010 O.2   450  THR450     -0.2717
    103  CB        -8.4040  -32.3380   19.0350 C.3   450  THR450      0.1784
    104  OG1       -9.1030  -31.1780   18.5730 O.3   450  THR450     -0.2211
    105  CG2       -8.7940  -32.5940   20.4690 C.3   450  THR450      0.0376
    106  N         -6.6210  -33.1910   16.7540 N.am  451  GLY451     -0.1956
    107  CA        -6.5010  -33.2410   15.2970 C.3   451  GLY451      0.1869
    108  C         -7.8390  -33.3960   14.5950 C.2   451  GLY451      0.2309
    109  O         -8.8950  -33.4480   15.2340 O.2   451  GLY451     -0.2863
    110  N         -8.3780  -36.0100   12.4330 N.3   453  ARG453     -0.1231
    111  CA        -8.5990  -37.4600   12.2310 C.3   453  ARG453      0.1679
    112  C         -7.6400  -38.2910   13.1020 C.2   453  ARG453      0.2434
    113  O         -6.6610  -37.7520   13.6200 O.2   453  ARG453     -0.2733
    114  CB        -8.4300  -37.8350   10.7540 C.3   453  ARG453      0.0321
    115  CG        -7.0610  -37.4860   10.1540 C.3   453  ARG453      0.0489
    116  CD        -6.7250  -38.3650    8.9550 C.3   453  ARG453      0.2205
    117  NE        -5.7330  -39.4090    9.2630 N.pl3 453  ARG453     -0.0865
    118  CZ        -6.0040  -40.6810    9.5760 C.cat 453  ARG453      0.5346
    119  NH1       -5.0070  -41.5150    9.8340 N.pl3 453  ARG453      0.1354
    120  NH2       -7.2450  -41.1360    9.6390 N.pl3 453  ARG453      0.1354
    121  N         -7.9050  -39.6100   13.2480 N.am  454  PRO454     -0.2718
    122  CA        -7.0480  -40.4060   14.1290 C.3   454  PRO454      0.1535
    123  C         -5.6670  -40.6650   13.5090 C.2   454  PRO454      0.2599
    124  O         -5.4550  -40.3720   12.3430 O.2   454  PRO454     -0.2715
    125  CB        -7.8230  -41.7180   14.3100 C.3   454  PRO454      0.0310
    126  CG        -8.9930  -41.6630   13.4090 C.3   454  PRO454      0.0237
    127  CD        -8.9470  -40.4260   12.6000 C.3   454  PRO454      0.0939
    128  N         -4.7460  -41.2150   14.2920 N.am  455  GLY455     -0.1941
    129  CA        -3.3680  -41.3900   13.8550 C.3   455  GLY455      0.2014
    130  C         -2.5360  -40.1560   14.1350 C.2   455  GLY455      0.2640
    131  O         -3.0600  -39.0550   14.2250 O.2   455  GLY455     -0.2714
    132  N         -1.2260  -40.3460   14.2620 N.am  456  SER456     -0.1935
    133  CA        -0.3120  -39.2600   14.5880 C.3   456  SER456      0.2055
    134  C         -0.1160  -38.2960   13.4100 C.2   456  SER456      0.2644
    135  O         -0.2670  -38.6720   12.2350 O.2   456  SER456     -0.2714
    136  CB         1.0520  -39.8090   15.0150 C.3   456  SER456      0.2130
    137  OG         0.9240  -40.7590   16.0470 O.3   456  SER456     -0.2179
    138  N          0.2170  -37.0540   13.7490 N.am  457  GLY457     -0.1939
    139  CA         0.6410  -36.0540   12.7700 C.3   457  GLY457      0.2014
    140  C         -0.4210  -35.0790   12.3080 C.2   457  GLY457      0.2639
    141  O         -0.1170  -34.1760   11.5360 O.2   457  GLY457     -0.2714
    142  N         -1.6570  -35.2310   12.7850 N.am  458  PHE458     -0.1959
    143  CA        -2.7720  -34.4210   12.2860 C.3   458  PHE458      0.1771
    144  C         -3.3060  -33.3930   13.2960 C.2   458  PHE458      0.2620
    145  O         -4.4140  -32.8920   13.1300 O.2   458  PHE458     -0.2715
    146  CB        -3.8930  -35.3330   11.7750 C.3   458  PHE458      0.0574
    147  CG        -3.4180  -36.3630   10.7850 C.ar  458  PHE458     -0.0200
    148  CD1       -3.0290  -35.9860    9.5100 C.ar  458  PHE458     -0.0042
    149  CD2       -3.3280  -37.7020   11.1420 C.ar  458  PHE458     -0.0042
    150  CE1       -2.5680  -36.9200    8.6030 C.ar  458  PHE458     -0.0003
    151  CE2       -2.8680  -38.6520   10.2390 C.ar  458  PHE458     -0.0003
    152  CZ        -2.4910  -38.2650    8.9660 C.ar  458  PHE458     -0.0000
    153  N         -2.5110  -33.0410   14.3100 N.am  459  THR459     -0.1951
    154  CA        -2.9400  -32.0220   15.2850 C.3   459  THR459      0.1897
    155  C         -3.0570  -30.7030   14.5660 C.2   459  THR459      0.2313
    156  O         -2.0850  -30.2220   13.9590 O.2   459  THR459     -0.2863
    157  CB        -1.9800  -31.8840   16.4720 C.3   459  THR459      0.1794
    158  OG1       -1.9240  -33.1200   17.1810 O.3   459  THR459     -0.2208
    159  CG2       -2.4570  -30.7750   17.4400 C.3   459  THR459      0.0378
@<TRIPOS>BOND
     1   150   152   ar
     2   150   148   ar
     3   116   117    1
     4   116   115    1
     5   152   151   ar
     6   117   118    2
     7   148   147   ar
     8   118   120    1
     9   118   119    1
    10   115   114    1
    11   151   149   ar
    12   114   111    1
    13   147   149   ar
    14   147   146    1
    15   141   140    2
    16   146   143    1
    17   111   110    1
    18   111   112    1
    19   135   134    2
    20   143   142    1
    21   143   144    1
    22   140   139    1
    23   140   142   am
    24   124   123    2
    25   127   121    1
    26   127   126    1
    27   139   138    1
    28   112   121   am
    29   112   113    2
    30   145   144    2
    31   121   122    1
    32   144   153   am
    33   126   125    1
    34   134   138   am
    35   134   133    1
    36   123   122    1
    37   123   128   am
    38   129   130    1
    39   129   128    1
    40   156   155    2
    41   122   125    1
    42   130   131    2
    43   130   132   am
    44    40    39    1
    45   132   133    1
    46   153   154    1
    47    41    39    1
    48   155   154    1
    49   133   136    1
    50   108   109    2
    51   108   107    1
    52    71    69   ar
    53    71    72   ar
    54    69    66   ar
    55    39    38    2
    56   136   137    1
    57    72    70   ar
    58   154   157    1
    59   107   106    1
    60    63    64    1
    61    63    60    1
    62    66    64   ar
    63    66    68   ar
    64    64    65   ar
    65    70    68   ar
    66    68    67   ar
    67    38    37    1
    68    59    60    1
    69    65    67   ar
    70   157   158    1
    71   157   159    1
    72    60    61    1
    73   106   101   am
    74   102   101    2
    75    37    36    1
    76    23    22    1
    77    23    24    1
    78    36    35    1
    79    61    62    2
    80   101   100    1
    81    22    21    1
    82    35    32    1
    83    47    46    1
    84    30    29    1
    85   104   103    1
    86    29    26    1
    87    21    20    1
    88   100   103    1
    89   100    99    1
    90    87    85    1
    91   103   105    1
    92    20    17    1
    93    46    43    1
    94    42    43    1
    95    42    33   am
    96    32    33    1
    97    32    31    1
    98    43    44    1
    99    33    34    2
   100    25    26    1
   101    25    18   am
   102    26    27    1
   103    85    86    1
   104    85    82    1
   105    77    78    1
   106    77    74    1
   107    98    96    1
   108    17    16    1
   109    17    18    1
   110    16    11   am
   111    80    78   ar
   112    18    19    2
   113    73    74    1
   114    45    44    2
   115     4     3    2
   116    78    79   ar
   117    81    82    1
   118    81    75   am
   119    27    28    2
   120    97    96    1
   121    14    13    1
   122    82    83    1
   123    74    75    1
   124    10    11    1
   125    10    13    1
   126    10     9    1
   127    96    95    2
   128    11    12    2
   129    75    76    2
   130     3     9   am
   131     3     2    1
   132    13    15    1
   133     5     6    1
   134     5     2    1
   135     7     6    1
   136    83    84    2
   137     6     8    1
   138    58    56    1
   139    95    94    1
   140     2     1    1
   141    56    57    1
   142    56    55    2
   143    94    93    1
   144    54    55    1
   145    54    53    1
   146    52    53    1
   147    52    49    1
   148    48    49    1
   149    93    92    1
   150    92    89    1
   151    50    49    1
   152    50    51    2
   153    88    89    1
   154    89    90    1
   155    90    91    2
