@<TRIPOS>MOLECULE
tmp/3h6oA00.pdb
 159 155 0 0 0
SMALL
GASTEIGER

@<TRIPOS>ATOM
      1  N        -15.7980  -16.9800   10.4450 N.3   390  LEU390     -0.1231
      2  CA       -17.2690  -16.9260   10.4170 C.3   390  LEU390      0.1693
      3  C        -17.7260  -15.9050   11.4510 C.2   390  LEU390      0.2593
      4  O        -17.4170  -16.0210   12.6370 O.2   390  LEU390     -0.2718
      5  CB       -17.9130  -18.2920   10.7140 C.3   390  LEU390      0.0284
      6  CG       -17.5910  -19.5030    9.8250 C.3   390  LEU390      0.0019
      7  CD1      -18.5880  -20.6270   10.0750 C.3   390  LEU390      0.0001
      8  CD2      -17.5910  -19.1350    8.3660 C.3   390  LEU390      0.0001
      9  N        -18.4700  -14.9090   10.9940 N.am  391  THR391     -0.1939
     10  CA       -18.9680  -13.8640   11.8720 C.3   391  THR391      0.2028
     11  C        -20.3770  -13.4340   11.4420 C.2   391  THR391      0.2642
     12  O        -20.6230  -13.2060   10.2510 O.2   391  THR391     -0.2714
     13  CB       -17.9800  -12.6650   11.8760 C.3   391  THR391      0.1808
     14  OG1      -18.4130  -11.6710   12.8050 O.3   391  THR391     -0.2208
     15  CG2      -17.8470  -12.0530   10.4690 C.3   391  THR391      0.0379
     16  N        -21.3000  -13.3580   12.4130 N.am  392  LYS392     -0.1963
     17  CA       -22.6160  -12.7760   12.1940 C.3   392  LYS392      0.1728
     18  C        -22.5550  -11.2350   12.2270 C.2   392  LYS392      0.2616
     19  O        -22.9590  -10.5660   11.2670 O.2   392  LYS392     -0.2715
     20  CB       -23.5930  -13.2840   13.2460 C.3   392  LYS392      0.0311
     21  CG       -23.7720  -14.8010   13.2470 C.3   392  LYS392      0.0038
     22  CD       -24.7260  -15.2480   14.3220 C.3   392  LYS392      0.0206
     23  CE       -26.1980  -14.9560   13.9590 C.3   392  LYS392      0.1093
     24  NZ       -26.6300  -15.6390   12.7140 N.3   392  LYS392     -0.1314
     25  N        -22.0260  -10.6860   13.3230 N.am  393  SER393     -0.1950
     26  CA       -21.9500   -9.2350   13.5430 C.3   393  SER393      0.1924
     27  C        -20.6840   -8.5540   12.9790 C.2   393  SER393      0.2314
     28  O        -20.6020   -7.3220   12.9540 O.2   393  SER393     -0.2863
     29  CB       -21.9880   -8.9570   15.0410 C.3   393  SER393      0.2116
     30  OG       -20.8600   -9.5550   15.6890 O.3   393  SER393     -0.2180
     31  N        -17.9470   -8.9060   14.6880 N.3   395  ARG395     -0.1231
     32  CA       -17.0860   -8.7920   15.8800 C.3   395  ARG395      0.1694
     33  C        -15.8910   -9.7750   15.9230 C.2   395  ARG395      0.2592
     34  O        -14.7580   -9.3580   16.1750 O.2   395  ARG395     -0.2718
     35  CB       -17.9230   -8.9020   17.1520 C.3   395  ARG395      0.0321
     36  CG       -18.7740   -7.6460   17.3950 C.3   395  ARG395      0.0489
     37  CD       -19.3640   -7.6080   18.8140 C.3   395  ARG395      0.2205
     38  NE       -20.4250   -8.6000   19.0340 N.pl3 395  ARG395     -0.0865
     39  CZ       -21.6740   -8.4930   18.5870 C.cat 395  ARG395      0.5346
     40  NH1      -22.0550   -7.4380   17.8630 N.pl3 395  ARG395      0.1354
     41  NH2      -22.5610   -9.4540   18.8680 N.pl3 395  ARG395      0.1354
     42  N        -16.1400  -11.0600   15.6770 N.am  396  SER396     -0.1952
     43  CA       -15.0520  -12.0570   15.6000 C.3   396  SER396      0.1924
     44  C        -13.8960  -11.6640   14.6580 C.2   396  SER396      0.2314
     45  O        -12.7230  -11.8500   14.9990 O.2   396  SER396     -0.2863
     46  CB       -15.5960  -13.4250   15.2020 C.3   396  SER396      0.2116
     47  OG       -16.4240  -13.9660   16.2370 O.3   396  SER396     -0.2180
     48  N        -23.5620  -14.0380    6.5740 N.3   414  ARG414     -0.1245
     49  CA       -24.8280  -13.9470    5.8460 C.3   414  ARG414      0.1563
     50  C        -25.4820  -12.5610    5.9940 C.2   414  ARG414      0.2260
     51  O        -26.5220  -12.2990    5.3780 O.2   414  ARG414     -0.2867
     52  CB       -25.7890  -15.0420    6.3040 C.3   414  ARG414      0.0307
     53  CG       -25.4110  -16.4360    5.7810 C.3   414  ARG414      0.0489
     54  CD       -26.6030  -17.3900    5.8220 C.3   414  ARG414      0.2205
     55  NE       -26.3200  -18.6740    5.1740 N.pl3 414  ARG414     -0.0865
     56  CZ       -25.8160  -19.7440    5.7930 C.cat 414  ARG414      0.5346
     57  NH1      -25.6130  -20.8620    5.1040 N.pl3 414  ARG414      0.1354
     58  NH2      -25.5080  -19.7100    7.0870 N.pl3 414  ARG414      0.1354
     59  N        -26.0840  -28.0840   11.3620 N.3   441  TRP441     -0.1241
     60  CA       -25.2490  -26.9100   11.5960 C.3   441  TRP441      0.1605
     61  C        -23.7860  -27.1410   11.1740 C.2   441  TRP441      0.2264
     62  O        -23.2180  -26.3170   10.4860 O.2   441  TRP441     -0.2867
     63  CB       -25.3240  -26.4830   13.0630 C.3   441  TRP441      0.0550
     64  CG       -24.5780  -25.2300   13.3410 C.ar  441  TRP441      0.0003
     65  CD1      -24.8890  -23.9810   12.9020 C.ar  441  TRP441      0.0946
     66  CD2      -23.3890  -25.0940   14.1240 C.ar  441  TRP441      0.0152
     67  NE1      -23.9770  -23.0820   13.3590 N.ar  441  TRP441     -0.2442
     68  CE2      -23.0430  -23.7340   14.1150 C.ar  441  TRP441      0.0810
     69  CE3      -22.5800  -25.9970   14.8320 C.ar  441  TRP441      0.0012
     70  CZ2      -21.9180  -23.2410   14.7820 C.ar  441  TRP441      0.0191
     71  CZ3      -21.4690  -25.5110   15.4970 C.ar  441  TRP441      0.0001
     72  CH2      -21.1470  -24.1470   15.4660 C.ar  441  TRP441      0.0015
     73  N        -23.4960  -26.7080    7.6970 N.3   444  ASP444     -0.1225
     74  CA       -23.6530  -25.2710    7.4230 C.3   444  ASP444      0.1805
     75  C        -22.3540  -24.5080    7.6730 C.2   444  ASP444      0.2597
     76  O        -22.0130  -23.5770    6.9350 O.2   444  ASP444     -0.2718
     77  CB       -24.7670  -24.6670    8.2850 C.3   444  ASP444      0.1424
     78  CG       -25.2570  -23.3470    7.7540 C.2   444  ASP444      0.3668
     79  OD1      -25.7880  -23.3460    6.6290 O.co2 444  ASP444     -0.2456
     80  OD2      -25.1140  -22.3170    8.4540 O.co2 444  ASP444     -0.2456
     81  N        -21.6390  -24.8930    8.7260 N.am  445  VAL445     -0.1980
     82  CA       -20.3680  -24.2610    9.0520 C.3   445  VAL445      0.1595
     83  C        -19.3610  -24.5630    7.9480 C.2   445  VAL445      0.2287
     84  O        -18.8030  -23.6500    7.3670 O.2   445  VAL445     -0.2864
     85  CB       -19.8490  -24.7130   10.4430 C.3   445  VAL445      0.0276
     86  CG1      -18.3860  -24.3910   10.6100 C.3   445  VAL445      0.0022
     87  CG2      -20.6750  -24.0440   11.5400 C.3   445  VAL445      0.0022
     88  N        -19.7190  -22.6780    4.5330 N.3   448  ARG448     -0.1245
     89  CA       -19.2260  -21.3010    4.4940 C.3   448  ARG448      0.1563
     90  C        -17.7060  -21.2310    4.5250 C.2   448  ARG448      0.2260
     91  O        -17.1110  -20.2980    3.9830 O.2   448  ARG448     -0.2867
     92  CB       -19.7750  -20.5130    5.6710 C.3   448  ARG448      0.0307
     93  CG       -21.2660  -20.3090    5.6300 C.3   448  ARG448      0.0489
     94  CD       -21.7230  -19.7180    6.9290 C.3   448  ARG448      0.2205
     95  NE       -22.0320  -20.7560    7.8940 N.pl3 448  ARG448     -0.0865
     96  CZ       -22.3930  -20.5310    9.1550 C.cat 448  ARG448      0.5346
     97  NH1      -22.4360  -19.2900    9.6380 N.pl3 448  ARG448      0.1354
     98  NH2      -22.6840  -21.5710    9.9460 N.pl3 448  ARG448      0.1354
     99  N        -13.8980  -20.6150   13.8070 N.3   472  THR472     -0.1203
    100  CA       -15.3160  -20.9300   13.9400 C.3   472  THR472      0.1994
    101  C        -15.6430  -20.9900   15.4290 C.2   472  THR472      0.2618
    102  O        -14.7610  -20.7950   16.2750 O.2   472  THR472     -0.2717
    103  CB       -15.6800  -22.2780   13.2690 C.3   472  THR472      0.1784
    104  OG1      -14.9340  -23.3340   13.8780 O.3   472  THR472     -0.2211
    105  CG2      -15.3960  -22.2460   11.7750 C.3   472  THR472      0.0376
    106  N        -16.9090  -21.2400   15.7450 N.am  473  GLY473     -0.1956
    107  CA       -17.3620  -21.3640   17.1210 C.3   473  GLY473      0.1869
    108  C        -18.0140  -22.7080   17.3990 C.2   473  GLY473      0.2309
    109  O        -18.2390  -23.5170   16.4840 O.2   473  GLY473     -0.2863
    110  N        -21.0230  -23.3620   18.8060 N.3   475  ARG475     -0.1231
    111  CA       -22.4770  -23.4110   18.6670 C.3   475  ARG475      0.1679
    112  C        -22.9510  -22.1850   17.8590 C.2   475  ARG475      0.2434
    113  O        -22.1710  -21.2700   17.6350 O.2   475  ARG475     -0.2733
    114  CB       -23.1320  -23.4380   20.0470 C.3   475  ARG475      0.0321
    115  CG       -22.7370  -22.2590   20.9350 C.3   475  ARG475      0.0489
    116  CD       -23.8550  -21.8770   21.8850 C.3   475  ARG475      0.2205
    117  NE       -24.8750  -21.1020   21.1900 N.pl3 475  ARG475     -0.0865
    118  CZ       -26.0400  -20.7320   21.7160 C.cat 475  ARG475      0.5346
    119  NH1      -26.3730  -21.0800   22.9610 N.pl3 475  ARG475      0.1354
    120  NH2      -26.8910  -20.0240   20.9800 N.pl3 475  ARG475      0.1354
    121  N        -24.2270  -22.1790   17.4130 N.am  476  PRO476     -0.2718
    122  CA       -24.7380  -21.0710   16.5810 C.3   476  PRO476      0.1535
    123  C        -24.9730  -19.7790   17.3560 C.2   476  PRO476      0.2599
    124  O        -25.0150  -19.7970   18.5840 O.2   476  PRO476     -0.2715
    125  CB       -26.0690  -21.6220   16.0310 C.3   476  PRO476      0.0310
    126  CG       -26.1210  -23.0890   16.4480 C.3   476  PRO476      0.0237
    127  CD       -25.2620  -23.2060   17.6450 C.3   476  PRO476      0.0939
    128  N        -25.1340  -18.6730   16.6340 N.am  477  GLY477     -0.1941
    129  CA       -25.3020  -17.3450   17.2420 C.3   477  GLY477      0.2014
    130  C        -23.9750  -16.6370   17.5470 C.2   477  GLY477      0.2640
    131  O        -22.9520  -17.2840   17.7130 O.2   477  GLY477     -0.2714
    132  N        -24.0170  -15.3020   17.6340 N.am  478  SER478     -0.1935
    133  CA       -22.8460  -14.4730   17.9830 C.3   478  SER478      0.2055
    134  C        -22.2570  -14.7170   19.3820 C.2   478  SER478      0.2644
    135  O        -22.9630  -15.0530   20.3400 O.2   478  SER478     -0.2714
    136  CB       -23.1870  -12.9880   17.8830 C.3   478  SER478      0.2130
    137  OG       -23.5550  -12.6250   16.5820 O.3   478  SER478     -0.2179
    138  N        -20.9450  -14.5460   19.4780 N.am  479  GLY479     -0.1939
    139  CA       -20.2580  -14.5000   20.7670 C.3   479  GLY479      0.2014
    140  C        -19.6550  -15.8000   21.2340 C.2   479  GLY479      0.2639
    141  O        -19.2260  -15.8810   22.3800 O.2   479  GLY479     -0.2714
    142  N        -19.5930  -16.8070   20.3520 N.am  480  PHE480     -0.1959
    143  CA       -19.0790  -18.1430   20.7220 C.3   480  PHE480      0.1771
    144  C        -17.8610  -18.6050   19.9320 C.2   480  PHE480      0.2620
    145  O        -17.5110  -19.7770   19.9830 O.2   480  PHE480     -0.2715
    146  CB       -20.1840  -19.1940   20.5990 C.3   480  PHE480      0.0574
    147  CG       -21.4260  -18.8470   21.3560 C.ar  480  PHE480     -0.0200
    148  CD1      -21.4670  -18.9640   22.7450 C.ar  480  PHE480     -0.0042
    149  CD2      -22.5560  -18.4020   20.6880 C.ar  480  PHE480     -0.0042
    150  CE1      -22.6120  -18.6290   23.4560 C.ar  480  PHE480     -0.0003
    151  CE2      -23.7100  -18.0660   21.3870 C.ar  480  PHE480     -0.0003
    152  CZ       -23.7430  -18.1860   22.7720 C.ar  480  PHE480     -0.0000
    153  N        -17.2170  -17.6890   19.2110 N.am  481  THR481     -0.1951
    154  CA       -15.9550  -17.9900   18.5170 C.3   481  THR481      0.1897
    155  C        -14.9090  -18.4690   19.5270 C.2   481  THR481      0.2313
    156  O        -14.5700  -17.7570   20.4780 O.2   481  THR481     -0.2863
    157  CB       -15.4640  -16.7720   17.7050 C.3   481  THR481      0.1794
    158  OG1      -16.4330  -16.4760   16.6990 O.3   481  THR481     -0.2208
    159  CG2      -14.0920  -17.0500   17.0210 C.3   481  THR481      0.0378
@<TRIPOS>BOND
     1    91    90    2
     2    89    90    1
     3    89    88    1
     4    89    92    1
     5    57    56    1
     6    55    56    2
     7    55    54    1
     8    51    50    2
     9    93    92    1
    10    93    94    1
    11    53    54    1
    12    53    52    1
    13    56    58    1
    14    49    50    1
    15    49    52    1
    16    49    48    1
    17    79    78   ar
    18    94    95    1
    19    76    75    2
    20    84    83    2
    21    74    75    1
    22    74    73    1
    23    74    77    1
    24    75    81   am
    25    78    77    1
    26    78    80   ar
    27    95    96    2
    28    83    82    1
    29     8     6    1
    30    81    82    1
    31    82    85    1
    32    96    97    1
    33    96    98    1
    34     6     7    1
    35     6     5    1
    36    12    11    2
    37     2     1    1
    38     2     5    1
    39     2     3    1
    40    85    86    1
    41    85    87    1
    42    15    13    1
    43    62    61    2
    44     9     3   am
    45     9    10    1
    46    61    60    1
    47    19    18    2
    48    59    60    1
    49    11    10    1
    50    11    16   am
    51     3     4    2
    52    60    63    1
    53   105   103    1
    54    10    13    1
    55    13    14    1
    56    17    18    1
    57    17    16    1
    58    17    20    1
    59    18    25   am
    60    24    23    1
    61    65    64   ar
    62    65    67   ar
    63    28    27    2
    64    27    26    1
    65    63    64    1
    66    20    21    1
    67    21    22    1
    68   103   104    1
    69   103   100    1
    70    25    26    1
    71    64    66   ar
    72    67    68   ar
    73    26    29    1
    74    99   100    1
    75   100   101    1
    76    23    22    1
    77    68    66   ar
    78    68    70   ar
    79    66    69   ar
    80    44    45    2
    81    44    43    1
    82    31    32    1
    83    70    72   ar
    84    69    71   ar
    85    29    30    1
    86    46    43    1
    87    46    47    1
    88   101   106   am
    89   101   102    2
    90    72    71   ar
    91    43    42    1
    92    42    33   am
    93   106   107    1
    94    32    33    1
    95    32    35    1
    96    33    34    2
    97   125   126    1
    98   125   122    1
    99   126   127    1
   100   109   108    2
   101   122   123    1
   102   122   121    1
   103   137   136    1
   104   128   129    1
   105   128   123   am
   106   158   157    1
   107   159   157    1
   108   107   108    1
   109    35    36    1
   110   129   130    1
   111   123   124    2
   112    36    37    1
   113   121   127    1
   114   121   112   am
   115   130   132   am
   116   130   131    2
   117   132   133    1
   118   113   112    2
   119   157   154    1
   120   112   111    1
   121    40    39    1
   122   136   133    1
   123   133   134    1
   124   154   153    1
   125   154   155    1
   126    39    41    1
   127    39    38    2
   128   111   110    1
   129   111   114    1
   130    37    38    1
   131   153   144   am
   132   134   138   am
   133   134   135    2
   134   138   139    1
   135   155   156    2
   136   144   145    2
   137   144   143    1
   138   114   115    1
   139   142   143    1
   140   142   140   am
   141   146   143    1
   142   146   147    1
   143   149   147   ar
   144   149   151   ar
   145   139   140    1
   146   115   116    1
   147   120   118    1
   148   117   118    2
   149   117   116    1
   150   140   141    2
   151   147   148   ar
   152   151   152   ar
   153   118   119    1
   154   148   150   ar
   155   152   150   ar
