@<TRIPOS>MOLECULE
tmp/3h6tB01.pdb
 121 117 0 0 0
SMALL
GASTEIGER

@<TRIPOS>ATOM
      1  N         75.3880    4.3160   20.1790 N.3    35  TYR35      -0.1241
      2  CA        74.3710    3.3850   19.7110 C.3    35  TYR35       0.1605
      3  C         74.1940    3.3700   18.1870 C.2    35  TYR35       0.2264
      4  O         74.2660    2.3120   17.5560 O.2    35  TYR35      -0.2867
      5  CB        73.0250    3.7010   20.3650 C.3    35  TYR35       0.0534
      6  CG        71.9140    2.7730   19.9310 C.ar   35  TYR35      -0.0201
      7  CD1       71.2840    2.9310   18.6950 C.ar   35  TYR35      -0.0009
      8  CD2       71.5100    1.7150   20.7440 C.ar   35  TYR35      -0.0009
      9  CE1       70.2740    2.0540   18.2790 C.ar   35  TYR35       0.0417
     10  CE2       70.5050    0.8330   20.3380 C.ar   35  TYR35       0.0417
     11  CZ        69.8960    1.0090   19.1040 C.ar   35  TYR35       0.1957
     12  OH        68.9250    0.1300   18.6900 O.3    35  TYR35      -0.2866
     13  N         61.0290   -0.0900    9.7350 N.3   104  LYS104     -0.1231
     14  CA        60.2280   -0.3320   10.9260 C.3   104  LYS104      0.1678
     15  C         61.0720    0.2770   12.0690 C.2   104  LYS104      0.2434
     16  O         62.2810    0.4550   11.9200 O.2   104  LYS104     -0.2733
     17  CB        60.0340   -1.8400   11.1360 C.3   104  LYS104      0.0284
     18  CG        59.2220   -2.5450   10.0480 C.3   104  LYS104      0.0035
     19  CD        57.7760   -2.0630   10.0280 C.3   104  LYS104      0.0206
     20  CE        56.9020   -2.8570    9.0490 C.3   104  LYS104      0.1093
     21  NZ        57.2220   -2.6320    7.6080 N.3   104  LYS104     -0.1314
     22  N         60.4540    0.6010   13.2150 N.am  105  PRO105     -0.2718
     23  CA        61.2230    1.1890   14.3230 C.3   105  PRO105      0.1535
     24  C         62.3210    0.2870   14.8790 C.2   105  PRO105      0.2599
     25  O         62.1540   -0.9330   14.9510 O.2   105  PRO105     -0.2715
     26  CB        60.1480    1.4990   15.3650 C.3   105  PRO105      0.0310
     27  CG        59.1330    0.4030   15.1310 C.3   105  PRO105      0.0237
     28  CD        59.0510    0.3670   13.6110 C.3   105  PRO105      0.0939
     29  N         63.4440    0.8870   15.2700 N.am  106  PHE106     -0.1960
     30  CA        64.5430    0.1130   15.8260 C.3   106  PHE106      0.1771
     31  C         64.6680    0.3630   17.3240 C.2   106  PHE106      0.2619
     32  O         65.4450   -0.2940   18.0160 O.2   106  PHE106     -0.2715
     33  CB        65.8680    0.4170   15.0850 C.3   106  PHE106      0.0574
     34  CG        66.3360    1.8560   15.1790 C.ar  106  PHE106     -0.0200
     35  CD1       66.9610    2.3320   16.3290 C.ar  106  PHE106     -0.0042
     36  CD2       66.1780    2.7240   14.1050 C.ar  106  PHE106     -0.0042
     37  CE1       67.4250    3.6560   16.4050 C.ar  106  PHE106     -0.0003
     38  CE2       66.6330    4.0380   14.1700 C.ar  106  PHE106     -0.0003
     39  CZ        67.2590    4.5040   15.3260 C.ar  106  PHE106     -0.0000
     40  N         63.8750    1.3010   17.8260 N.am  107  MET107     -0.1963
     41  CA        63.8920    1.6260   19.2460 C.3   107  MET107      0.1736
     42  C         62.6100    2.3630   19.6150 C.2   107  MET107      0.2617
     43  O         62.0810    3.1560   18.8260 O.2   107  MET107     -0.2715
     44  CB        65.1140    2.4910   19.5850 C.3   107  MET107      0.0427
     45  CG        65.3000    2.7280   21.0750 C.3   107  MET107      0.0599
     46  SD        66.6820    3.8140   21.4680 S.3   107  MET107     -0.1393
     47  CE        68.0200    2.6740   21.4720 C.3   107  MET107      0.0692
     48  N         62.1140    2.1000   20.8180 N.am  108  SER108     -0.1950
     49  CA        60.8800    2.7230   21.2940 C.3   108  SER108      0.1924
     50  C         61.0930    3.9510   22.1800 C.2   108  SER108      0.2314
     51  O         62.1230    4.0830   22.8290 O.2   108  SER108     -0.2863
     52  CB        60.0530    1.6950   22.0730 C.3   108  SER108      0.2116
     53  OG        59.6580    0.6290   21.2330 O.3   108  SER108     -0.2180
     54  N         55.9130    5.8300   20.4230 N.3   218  LYS218     -0.1231
     55  CA        56.3940    5.7460   19.0560 C.3   218  LYS218      0.1696
     56  C         57.7940    5.1630   18.9710 C.2   218  LYS218      0.2631
     57  O         58.2350    4.4620   19.8980 O.2   218  LYS218     -0.2714
     58  CB        56.3660    7.1340   18.4040 C.3   218  LYS218      0.0285
     59  CG        56.9730    8.2060   19.2450 C.3   218  LYS218      0.0035
     60  CD        56.4530    9.5710   18.8260 C.3   218  LYS218      0.0206
     61  CE        57.0530   10.6510   19.7110 C.3   218  LYS218      0.1093
     62  NZ        56.4870   11.9940   19.4190 N.3   218  LYS218     -0.1314
     63  N         58.4870    5.4270   17.8650 N.am  219  GLY219     -0.1732
     64  CA        59.8270    4.9070   17.6900 C.2   219  GLY219      0.1340
     65  C         60.6690    5.6280   16.6560 C.2   219  GLY219      0.2521
     66  O         60.1800    6.5160   15.9590 O.2   219  GLY219     -0.2816
     67  N         66.8130   -4.3710    9.9500 N.3   238  VAL238     -0.1231
     68  CA        66.3300   -3.9500   11.2680 C.3   238  VAL238      0.1692
     69  C         65.5580   -5.0980   11.9300 C.2   238  VAL238      0.2591
     70  O         65.6790   -5.3250   13.1370 O.2   238  VAL238     -0.2718
     71  CB        65.4040   -2.6980   11.1740 C.3   238  VAL238      0.0266
     72  CG1       64.7460   -2.4230   12.5310 C.3   238  VAL238      0.0020
     73  CG2       66.2100   -1.4750   10.7370 C.3   238  VAL238      0.0020
     74  N         64.7690   -5.8230   11.1370 N.am  239  LEU239     -0.1980
     75  CA        63.9950   -6.9500   11.6540 C.3   239  LEU239      0.1596
     76  C         64.8840   -8.0810   12.1680 C.2   239  LEU239      0.2287
     77  O         64.6680   -8.5930   13.2660 O.2   239  LEU239     -0.2864
     78  CB        63.0470   -7.4860   10.5740 C.3   239  LEU239      0.0297
     79  CG        61.5970   -6.9960   10.6520 C.3   239  LEU239      0.0022
     80  CD1       61.5670   -5.4910   10.7860 C.3   239  LEU239      0.0001
     81  CD2       60.8380   -7.4350    9.4180 C.3   239  LEU239      0.0001
     82  N         66.6180   -7.0230   15.3550 N.3   242  SER242     -0.1202
     83  CA        65.6950   -7.0640   16.4870 C.3   242  SER242      0.2020
     84  C         65.5480   -8.5000   16.9910 C.2   242  SER242      0.2618
     85  O         65.6780   -8.7650   18.1810 O.2   242  SER242     -0.2717
     86  CB        64.3180   -6.5290   16.0650 C.3   242  SER242      0.2103
     87  OG        63.3550   -6.7020   17.0930 O.3   242  SER242     -0.2182
     88  N         65.2790   -9.4210   16.0700 N.am  243  GLU243     -0.1979
     89  CA        65.0870  -10.8320   16.4060 C.3   243  GLU243      0.1602
     90  C         66.3230  -11.5430   16.9540 C.2   243  GLU243      0.2287
     91  O         66.2020  -12.5430   17.6590 O.2   243  GLU243     -0.2864
     92  CB        64.5290  -11.5840   15.1880 C.3   243  GLU243      0.0415
     93  CG        63.0250  -11.3670   15.0000 C.3   243  GLU243      0.1163
     94  CD        62.4870  -11.9220   13.6940 C.2   243  GLU243      0.3649
     95  OE1       63.0880  -12.8720   13.1530 O.co2 243  GLU243     -0.2457
     96  OE2       61.4500  -11.4150   13.2110 O.co2 243  GLU243     -0.2457
     97  N         69.6110   -5.4280   18.9030 N.3   247  LEU247     -0.1231
     98  CA        69.1390   -4.0910   19.2510 C.3   247  LEU247      0.1693
     99  C         69.0450   -3.9350   20.7670 C.2   247  LEU247      0.2592
    100  O         69.3770   -2.8890   21.3110 O.2   247  LEU247     -0.2718
    101  CB        67.7770   -3.8120   18.6120 C.3   247  LEU247      0.0284
    102  CG        67.7180   -3.7800   17.0820 C.3   247  LEU247      0.0019
    103  CD1       66.3080   -3.4230   16.6510 C.3   247  LEU247      0.0001
    104  CD2       68.7060   -2.7560   16.5260 C.3   247  LEU247      0.0001
    105  N         68.5970   -4.9880   21.4420 N.am  248  ASP248     -0.1974
    106  CA        68.4690   -4.9780   22.8950 C.3   248  ASP248      0.1709
    107  C         69.8560   -4.8540   23.5350 C.2   248  ASP248      0.2293
    108  O         70.0350   -4.1390   24.5170 O.2   248  ASP248     -0.2864
    109  CB        67.7780   -6.2710   23.3630 C.3   248  ASP248      0.1436
    110  CG        67.6050   -6.3370   24.8800 C.2   248  ASP248      0.3671
    111  OD1       67.0880   -5.3630   25.4700 O.co2 248  ASP248     -0.2456
    112  OD2       67.9770   -7.3700   25.4830 O.co2 248  ASP248     -0.2456
    113  N         71.2140   -1.3480   23.3530 N.3   251  LYS251     -0.1245
    114  CA        70.4640   -0.4990   24.2750 C.3   251  LYS251      0.1561
    115  C         71.1000   -0.5690   25.6650 C.2   251  LYS251      0.2260
    116  O         71.3180    0.4540   26.3140 O.2   251  LYS251     -0.2867
    117  CB        69.0020   -0.9650   24.3460 C.3   251  LYS251      0.0271
    118  CG        68.0550   -0.0630   25.1650 C.3   251  LYS251      0.0035
    119  CD        67.8260    1.2870   24.4830 C.3   251  LYS251      0.0206
    120  CE        66.5860    2.0170   25.0130 C.3   251  LYS251      0.1093
    121  NZ        66.7170    2.5620   26.3910 N.3   251  LYS251     -0.1314
@<TRIPOS>BOND
     1    21    20    1
     2    20    19    1
     3    81    79    1
     4    13    14    1
     5    67    68    1
     6    19    18    1
     7    18    17    1
     8    78    79    1
     9    78    75    1
    10    79    80    1
    11    73    71    1
    12    14    17    1
    13    14    15    1
    14    74    75    1
    15    74    69   am
    16    71    68    1
    17    71    72    1
    18    68    69    1
    19    75    76    1
    20    16    15    2
    21    69    70    2
    22    15    22   am
    23    76    77    2
    24    95    94   ar
    25    96    94   ar
    26    22    28    1
    27    22    23    1
    28    28    27    1
    29    94    93    1
    30    36    38   ar
    31    36    34   ar
    32    38    39   ar
    33    23    24    1
    34    23    26    1
    35    24    25    2
    36    24    29   am
    37    93    92    1
    38    33    34    1
    39    33    30    1
    40    27    26    1
    41    34    35   ar
    42    92    89    1
    43    29    30    1
    44    39    37   ar
    45    82    83    1
    46    30    31    1
    47    66    65    2
    48    86    83    1
    49    86    87    1
    50    88    89    1
    51    88    84   am
    52    35    37   ar
    53    89    90    1
    54    83    84    1
    55   104   102    1
    56   103   102    1
    57    65    64    1
    58    90    91    2
    59    84    85    2
    60   102   101    1
    61    31    40   am
    62    31    32    2
    63     4     3    2
    64    64    63    2
    65    40    41    1
    66    63    56    1
    67     3     2    1
    68     9     7   ar
    69     9    11   ar
    70    58    55    1
    71    58    59    1
    72   101    98    1
    73    12    11    1
    74     7     6   ar
    75    43    42    2
    76    60    59    1
    77    60    61    1
    78    97    98    1
    79    56    55    1
    80    56    57    2
    81    55    54    1
    82    11    10   ar
    83    41    44    1
    84    41    42    1
    85    98    99    1
    86    62    61    1
    87    44    45    1
    88    42    48   am
    89     2     1    1
    90     2     5    1
    91     6     5    1
    92     6     8   ar
    93    10     8   ar
    94    99   100    2
    95    99   105   am
    96    48    49    1
    97    45    46    1
    98    53    52    1
    99    49    52    1
   100    49    50    1
   101   105   106    1
   102    46    47    1
   103    50    51    2
   104   106   109    1
   105   106   107    1
   106   113   114    1
   107   109   110    1
   108   107   108    2
   109   114   117    1
   110   114   115    1
   111   117   118    1
   112   119   120    1
   113   119   118    1
   114   110   111   ar
   115   110   112   ar
   116   120   121    1
   117   115   116    2
