@<TRIPOS>MOLECULE
tmp/3h6wB01.pdb
 115 111 0 0 0
SMALL
GASTEIGER

@<TRIPOS>ATOM
      1  N         58.4780    5.8560   46.3610 N.3    35  TYR35      -0.1241
      2  CA        58.0940    5.4560   47.7210 C.3    35  TYR35       0.1605
      3  C         57.9020    3.9360   47.8170 C.2    35  TYR35       0.2264
      4  O         58.3750    3.2980   48.7520 O.2    35  TYR35      -0.2867
      5  CB        56.8110    6.1740   48.1370 C.3    35  TYR35       0.0534
      6  CG        56.2510    5.7310   49.4760 C.ar   35  TYR35      -0.0201
      7  CD1       55.5220    4.5520   49.5900 C.ar   35  TYR35      -0.0009
      8  CD2       56.4640    6.4810   50.6340 C.ar   35  TYR35      -0.0009
      9  CE1       55.0170    4.1390   50.8090 C.ar   35  TYR35       0.0417
     10  CE2       55.9520    6.0680   51.8570 C.ar   35  TYR35       0.0417
     11  CZ        55.2300    4.8850   51.9330 C.ar   35  TYR35       0.1957
     12  OH        54.6910    4.4910   53.1390 O.3    35  TYR35      -0.2866
     13  N         47.7800   -4.5900   57.1970 N.3   104  LYS104     -0.1231
     14  CA        47.4130   -3.3160   57.8010 C.3   104  LYS104      0.1678
     15  C         47.9500   -2.1650   56.9240 C.2   104  LYS104      0.2434
     16  O         48.9610   -2.3090   56.2350 O.2   104  LYS104     -0.2733
     17  CB        47.9350   -3.2560   59.2360 C.3   104  LYS104      0.0284
     18  CG        47.1210   -4.1430   60.1340 C.3   104  LYS104      0.0035
     19  CD        47.6650   -4.2360   61.4990 C.3   104  LYS104      0.0206
     20  CE        46.7840   -5.1380   62.3650 C.3   104  LYS104      0.1093
     21  NZ        46.9160   -6.5720   61.9720 N.3   104  LYS104     -0.1314
     22  N         47.2630   -1.0150   56.9490 N.am  105  PRO105     -0.2718
     23  CA        47.6410    0.0410   56.0390 C.3   105  PRO105      0.1535
     24  C         48.9810    0.6850   56.3720 C.2   105  PRO105      0.2599
     25  O         49.3430    0.8070   57.5380 O.2   105  PRO105     -0.2715
     26  CB        46.4660    1.0330   56.1600 C.3   105  PRO105      0.0310
     27  CG        45.9570    0.8340   57.5260 C.3   105  PRO105      0.0237
     28  CD        46.1370   -0.6330   57.8150 C.3   105  PRO105      0.0939
     29  N         49.7250    1.0520   55.3260 N.am  106  PHE106     -0.1960
     30  CA        50.9920    1.7540   55.4620 C.3   106  PHE106      0.1771
     31  C         50.9100    3.2360   55.1770 C.2   106  PHE106      0.2619
     32  O         51.8500    3.9590   55.4790 O.2   106  PHE106     -0.2715
     33  CB        52.0960    1.1100   54.5990 C.3   106  PHE106      0.0574
     34  CG        51.8170    1.1300   53.1190 C.ar  106  PHE106     -0.0200
     35  CD1       52.1390    2.2410   52.3540 C.ar  106  PHE106     -0.0042
     36  CD2       51.2530    0.0200   52.4770 C.ar  106  PHE106     -0.0042
     37  CE1       51.8910    2.2420   51.0000 C.ar  106  PHE106     -0.0003
     38  CE2       50.9950    0.0410   51.1130 C.ar  106  PHE106     -0.0003
     39  CZ        51.2810    1.1380   50.3900 C.ar  106  PHE106     -0.0000
     40  N         49.7750    3.7000   54.6490 N.am  107  MET107     -0.1963
     41  CA        49.5530    5.1040   54.3540 C.3   107  MET107      0.1736
     42  C         48.0510    5.3310   54.2970 C.2   107  MET107      0.2617
     43  O         47.3110    4.4220   53.9180 O.2   107  MET107     -0.2715
     44  CB        50.2010    5.5100   53.0310 C.3   107  MET107      0.0427
     45  CG        50.1900    7.0220   52.7360 C.3   107  MET107      0.0599
     46  SD        50.9910    7.4460   51.1940 S.3   107  MET107     -0.1393
     47  CE        52.6210    6.7840   51.5130 C.3   107  MET107      0.0692
     48  N         47.6240    6.5070   54.7140 N.am  108  SER108     -0.1950
     49  CA        46.2170    6.9130   54.7220 C.3   108  SER108      0.1924
     50  C         45.9310    7.8350   53.5620 C.2   108  SER108      0.2314
     51  O         46.8120    8.5390   53.0710 O.2   108  SER108     -0.2863
     52  CB        45.8570    7.6640   56.0000 C.3   108  SER108      0.2116
     53  OG        46.1100    6.8750   57.1230 O.3   108  SER108     -0.2180
     54  N         42.8840    3.5480   53.5340 N.3   219  GLY219     -0.1225
     55  CA        44.2870    3.2430   53.6320 C.3   219  GLY219      0.1811
     56  C         44.7480    2.3860   52.4750 C.2   219  GLY219      0.2280
     57  O         43.9580    1.6710   51.9010 O.2   219  GLY219     -0.2866
     58  N         55.3370   -4.2790   58.2300 N.3   238  VAL238     -0.1231
     59  CA        54.6920   -2.9770   58.2490 C.3   238  VAL238      0.1692
     60  C         54.6400   -2.3570   59.6620 C.2   238  VAL238      0.2591
     61  O         54.9040   -1.1570   59.8490 O.2   238  VAL238     -0.2718
     62  CB        53.2920   -3.0160   57.6230 C.3   238  VAL238      0.0266
     63  CG1       52.6030   -1.6720   57.8250 C.3   238  VAL238      0.0020
     64  CG2       53.4050   -3.3640   56.1570 C.3   238  VAL238      0.0020
     65  N         54.3220   -3.1710   60.6590 N.am  239  LEU239     -0.1980
     66  CA        54.3180   -2.6810   62.0450 C.3   239  LEU239      0.1596
     67  C         55.7020   -2.2470   62.4970 C.2   239  LEU239      0.2287
     68  O         55.8710   -1.2040   63.1350 O.2   239  LEU239     -0.2864
     69  CB        53.8040   -3.7460   63.0000 C.3   239  LEU239      0.0297
     70  CG        52.3670   -4.2290   62.8590 C.3   239  LEU239      0.0022
     71  CD1       52.0380   -5.1050   64.0700 C.3   239  LEU239      0.0001
     72  CD2       51.4140   -3.0570   62.7660 C.3   239  LEU239      0.0001
     73  N         56.6110    1.0270   60.6940 N.3   242  SER242     -0.1217
     74  CA        55.8840    2.0760   61.4090 C.3   242  SER242      0.1889
     75  C         56.5850    2.5340   62.6780 C.2   242  SER242      0.2288
     76  O         56.8250    3.7200   62.8740 O.2   242  SER242     -0.2866
     77  CB        54.4840    1.6110   61.7680 C.3   242  SER242      0.2089
     78  OG        53.8410    2.4810   62.6940 O.3   242  SER242     -0.2183
     79  N         58.1180    4.5970   57.7540 N.3   247  LEU247     -0.1231
     80  CA        56.9750    5.0520   56.9700 C.3   247  LEU247      0.1693
     81  C         56.9060    6.5890   56.9350 C.2   247  LEU247      0.2592
     82  O         56.5960    7.1620   55.8940 O.2   247  LEU247     -0.2718
     83  CB        55.6690    4.4500   57.4890 C.3   247  LEU247      0.0284
     84  CG        55.5330    2.9320   57.4890 C.3   247  LEU247      0.0019
     85  CD1       54.1380    2.4740   57.9720 C.3   247  LEU247      0.0001
     86  CD2       55.8470    2.3710   56.1090 C.3   247  LEU247      0.0001
     87  N         57.2470    7.2650   58.0280 N.am  248  ASP248     -0.1974
     88  CA        57.3060    8.7410   58.0270 C.3   248  ASP248      0.1709
     89  C         58.5030    9.2480   57.2170 C.2   248  ASP248      0.2293
     90  O         58.4390   10.2520   56.5140 O.2   248  ASP248     -0.2864
     91  CB        57.4260    9.2770   59.4530 C.3   248  ASP248      0.1436
     92  CG        56.1550    9.1060   60.2340 C.2   248  ASP248      0.3671
     93  OD1       55.2100    9.8790   59.9950 O.co2 248  ASP248     -0.2456
     94  OD2       56.0760    8.1920   61.0720 O.co2 248  ASP248     -0.2456
     95  N         57.5760    8.9170   53.5030 N.3   251  LYS251     -0.1245
     96  CA        56.6030    9.9420   53.1140 C.3   251  LYS251      0.1561
     97  C         57.2850   11.3060   52.9090 C.2   251  LYS251      0.2260
     98  O         57.0600   11.9840   51.8950 O.2   251  LYS251     -0.2867
     99  CB        55.4890   10.0310   54.1680 C.3   251  LYS251      0.0271
    100  CG        54.2980   10.9440   53.8190 C.3   251  LYS251      0.0035
    101  CD        53.2590   10.2730   52.9210 C.3   251  LYS251      0.0206
    102  CE        52.1760   11.2590   52.3810 C.3   251  LYS251      0.1093
    103  NZ        51.0400   11.4270   53.3250 N.3   251  LYS251     -0.1314
    104  N         57.4230   15.8530   50.7550 N.3   256  TYR256     -0.1241
    105  CA        57.9150   17.1510   51.1680 C.3   256  TYR256      0.1605
    106  C         59.3020   17.4830   50.5740 C.2   256  TYR256      0.2264
    107  O         59.5060   18.5820   50.0540 O.2   256  TYR256     -0.2867
    108  CB        57.8470   17.2010   52.6830 C.3   256  TYR256      0.0534
    109  CG        56.4370   16.8060   53.1240 C.ar  256  TYR256     -0.0201
    110  CD1       55.4150   17.7590   53.2110 C.ar  256  TYR256     -0.0009
    111  CD2       56.0970   15.4670   53.3640 C.ar  256  TYR256     -0.0009
    112  CE1       54.1450   17.3950   53.5810 C.ar  256  TYR256      0.0417
    113  CE2       54.8360   15.1010   53.7320 C.ar  256  TYR256      0.0417
    114  CZ        53.8570   16.0590   53.8480 C.ar  256  TYR256      0.1957
    115  OH        52.5770   15.6870   54.2170 O.3   256  TYR256     -0.2866
@<TRIPOS>BOND
     1     1     2    1
     2     2     3    1
     3     2     5    1
     4     3     4    2
     5     5     6    1
     6     6     7   ar
     7     6     8   ar
     8     7     9   ar
     9   107   106    2
    10    39    37   ar
    11    39    38   ar
    12   106   105    1
    13     8    10   ar
    14   104   105    1
    15     9    11   ar
    16    37    35   ar
    17    38    36   ar
    18   105   108    1
    19    46    47    1
    20    46    45    1
    21    10    11   ar
    22    98    97    2
    23    57    56    2
    24    11    12    1
    25    35    34   ar
    26   102   101    1
    27   102   103    1
    28    56    55    1
    29    36    34   ar
    30   108   109    1
    31    45    44    1
    32    97    96    1
    33   101   100    1
    34    44    41    1
    35    51    50    2
    36    96    95    1
    37    96    99    1
    38    34    33    1
    39   109   110   ar
    40   109   111   ar
    41   110   112   ar
    42   111   113   ar
    43    54    55    1
    44    50    49    1
    45   112   114   ar
    46   113   114   ar
    47   100    99    1
    48   114   115    1
    49    43    42    2
    50    42    41    1
    51    42    48   am
    52    41    40    1
    53    33    30    1
    54    40    31   am
    55    48    49    1
    56    49    52    1
    57    31    30    1
    58    31    32    2
    59    29    30    1
    60    29    24   am
    61    82    81    2
    62    52    53    1
    63    23    26    1
    64    23    24    1
    65    23    22    1
    66    86    84    1
    67    64    62    1
    68    26    27    1
    69    16    15    2
    70    24    25    2
    71    90    89    2
    72    15    22   am
    73    15    14    1
    74    81    80    1
    75    81    87   am
    76    22    28    1
    77    80    83    1
    78    80    79    1
    79    13    14    1
    80    89    88    1
    81    83    84    1
    82    84    85    1
    83    27    28    1
    84    62    63    1
    85    62    59    1
    86    14    17    1
    87    88    87    1
    88    88    91    1
    89    58    59    1
    90    59    60    1
    91    17    18    1
    92    91    92    1
    93    60    61    2
    94    60    65   am
    95    93    92   ar
    96    18    19    1
    97    92    94   ar
    98    65    66    1
    99    73    74    1
   100    74    77    1
   101    74    75    1
   102    19    20    1
   103    77    78    1
   104    21    20    1
   105    66    67    1
   106    66    69    1
   107    67    68    2
   108    75    76    2
   109    72    70    1
   110    70    69    1
   111    70    71    1
