@<TRIPOS>MOLECULE
tmp/3h6zA02.pdb
 110 107 0 0 0
SMALL
GASTEIGER

@<TRIPOS>ATOM
      1  N         24.1640   35.7010   32.1930 N.3    26  PRO26      -0.2102
      2  CA        22.9480   34.8740   32.1990 C.3    26  PRO26       0.1504
      3  C         23.1550   33.4440   32.6980 C.2    26  PRO26       0.2575
      4  O         22.2010   32.8000   33.1270 O.2    26  PRO26      -0.2718
      5  CB        22.5010   34.8880   30.7380 C.3    26  PRO26       0.0282
      6  CG        23.6990   35.2930   29.9660 C.3    26  PRO26       0.0208
      7  CD        24.4860   36.1940   30.8440 C.3    26  PRO26       0.0893
      8  N         24.3960   32.9710   32.6690 N.am   27  HIS27      -0.1976
      9  CA        24.7280   31.6240   33.1200 C.3    27  HIS27       0.1656
     10  C         25.1510   31.5810   34.5850 C.2    27  HIS27       0.2291
     11  O         25.2020   30.5070   35.1830 O.2    27  HIS27      -0.2864
     12  CB        25.8620   31.0720   32.2770 C.3    27  HIS27       0.0771
     13  CG        27.1500   31.8110   32.4620 C.ar   27  HIS27       0.0820
     14  ND1       27.3180   33.1210   32.0610 N.ar   27  HIS27      -0.2267
     15  CD2       28.3270   31.4340   33.0130 C.ar   27  HIS27       0.1154
     16  CE1       28.5460   33.5150   32.3460 C.ar   27  HIS27       0.1986
     17  NE2       29.1790   32.5120   32.9260 N.ar   27  HIS27      -0.2212
     18  N         19.0370   35.4850   37.8220 N.3    32  GLU32      -0.1245
     19  CA        17.6660   36.0000   37.8000 C.3    32  GLU32       0.1567
     20  C         17.2700   36.6760   39.1060 C.2    32  GLU32       0.2260
     21  O         16.8440   37.8330   39.1110 O.2    32  GLU32      -0.2867
     22  CB        16.6760   34.8780   37.5380 C.3    32  GLU32       0.0388
     23  CG        16.2860   34.6660   36.0930 C.3    32  GLU32       0.1160
     24  CD        14.9300   34.0020   36.0070 C.2    32  GLU32       0.3649
     25  OE1       14.4370   33.5360   37.0620 O.co2  32  GLU32      -0.2457
     26  OE2       14.3450   33.9560   34.9040 O.co2  32  GLU32      -0.2457
     27  N         23.5560   20.4700   34.5920 N.3   140  ARG140     -0.1245
     28  CA        22.7120   19.6460   33.7310 C.3   140  ARG140      0.1563
     29  C         23.3590   18.2980   33.4680 C.2   140  ARG140      0.2260
     30  O         22.6750   17.3130   33.1910 O.2   140  ARG140     -0.2867
     31  CB        22.5010   20.3380   32.3930 C.3   140  ARG140      0.0307
     32  CG        21.7430   21.6230   32.4700 C.3   140  ARG140      0.0489
     33  CD        21.2330   22.0170   31.1050 C.3   140  ARG140      0.2205
     34  NE        22.3080   22.3100   30.1630 N.pl3 140  ARG140     -0.0865
     35  CZ        22.9840   23.4540   30.1290 C.cat 140  ARG140      0.5346
     36  NH1       22.7150   24.4220   30.9950 N.pl3 140  ARG140      0.1354
     37  NH2       23.9370   23.6260   29.2310 N.pl3 140  ARG140      0.1354
     38  N         32.7980   25.2670   30.1290 N.3   185  HIS185     -0.1226
     39  CA        31.5120   25.4520   30.7640 C.3   185  HIS185      0.1752
     40  C         30.4580   24.6230   30.0550 C.2   185  HIS185      0.2596
     41  O         30.4790   24.4390   28.8370 O.2   185  HIS185     -0.2718
     42  CB        31.1110   26.9260   30.7920 C.3   185  HIS185      0.0759
     43  CG        29.8830   27.2070   31.6080 C.ar  185  HIS185      0.0818
     44  ND1       29.9320   27.7980   32.8550 N.ar  185  HIS185     -0.2268
     45  CD2       28.5710   26.9810   31.3510 C.ar  185  HIS185      0.1154
     46  CE1       28.7050   27.9230   33.3310 C.ar  185  HIS185      0.1986
     47  NE2       27.8620   27.4280   32.4390 N.ar  185  HIS185     -0.2212
     48  N         29.5690   24.0860   30.8720 N.am  186  GLU186     -0.1965
     49  CA        28.3030   23.5020   30.4750 C.3   186  GLU186      0.1733
     50  C         27.7240   24.0470   29.1640 C.2   186  GLU186      0.2616
     51  O         27.2720   23.2830   28.3190 O.2   186  GLU186     -0.2715
     52  CB        27.3340   23.8120   31.6000 C.3   186  GLU186      0.0429
     53  CG        26.2600   22.8300   31.7850 C.3   186  GLU186      0.1163
     54  CD        25.6000   23.0000   33.1170 C.2   186  GLU186      0.3649
     55  OE1       25.4600   21.9760   33.8030 O.co2 186  GLU186     -0.2457
     56  OE2       25.2450   24.1450   33.4830 O.co2 186  GLU186     -0.2457
     57  N         27.7430   25.3700   29.0170 N.am  187  ASP187     -0.1971
     58  CA        27.0520   26.0690   27.9420 C.3   187  ASP187      0.1709
     59  C         27.8980   26.3570   26.7100 C.2   187  ASP187      0.2293
     60  O         27.4000   26.9610   25.7570 O.2   187  ASP187     -0.2864
     61  CB        26.5520   27.4170   28.4520 C.3   187  ASP187      0.1436
     62  CG        25.3410   27.3060   29.3330 C.2   187  ASP187      0.3671
     63  OD1       24.8340   26.1840   29.5530 O.co2 187  ASP187     -0.2456
     64  OD2       24.8930   28.3670   29.8050 O.co2 187  ASP187     -0.2456
     65  N         19.0790   17.5890   24.9600 N.3   232  GLU232     -0.1245
     66  CA        18.4240   18.3880   25.9970 C.3   232  GLU232      0.1567
     67  C         19.3880   18.9740   27.0370 C.2   232  GLU232      0.2260
     68  O         19.0280   19.8920   27.7520 O.2   232  GLU232     -0.2867
     69  CB        17.2820   17.5970   26.6650 C.3   232  GLU232      0.0388
     70  CG        17.6820   16.5770   27.7500 C.3   232  GLU232      0.1160
     71  CD        18.1560   15.2210   27.2170 C.2   232  GLU232      0.3649
     72  OE1       18.6190   15.1130   26.0510 O.co2 232  GLU232     -0.2457
     73  OE2       18.0840   14.2520   28.0010 O.co2 232  GLU232     -0.2457
     74  N         22.2740   20.3660   26.2680 N.3   234  PHE234     -0.1227
     75  CA        23.1340   21.3330   25.6060 C.3   234  PHE234      0.1736
     76  C         22.4160   22.6410   25.3250 C.2   234  PHE234      0.2595
     77  O         21.2000   22.6590   25.1620 O.2   234  PHE234     -0.2718
     78  CB        23.7380   20.7120   24.3460 C.3   234  PHE234      0.0547
     79  CG        24.5910   19.5170   24.6380 C.ar  234  PHE234     -0.0202
     80  CD1       24.0100   18.2740   24.9100 C.ar  234  PHE234     -0.0042
     81  CD2       25.9710   19.6340   24.6930 C.ar  234  PHE234     -0.0042
     82  CE1       24.8070   17.1650   25.2190 C.ar  234  PHE234     -0.0003
     83  CE2       26.7700   18.5320   25.0000 C.ar  234  PHE234     -0.0003
     84  CZ        26.1880   17.2950   25.2600 C.ar  234  PHE234     -0.0000
     85  N         23.1710   23.7370   25.3220 N.am  235  LYS235     -0.1966
     86  CA        22.6260   25.0380   24.9890 C.3   235  LYS235      0.1728
     87  C         22.8270   25.2550   23.5020 C.2   235  LYS235      0.2616
     88  O         23.9300   25.1190   22.9870 O.2   235  LYS235     -0.2715
     89  CB        23.3280   26.1400   25.7890 C.3   235  LYS235      0.0311
     90  CG        22.8670   27.5710   25.4660 C.3   235  LYS235      0.0038
     91  CD        23.9210   28.5960   25.8520 C.3   235  LYS235      0.0206
     92  CE        23.5060   30.0220   25.4880 C.3   235  LYS235      0.1093
     93  NZ        24.6760   30.9720   25.4830 N.3   235  LYS235     -0.1314
     94  N         21.7460   25.5680   22.8100 N.am  236  MET236     -0.1977
     95  CA        21.8140   25.9060   21.3990 C.3   236  MET236      0.1605
     96  C         21.1730   27.2630   21.1860 C.2   236  MET236      0.2287
     97  O         20.1970   27.6090   21.8520 O.2   236  MET236     -0.2864
     98  CB        21.0810   24.8730   20.5610 C.3   236  MET236      0.0413
     99  CG        21.6360   23.4790   20.6420 C.3   236  MET236      0.0598
    100  SD        20.7940   22.3830   19.4800 S.3   236  MET236     -0.1393
    101  CE        19.1610   22.2760   20.2480 C.3   236  MET236      0.0692
    102  N         27.6740   37.2710   26.2370 N.3   409  GLU409     -0.1245
    103  CA        26.9710   36.1490   26.8550 C.3   409  GLU409      0.1567
    104  C         27.8210   34.8870   26.9410 C.2   409  GLU409      0.2260
    105  O         27.2840   33.7980   27.1370 O.2   409  GLU409     -0.2867
    106  CB        25.6390   35.8810   26.1500 C.3   409  GLU409      0.0388
    107  CG        24.5580   36.8830   26.5440 C.3   409  GLU409      0.1160
    108  CD        23.2490   36.6970   25.7960 C.2   409  GLU409      0.3649
    109  OE1       22.4730   37.6740   25.7240 O.co2 409  GLU409     -0.2457
    110  OE2       22.9880   35.5880   25.2750 O.co2 409  GLU409     -0.2457
@<TRIPOS>BOND
     1   100   101    1
     2   100    99    1
     3    98    99    1
     4    98    95    1
     5    96    95    1
     6    96    97    2
     7    95    94    1
     8    94    87   am
     9    88    87    2
    10    87    86    1
    11    78    79    1
    12    78    75    1
    13    79    81   ar
    14    79    80   ar
    15    81    83   ar
    16    80    82   ar
    17    65    66    1
    18    86    85    1
    19    86    89    1
    20    83    84   ar
    21    77    76    2
    22    82    84   ar
    23   110   108   ar
    24    85    76   am
    25    76    75    1
    26    90    89    1
    27    90    91    1
    28    93    92    1
    29    92    91    1
    30    75    74    1
    31   109   108   ar
    32    60    59    2
    33   108   107    1
    34    66    69    1
    35    66    67    1
    36    72    71   ar
    37   106   107    1
    38   106   103    1
    39   102   103    1
    40    69    70    1
    41    59    58    1
    42   103   104    1
    43   104   105    2
    44    67    68    2
    45    71    70    1
    46    71    73   ar
    47    58    61    1
    48    58    57    1
    49    51    50    2
    50    61    62    1
    51    41    40    2
    52    57    50   am
    53    50    49    1
    54    37    35    1
    55    62    63   ar
    56    62    64   ar
    57     6     5    1
    58     6     7    1
    59    40    39    1
    60    40    48   am
    61    35    34    2
    62    35    36    1
    63    38    39    1
    64    34    33    1
    65    49    48    1
    66    49    52    1
    67     5     2    1
    68    39    42    1
    69    42    43    1
    70     7     1    1
    71    33    32    1
    72    45    43   ar
    73    45    47   ar
    74    52    53    1
    75    43    44   ar
    76    53    54    1
    77    14    16   ar
    78    14    13   ar
    79     1     2    1
    80     2     3    1
    81    12    13    1
    82    12     9    1
    83    16    17   ar
    84    31    32    1
    85    31    28    1
    86    47    46   ar
    87    13    15   ar
    88     8     3   am
    89     8     9    1
    90     3     4    2
    91    44    46   ar
    92    17    15   ar
    93    54    56   ar
    94    54    55   ar
    95     9    10    1
    96    30    29    2
    97    29    28    1
    98    28    27    1
    99    10    11    2
   100    26    24   ar
   101    24    23    1
   102    24    25   ar
   103    23    22    1
   104    22    19    1
   105    19    18    1
   106    19    20    1
   107    20    21    2
