@<TRIPOS>MOLECULE
tmp/3h6zA00.pdb
 139 133 0 0 0
SMALL
GASTEIGER

@<TRIPOS>ATOM
      1  N         45.3260   24.6240   47.7880 N.3     3  MET3       -0.1245
      2  CA        46.4600   25.4790   47.4540 C.3     3  MET3        0.1570
      3  C         46.2320   26.9550   47.7260 C.2     3  MET3        0.2261
      4  O         47.1310   27.7660   47.5160 O.2     3  MET3       -0.2867
      5  CB        46.8000   25.3210   45.9810 C.3     3  MET3        0.0387
      6  CG        47.8080   24.2400   45.6780 C.3     3  MET3        0.0595
      7  SD        48.2820   24.3350   43.9510 S.3     3  MET3       -0.1393
      8  CE        48.8120   26.0510   43.8910 C.3     3  MET3        0.0692
      9  N         40.5770   31.2670   31.4600 N.3   371  ASP371     -0.1239
     10  CA        41.6830   31.4460   30.5440 C.3   371  ASP371      0.1674
     11  C         41.5570   30.3630   29.4790 C.2   371  ASP371      0.2266
     12  O         41.9120   29.2200   29.7130 O.2   371  ASP371     -0.2867
     13  CB        42.9990   31.3320   31.3250 C.3   371  ASP371      0.1410
     14  CG        44.2320   31.5120   30.4540 C.2   371  ASP371      0.3668
     15  OD1       45.3290   31.6470   31.0350 O.co2 371  ASP371     -0.2456
     16  OD2       44.1240   31.5140   29.2030 O.co2 371  ASP371     -0.2456
     17  N         43.1430   29.5290   27.0160 N.3   373  MET373     -0.1230
     18  CA        44.4000   28.9320   26.6100 C.3   373  MET373      0.1702
     19  C         44.7450   27.8400   27.6230 C.2   373  MET373      0.2592
     20  O         45.4840   26.9140   27.3150 O.2   373  MET373     -0.2718
     21  CB        45.4590   30.0370   26.5450 C.3   373  MET373      0.0401
     22  CG        46.8410   29.6620   26.0160 C.3   373  MET373      0.0596
     23  SD        48.0360   31.0300   26.2580 S.3   373  MET373     -0.1393
     24  CE        47.6830   31.5260   27.9690 C.3   373  MET373      0.0692
     25  N         44.1710   27.9570   28.8230 N.am  374  ASP374     -0.1974
     26  CA        44.3890   27.0290   29.9390 C.3   374  ASP374      0.1709
     27  C         43.1510   27.0510   30.8490 C.2   374  ASP374      0.2293
     28  O         43.1450   27.7070   31.8940 O.2   374  ASP374     -0.2864
     29  CB        45.6490   27.4190   30.7230 C.3   374  ASP374      0.1436
     30  CG        46.0030   26.4130   31.8060 C.2   374  ASP374      0.3671
     31  OD1       47.0280   26.6130   32.4970 O.co2 374  ASP374     -0.2456
     32  OD2       45.2660   25.4140   31.9660 O.co2 374  ASP374     -0.2456
     33  N         41.6780   25.5700   33.0920 N.3   376  ARG376     -0.1231
     34  CA        41.5510   25.2150   34.4940 C.3   376  ARG376      0.1694
     35  C         41.7360   26.4370   35.3740 C.2   376  ARG376      0.2591
     36  O         41.3740   26.4190   36.5500 O.2   376  ARG376     -0.2718
     37  CB        42.4680   24.0610   34.8820 C.3   376  ARG376      0.0321
     38  CG        43.9380   24.3210   34.8300 C.3   376  ARG376      0.0489
     39  CD        44.5870   23.0900   34.2240 C.3   376  ARG376      0.2205
     40  NE        45.7580   22.6340   34.9640 N.pl3 376  ARG376     -0.0865
     41  CZ        46.9700   23.1720   34.8810 C.cat 376  ARG376      0.5346
     42  NH1       47.2160   24.2160   34.1040 N.pl3 376  ARG376      0.1354
     43  NH2       47.9450   22.6590   35.5950 N.pl3 376  ARG376      0.1354
     44  N         42.2670   27.4970   34.7660 N.am  377  LEU377     -0.1980
     45  CA        42.4460   28.8070   35.3880 C.3   377  LEU377      0.1596
     46  C         41.2250   29.7120   35.2050 C.2   377  LEU377      0.2287
     47  O         40.7490   29.8930   34.0830 O.2   377  LEU377     -0.2864
     48  CB        43.6520   29.4890   34.7450 C.3   377  LEU377      0.0297
     49  CG        45.0660   29.3560   35.3140 C.3   377  LEU377      0.0022
     50  CD1       45.3280   28.0570   36.0830 C.3   377  LEU377      0.0001
     51  CD2       46.0730   29.5400   34.1870 C.3   377  LEU377      0.0001
     52  N         40.4320   33.7460   36.2460 N.3   379  CYS379     -0.1235
     53  CA        41.3430   34.8310   36.6220 C.3   379  CYS379      0.1677
     54  C         40.6950   36.1970   36.8050 C.2   379  CYS379      0.2270
     55  O         39.6270   36.4720   36.2560 O.2   379  CYS379     -0.2867
     56  CB        42.4490   34.9490   35.5790 C.3   379  CYS379      0.0956
     57  SG        42.9960   33.3700   34.8990 S.3   379  CYS379     -0.0801
     58  N         43.2580   40.4280   31.2600 N.3   395  PHE395     -0.1241
     59  CA        43.6160   39.8430   32.5560 C.3   395  PHE395      0.1605
     60  C         44.5430   40.7710   33.3380 C.2   395  PHE395      0.2264
     61  O         45.7020   40.9500   32.9740 O.2   395  PHE395     -0.2867
     62  CB        44.2760   38.4740   32.3740 C.3   395  PHE395      0.0534
     63  CG        43.3520   37.4140   31.8410 C.ar  395  PHE395     -0.0203
     64  CD1       43.4410   36.9990   30.5200 C.ar  395  PHE395     -0.0042
     65  CD2       42.4070   36.8220   32.6610 C.ar  395  PHE395     -0.0042
     66  CE1       42.6010   36.0190   30.0210 C.ar  395  PHE395     -0.0003
     67  CE2       41.5610   35.8370   32.1690 C.ar  395  PHE395     -0.0003
     68  CZ        41.6590   35.4360   30.8460 C.ar  395  PHE395     -0.0000
     69  N         48.5700   41.1210   33.3980 N.3   398  TRP398     -0.1241
     70  CA        49.1880   40.3670   32.3110 C.3   398  TRP398      0.1605
     71  C         49.3460   41.3050   31.1200 C.2   398  TRP398      0.2264
     72  O         48.7930   42.4000   31.1280 O.2   398  TRP398     -0.2867
     73  CB        48.3380   39.1440   31.9250 C.3   398  TRP398      0.0550
     74  CG        48.3250   38.0440   32.9570 C.ar  398  TRP398      0.0003
     75  CD1       47.3530   37.8090   33.8880 C.ar  398  TRP398      0.0946
     76  CD2       49.3300   37.0400   33.1690 C.ar  398  TRP398      0.0152
     77  NE1       47.6870   36.7260   34.6650 N.ar  398  TRP398     -0.2442
     78  CE2       48.8980   36.2380   34.2490 C.ar  398  TRP398      0.0810
     79  CE3       50.5600   36.7480   32.5600 C.ar  398  TRP398      0.0012
     80  CZ2       49.6490   35.1640   34.7350 C.ar  398  TRP398      0.0191
     81  CZ3       51.3070   35.6700   33.0420 C.ar  398  TRP398      0.0001
     82  CH2       50.8440   34.8920   34.1170 C.ar  398  TRP398      0.0015
     83  N         48.6630   40.4390   25.0510 N.3   401  GLU401     -0.1231
     84  CA        48.6080   39.2500   24.1910 C.3   401  GLU401      0.1699
     85  C         47.7760   38.0970   24.8040 C.2   401  GLU401      0.2592
     86  O         47.3830   37.1550   24.0990 O.2   401  GLU401     -0.2718
     87  CB        50.0150   38.8100   23.7310 C.3   401  GLU401      0.0402
     88  CG        50.8870   38.2160   24.8290 C.3   401  GLU401      0.1161
     89  CD        52.3790   38.4830   24.6280 C.2   401  GLU401      0.3649
     90  OE1       52.8750   38.2890   23.4910 O.co2 401  GLU401     -0.2457
     91  OE2       53.0550   38.8800   25.6160 O.co2 401  GLU401     -0.2457
     92  N         47.4920   38.2010   26.1010 N.am  402  TYR402     -0.1976
     93  CA        46.6170   37.2590   26.8000 C.3   402  TYR402      0.1639
     94  C         45.1420   37.6700   26.7500 C.2   402  TYR402      0.2290
     95  O         44.2770   36.9410   27.2590 O.2   402  TYR402     -0.2864
     96  CB        47.0560   37.1040   28.2610 C.3   402  TYR402      0.0560
     97  CG        48.3600   36.3790   28.4180 C.ar  402  TYR402     -0.0198
     98  CD1       49.5770   37.0550   28.3220 C.ar  402  TYR402     -0.0009
     99  CD2       48.3840   35.0100   28.6490 C.ar  402  TYR402     -0.0009
    100  CE1       50.7840   36.3790   28.4580 C.ar  402  TYR402      0.0417
    101  CE2       49.5840   34.3280   28.7900 C.ar  402  TYR402      0.0417
    102  CZ        50.7770   35.0140   28.6910 C.ar  402  TYR402      0.1957
    103  OH        51.9530   34.3140   28.8160 O.3   402  TYR402     -0.2866
    104  N         39.6720   27.7130   42.4990 N.3   425  LYS425     -0.1245
    105  CA        40.8380   28.5650   42.7310 C.3   425  LYS425      0.1561
    106  C         40.7230   29.8070   41.8520 C.2   425  LYS425      0.2260
    107  O         40.3560   29.6930   40.6680 O.2   425  LYS425     -0.2867
    108  CB        42.1290   27.7960   42.4240 C.3   425  LYS425      0.0271
    109  CG        43.4040   28.5170   42.8030 C.3   425  LYS425      0.0035
    110  CD        44.6110   27.8020   42.2350 C.3   425  LYS425      0.0206
    111  CE        45.9240   28.4060   42.6930 C.3   425  LYS425      0.1093
    112  NZ        46.1720   29.7490   42.0940 N.3   425  LYS425     -0.1314
    113  N         42.8030   33.0360   40.2430 N.3   427  GLU427     -0.1245
    114  CA        44.1090   33.6390   39.9660 C.3   427  GLU427      0.1567
    115  C         44.0220   35.1650   40.0340 C.2   427  GLU427      0.2260
    116  O         43.1430   35.7820   39.4060 O.2   427  GLU427     -0.2867
    117  CB        44.6190   33.2360   38.5760 C.3   427  GLU427      0.0388
    118  CG        44.5030   31.7720   38.2380 C.3   427  GLU427      0.1160
    119  CD        45.4070   30.9190   39.0820 C.2   427  GLU427      0.3649
    120  OE1       44.9010   29.9260   39.6550 O.co2 427  GLU427     -0.2457
    121  OE2       46.6160   31.2410   39.1770 O.co2 427  GLU427     -0.2457
    122  N         49.6550   38.4640   38.3910 N.3   430  PRO430     -0.2102
    123  CA        50.9090   37.7710   38.7100 C.3   430  PRO430      0.1504
    124  C         51.9440   38.6880   39.3520 C.2   430  PRO430      0.2575
    125  O         52.0340   39.8660   39.0070 O.2   430  PRO430     -0.2718
    126  CB        51.4110   37.3120   37.3400 C.3   430  PRO430      0.0282
    127  CG        50.8780   38.3260   36.3960 C.3   430  PRO430      0.0208
    128  CD        49.5400   38.7470   36.9480 C.3   430  PRO430      0.0893
    129  N         52.7120   38.1450   40.2910 N.am  431  ARG431     -0.1980
    130  CA        53.8430   38.8650   40.8870 C.3   431  ARG431      0.1597
    131  C         54.9870   37.8930   41.1410 C.2   431  ARG431      0.2287
    132  O         55.9080   38.1960   41.8850 O.2   431  ARG431     -0.2864
    133  CB        53.4300   39.5940   42.1760 C.3   431  ARG431      0.0334
    134  CG        52.0340   40.1630   42.1010 C.3   431  ARG431      0.0492
    135  CD        51.7010   41.2250   43.1290 C.3   431  ARG431      0.2205
    136  NE        50.2490   41.2220   43.3490 N.pl3 431  ARG431     -0.0865
    137  CZ        49.4740   42.2990   43.4810 C.cat 431  ARG431      0.5346
    138  NH1       49.9910   43.5240   43.4060 N.pl3 431  ARG431      0.1354
    139  NH2       48.1640   42.1420   43.6830 N.pl3 431  ARG431      0.1354
@<TRIPOS>BOND
     1    90    89   ar
     2    87    84    1
     3    87    88    1
     4    86    85    2
     5    84    85    1
     6    84    83    1
     7    89    88    1
     8    89    91   ar
     9    85    92   am
    10    22    23    1
    11    22    21    1
    12    92    93    1
    13    23    24    1
    14    21    18    1
    15    18    17    1
    16    18    19    1
    17    94    93    1
    18    94    95    2
    19    93    96    1
    20    20    19    2
    21    19    25   am
    22    96    97    1
    23    98    97   ar
    24    98   100   ar
    25    97    99   ar
    26   100   102   ar
    27    99   101   ar
    28   102   101   ar
    29   102   103    1
    30    25    26    1
    31    16    14   ar
    32    11    12    2
    33    11    10    1
    34    26    29    1
    35    26    27    1
    36    66    64   ar
    37    66    68   ar
    38    14    15   ar
    39    14    13    1
    40    64    63   ar
    41    10    13    1
    42    10     9    1
    43    29    30    1
    44    68    67   ar
    45    27    28    2
    46    71    72    2
    47    71    70    1
    48    58    59    1
    49    30    32   ar
    50    30    31   ar
    51    63    62    1
    52    63    65   ar
    53    73    70    1
    54    73    74    1
    55    67    65   ar
    56    70    69    1
    57    62    59    1
    58    59    60    1
    59    79    81   ar
    60    79    76   ar
    61    74    76   ar
    62    74    75   ar
    63    61    60    2
    64    81    82   ar
    65    33    34    1
    66    76    78   ar
    67    75    77   ar
    68    47    46    2
    69    42    41    1
    70    82    80   ar
    71    51    49    1
    72    39    38    1
    73    39    40    1
    74    78    77   ar
    75    78    80   ar
    76    34    37    1
    77    34    35    1
    78    48    49    1
    79    48    45    1
    80    44    35   am
    81    44    45    1
    82    38    37    1
    83    41    40    2
    84    41    43    1
    85    57    56    1
    86    46    45    1
    87    49    50    1
    88    35    36    2
    89    56    53    1
    90    52    53    1
    91    55    54    2
    92   127   128    1
    93   127   126    1
    94    53    54    1
    95   128   122    1
    96   126   123    1
    97   118   117    1
    98   118   119    1
    99   122   123    1
   100   117   114    1
   101   123   124    1
   102   125   124    2
   103   119   121   ar
   104   119   120   ar
   105   124   129   am
   106   116   115    2
   107   114   115    1
   108   114   113    1
   109   129   130    1
   110   107   106    2
   111   130   131    1
   112   130   133    1
   113   131   132    2
   114   106   105    1
   115   112   111    1
   116   134   133    1
   117   134   135    1
   118   110   111    1
   119   110   109    1
   120   108   105    1
   121   108   109    1
   122   104   105    1
   123   135   136    1
   124   136   137    2
   125   138   137    1
   126   137   139    1
   127     8     7    1
   128     7     6    1
   129     6     5    1
   130     5     2    1
   131     2     3    1
   132     2     1    1
   133     4     3    2
