@<TRIPOS>MOLECULE
tmp/3h6zA01.pdb
 124 120 0 0 0
SMALL
GASTEIGER

@<TRIPOS>ATOM
      1  N         35.1990   18.9120   20.9350 N.3   150  VAL150     -0.1245
      2  CA        36.2040   19.3600   19.9490 C.3   150  VAL150      0.1561
      3  C         37.5960   18.8610   20.3390 C.2   150  VAL150      0.2260
      4  O         38.0780   19.1530   21.4340 O.2   150  VAL150     -0.2867
      5  CB        36.2160   20.9060   19.7550 C.3   150  VAL150      0.0252
      6  CG1       37.5010   21.3820   19.0420 C.3   150  VAL150      0.0019
      7  CG2       34.9980   21.3570   18.9830 C.3   150  VAL150      0.0019
      8  N         41.1400   18.9410   20.8510 N.3   152  LYS152     -0.1245
      9  CA        42.1240   20.0020   21.0340 C.3   152  LYS152      0.1561
     10  C         43.3810   19.8140   20.1920 C.2   152  LYS152      0.2260
     11  O         44.1360   20.7520   20.0160 O.2   152  LYS152     -0.2867
     12  CB        42.4750   20.1990   22.5200 C.3   152  LYS152      0.0271
     13  CG        42.9500   18.9590   23.2920 C.3   152  LYS152      0.0035
     14  CD        44.2090   19.2710   24.1040 C.3   152  LYS152      0.0206
     15  CE        43.9250   19.9370   25.4540 C.3   152  LYS152      0.1093
     16  NZ        43.9850   18.9670   26.5730 N.3   152  LYS152     -0.1314
     17  N         41.3060   20.4050   15.6940 N.3   155  ILE155     -0.1245
     18  CA        40.0880   21.2000   15.9020 C.3   155  ILE155      0.1561
     19  C         39.0250   21.0170   14.8190 C.2   155  ILE155      0.2260
     20  O         37.8730   21.4230   14.9940 O.2   155  ILE155     -0.2867
     21  CB        40.3730   22.7120   16.1870 C.3   155  ILE155      0.0252
     22  CG1       40.9540   23.4240   14.9630 C.3   155  ILE155      0.0019
     23  CG2       41.2690   22.8720   17.4270 C.3   155  ILE155      0.0019
     24  CD1       41.0400   24.9320   15.1070 C.3   155  ILE155      0.0001
     25  N         42.3570   16.0370   27.9510 N.3   181  GLY181     -0.1210
     26  CA        41.0640   16.6690   27.7100 C.3   181  GLY181      0.1956
     27  C         41.0950   18.1170   28.1500 C.2   181  GLY181      0.2612
     28  O         42.1760   18.7170   28.2640 O.2   181  GLY181     -0.2717
     29  N         39.9200   18.6940   28.3900 N.am  182  PHE182     -0.1962
     30  CA        39.8780   20.0740   28.8630 C.3   182  PHE182      0.1771
     31  C         38.6610   20.4450   29.6840 C.2   182  PHE182      0.2620
     32  O         37.6290   19.7720   29.6460 O.2   182  PHE182     -0.2715
     33  CB        40.0900   21.0840   27.7170 C.3   182  PHE182      0.0574
     34  CG        39.0390   21.0440   26.6450 C.ar  182  PHE182     -0.0200
     35  CD1       37.7770   21.5910   26.8590 C.ar  182  PHE182     -0.0042
     36  CD2       39.3260   20.4980   25.4040 C.ar  182  PHE182     -0.0042
     37  CE1       36.7990   21.5740   25.8630 C.ar  182  PHE182     -0.0003
     38  CE2       38.3660   20.4700   24.3990 C.ar  182  PHE182     -0.0003
     39  CZ        37.0920   21.0170   24.6320 C.ar  182  PHE182     -0.0000
     40  N         38.8120   21.5320   30.4330 N.am  183  TRP183     -0.1960
     41  CA        37.7020   22.1750   31.1020 C.3   183  TRP183      0.1771
     42  C         36.9560   23.0580   30.1090 C.2   183  TRP183      0.2619
     43  O         37.5470   23.7070   29.2410 O.2   183  TRP183     -0.2715
     44  CB        38.2000   23.0280   32.2710 C.3   183  TRP183      0.0590
     45  CG        38.7240   22.2480   33.4750 C.ar  183  TRP183      0.0006
     46  CD1       40.0220   21.9190   33.7400 C.ar  183  TRP183      0.0946
     47  CD2       37.9530   21.7320   34.5630 C.ar  183  TRP183      0.0152
     48  NE1       40.1070   21.2260   34.9170 N.ar  183  TRP183     -0.2442
     49  CE2       38.8520   21.0930   35.4450 C.ar  183  TRP183      0.0810
     50  CE3       36.5870   21.7400   34.8750 C.ar  183  TRP183      0.0012
     51  CZ2       38.4330   20.4690   36.6250 C.ar  183  TRP183      0.0191
     52  CZ3       36.1650   21.1180   36.0450 C.ar  183  TRP183      0.0001
     53  CH2       37.0890   20.4930   36.9100 C.ar  183  TRP183      0.0015
     54  N         35.6400   23.0570   30.2250 N.am  184  CYS184     -0.1968
     55  CA        34.8280   24.0820   29.5950 C.3   184  CYS184      0.1712
     56  C         33.4890   24.1420   30.2950 C.2   184  CYS184      0.2296
     57  O         33.0960   23.1860   30.9760 O.2   184  CYS184     -0.2864
     58  CB        34.6420   23.8200   28.1000 C.3   184  CYS184      0.0983
     59  SG        33.5000   22.5150   27.7640 S.3   184  CYS184     -0.0798
     60  N         31.5040   24.3620   22.1010 N.3   190  ILE190     -0.1245
     61  CA        32.4210   23.3320   21.5850 C.3   190  ILE190      0.1561
     62  C         32.2260   21.9100   22.1270 C.2   190  ILE190      0.2260
     63  O         32.9820   21.0080   21.7760 O.2   190  ILE190     -0.2867
     64  CB        33.9110   23.7530   21.6540 C.3   190  ILE190      0.0252
     65  CG1       34.3590   23.9700   23.1010 C.3   190  ILE190      0.0019
     66  CG2       34.1400   24.9830   20.7810 C.3   190  ILE190      0.0019
     67  CD1       35.8700   24.1720   23.2510 C.3   190  ILE190      0.0001
     68  N         39.9650   30.6990   17.0720 N.3   263  PRO263     -0.2102
     69  CA        39.6980   29.7460   18.1450 C.3   263  PRO263      0.1504
     70  C         40.9770   29.3080   18.8550 C.2   263  PRO263      0.2575
     71  O         40.9080   28.8120   19.9790 O.2   263  PRO263     -0.2718
     72  CB        39.0700   28.5610   17.4060 C.3   263  PRO263      0.0282
     73  CG        39.5600   28.6840   16.0010 C.3   263  PRO263      0.0208
     74  CD        39.6040   30.1500   15.7520 C.3   263  PRO263      0.0893
     75  N         42.1210   29.4980   18.1930 N.am  264  LEU264     -0.1980
     76  CA        43.4330   29.1460   18.7410 C.3   264  LEU264      0.1596
     77  C         44.1650   30.3400   19.3400 C.2   264  LEU264      0.2287
     78  O         45.2720   30.1920   19.8550 O.2   264  LEU264     -0.2864
     79  CB        44.3120   28.4930   17.6740 C.3   264  LEU264      0.0297
     80  CG        43.9500   27.0640   17.2690 C.3   264  LEU264      0.0022
     81  CD1       44.7830   26.6070   16.0810 C.3   264  LEU264      0.0001
     82  CD2       44.0930   26.1160   18.4500 C.3   264  LEU264      0.0001
     83  N         42.4060   33.8570   21.1070 N.3   266  LEU266     -0.1245
     84  CA        41.2200   34.6610   21.3630 C.3   266  LEU266      0.1561
     85  C         41.4890   36.1680   21.3400 C.2   266  LEU266      0.2260
     86  O         40.5480   36.9620   21.3380 O.2   266  LEU266     -0.2867
     87  CB        40.5710   34.2390   22.6970 C.3   266  LEU266      0.0270
     88  CG        39.6430   33.0100   22.8280 C.3   266  LEU266      0.0019
     89  CD1       38.2890   33.2540   22.1780 C.3   266  LEU266      0.0001
     90  CD2       40.2480   31.7140   22.2920 C.3   266  LEU266      0.0001
     91  N         37.8360   25.0430   11.5230 N.3   300  PHE300     -0.1241
     92  CA        37.0780   25.1250   12.7630 C.3   300  PHE300      0.1605
     93  C         35.5940   25.3050   12.4950 C.2   300  PHE300      0.2264
     94  O         35.2080   26.0100   11.5710 O.2   300  PHE300     -0.2867
     95  CB        37.6080   26.2650   13.6280 C.3   300  PHE300      0.0534
     96  CG        36.9790   26.3420   14.9820 C.ar  300  PHE300     -0.0203
     97  CD1       37.3080   25.4100   15.9690 C.ar  300  PHE300     -0.0042
     98  CD2       36.0630   27.3490   15.2790 C.ar  300  PHE300     -0.0042
     99  CE1       36.7240   25.4690   17.2320 C.ar  300  PHE300     -0.0003
    100  CE2       35.4800   27.4240   16.5290 C.ar  300  PHE300     -0.0003
    101  CZ        35.8100   26.4770   17.5140 C.ar  300  PHE300     -0.0000
    102  N         41.0420   30.7170   28.3060 N.3   372  LEU372     -0.1231
    103  CA        40.7540   29.7010   27.2810 C.3   372  LEU372      0.1693
    104  C         41.9710   28.9680   26.7540 C.2   372  LEU372      0.2591
    105  O         41.8460   27.9100   26.1400 O.2   372  LEU372     -0.2718
    106  CB        39.9140   30.2610   26.1360 C.3   372  LEU372      0.0284
    107  CG        38.4660   30.1500   26.5960 C.3   372  LEU372      0.0019
    108  CD1       37.9730   31.5030   27.0890 C.3   372  LEU372      0.0001
    109  CD2       37.5530   29.5400   25.5220 C.3   372  LEU372      0.0001
    110  N         43.1430   29.5290   27.0160 N.am  373  MET373     -0.1979
    111  CA        44.4000   28.9320   26.6100 C.3   373  MET373      0.1605
    112  C         44.7450   27.8400   27.6230 C.2   373  MET373      0.2287
    113  O         45.4840   26.9140   27.3150 O.2   373  MET373     -0.2864
    114  CB        45.4590   30.0370   26.5450 C.3   373  MET373      0.0413
    115  CG        46.8410   29.6620   26.0160 C.3   373  MET373      0.0598
    116  SD        48.0360   31.0300   26.2580 S.3   373  MET373     -0.1393
    117  CE        47.6830   31.5260   27.9690 C.3   373  MET373      0.0692
    118  N         42.0990   26.3150   30.4670 N.3   375  PRO375     -0.2116
    119  CA        40.7900   26.5690   31.0550 C.3   375  PRO375      0.1372
    120  C         40.5970   25.9950   32.4440 C.2   375  PRO375      0.2244
    121  O         39.4570   25.9500   32.9310 O.2   375  PRO375     -0.2868
    122  CB        39.8150   25.9190   30.0720 C.3   375  PRO375      0.0268
    123  CG        40.6230   25.0090   29.2220 C.3   375  PRO375      0.0207
    124  CD        42.0720   25.1930   29.5200 C.3   375  PRO375      0.0892
@<TRIPOS>BOND
     1    91    92    1
     2    94    93    2
     3    93    92    1
     4    92    95    1
     5    95    96    1
     6    19    20    2
     7    19    18    1
     8    22    24    1
     9    22    21    1
    10    96    98   ar
    11    96    97   ar
    12    98   100   ar
    13    17    18    1
    14    74    73    1
    15    74    68    1
    16    18    21    1
    17    97    99   ar
    18    73    72    1
    19    81    80    1
    20    21    23    1
    21   100   101   ar
    22    68    69    1
    23    99   101   ar
    24    80    79    1
    25    80    82    1
    26    72    69    1
    27    79    76    1
    28    69    70    1
    29    75    76    1
    30    75    70   am
    31    76    77    1
    32    70    71    2
    33     7     5    1
    34     6     5    1
    35    77    78    2
    36     5     2    1
    37     2     3    1
    38     2     1    1
    39    11    10    2
    40    10     9    1
    41     3     4    2
    42    66    64    1
    43     8     9    1
    44     9    12    1
    45    83    84    1
    46    86    85    2
    47    85    84    1
    48    84    87    1
    49    61    64    1
    50    61    60    1
    51    61    62    1
    52    64    65    1
    53    63    62    2
    54    89    88    1
    55    90    88    1
    56    12    13    1
    57    87    88    1
    58    65    67    1
    59    13    14    1
    60    14    15    1
    61    38    39   ar
    62    38    36   ar
    63    39    37   ar
    64    36    34   ar
    65    15    16    1
    66   109   107    1
    67    37    35   ar
    68   115   116    1
    69   115   114    1
    70   106   107    1
    71   106   103    1
    72   105   104    2
    73   116   117    1
    74   114   111    1
    75   107   108    1
    76   111   110    1
    77   111   112    1
    78    34    35   ar
    79    34    33    1
    80   104   110   am
    81   104   103    1
    82   103   102    1
    83   113   112    2
    84    26    25    1
    85    26    27    1
    86    33    30    1
    87    59    58    1
    88    58    55    1
    89    27    28    2
    90    27    29   am
    91    29    30    1
    92    30    31    1
    93   123   124    1
    94   123   122    1
    95    43    42    2
    96   124   118    1
    97    55    54    1
    98    55    56    1
    99    32    31    2
   100    31    40   am
   101   122   119    1
   102    42    54   am
   103    42    41    1
   104    56    57    2
   105    40    41    1
   106   118   119    1
   107   119   120    1
   108    41    44    1
   109    44    45    1
   110   120   121    2
   111    45    46   ar
   112    45    47   ar
   113    46    48   ar
   114    47    50   ar
   115    47    49   ar
   116    50    52   ar
   117    48    49   ar
   118    49    51   ar
   119    52    53   ar
   120    51    53   ar
