@<TRIPOS>MOLECULE
tmp/3h73B00.pdb
 194 184 0 0 0
SMALL
GASTEIGER

@<TRIPOS>ATOM
      1  N         52.8150   11.8810   19.0450 N.3    31  ARG31      -0.1231
      2  CA        53.9330   11.4670   18.2130 C.3    31  ARG31       0.1694
      3  C         54.3600   10.0590   18.5810 C.2    31  ARG31       0.2591
      4  O         53.8710    9.4890   19.5650 O.2    31  ARG31      -0.2718
      5  CB        55.1470   12.3900   18.4000 C.3    31  ARG31       0.0321
      6  CG        55.0240   13.7640   17.7600 C.3    31  ARG31       0.0489
      7  CD        56.3820   14.2530   17.2980 C.3    31  ARG31       0.2205
      8  NE        56.9550   13.3260   16.3250 N.pl3  31  ARG31      -0.0865
      9  CZ        58.2110   13.3550   15.8990 C.cat  31  ARG31       0.5346
     10  NH1       59.0580   14.2740   16.3540 N.pl3  31  ARG31       0.1354
     11  NH2       58.6320   12.4500   15.0240 N.pl3  31  ARG31       0.1354
     12  N         55.2610    9.5200   17.7630 N.am   32  ILE32      -0.1980
     13  CA        55.8820    8.2020   17.9610 C.3    32  ILE32       0.1595
     14  C         54.9340    7.0070   18.0170 C.2    32  ILE32       0.2287
     15  O         54.7570    6.3640   19.0550 O.2    32  ILE32      -0.2864
     16  CB        56.7710    8.2230   19.2340 C.3    32  ILE32       0.0276
     17  CG1       57.4370    9.6040   19.3800 C.3    32  ILE32       0.0022
     18  CG2       57.8200    7.1150   19.1520 C.3    32  ILE32       0.0022
     19  CD1       58.2730   10.0850   18.1950 C.3    32  ILE32       0.0001
     20  N         51.8600   14.0490   23.8990 N.3    50  ARG50      -0.1245
     21  CA        52.5880   15.2700   24.2210 C.3    50  ARG50       0.1563
     22  C         51.6330   16.4350   24.4320 C.2    50  ARG50       0.2260
     23  O         51.2570   17.1550   23.5090 O.2    50  ARG50      -0.2867
     24  CB        53.6040   15.5440   23.1140 C.3    50  ARG50       0.0307
     25  CG        54.5290   14.3360   22.9040 C.3    50  ARG50       0.0489
     26  CD        55.6140   14.5640   21.8670 C.3    50  ARG50       0.2205
     27  NE        56.5450   13.4350   21.8180 N.pl3  50  ARG50      -0.0865
     28  CZ        57.6960   13.4370   21.1510 C.cat  50  ARG50       0.5346
     29  NH1       58.0800   14.5060   20.4720 N.pl3  50  ARG50       0.1354
     30  NH2       58.4630   12.3550   21.1770 N.pl3  50  ARG50       0.1354
     31  N         60.5810   16.9880   22.1360 N.3    56  ASP56      -0.1239
     32  CA        60.9230   15.7070   22.7470 C.3    56  ASP56       0.1674
     33  C         61.1730   15.8220   24.2430 C.2    56  ASP56       0.2266
     34  O         62.1980   15.3850   24.7570 O.2    56  ASP56      -0.2867
     35  CB        62.1510   15.0910   22.0510 C.3    56  ASP56       0.1410
     36  CG        62.0080   15.0480   20.5310 C.2    56  ASP56       0.3668
     37  OD1       60.9140   14.7080   20.0410 O.co2  56  ASP56      -0.2456
     38  OD2       63.0000   15.3420   19.8280 O.co2  56  ASP56      -0.2456
     39  N         59.2460    8.9800   27.0610 N.3   100  ILE100     -0.1231
     40  CA        59.1820    9.2280   25.6290 C.3   100  ILE100      0.1692
     41  C         59.6650    8.0190   24.8340 C.2   100  ILE100      0.2592
     42  O         60.5530    7.2860   25.2860 O.2   100  ILE100     -0.2718
     43  CB        60.0170   10.4930   25.2600 C.3   100  ILE100      0.0266
     44  CG1       60.0210   10.7120   23.7450 C.3   100  ILE100      0.0019
     45  CG2       61.4320   10.3650   25.8140 C.3   100  ILE100      0.0020
     46  CD1       60.7380   11.9760   23.3100 C.3   100  ILE100      0.0001
     47  N         59.0550    7.8260   23.6720 N.am  101  ASP101     -0.1974
     48  CA        59.3730    6.7300   22.7540 C.3   101  ASP101      0.1709
     49  C         59.1310    5.3290   23.3100 C.2   101  ASP101      0.2293
     50  O         59.8450    4.8950   24.2070 O.2   101  ASP101     -0.2864
     51  CB        60.8370    6.8000   22.3180 C.3   101  ASP101      0.1436
     52  CG        61.1750    8.0530   21.5300 C.2   101  ASP101      0.3671
     53  OD1       60.2640    8.7920   21.0950 O.co2 101  ASP101     -0.2456
     54  OD2       62.3830    8.2940   21.3440 O.co2 101  ASP101     -0.2456
     55  N         61.5680    5.2830   27.2160 N.3   118  ASP118     -0.1239
     56  CA        62.5980    6.0230   27.9330 C.3   118  ASP118      0.1674
     57  C         62.0410    6.8270   29.1030 C.2   118  ASP118      0.2266
     58  O         60.8590    7.1840   29.1250 O.2   118  ASP118     -0.2867
     59  CB        63.3110    7.0370   27.0290 C.3   118  ASP118      0.1410
     60  CG        63.7600    6.4680   25.7060 C.2   118  ASP118      0.3668
     61  OD1       63.7650    5.2300   25.5180 O.co2 118  ASP118     -0.2456
     62  OD2       64.1270    7.3040   24.8510 O.co2 118  ASP118     -0.2456
     63  N         63.2860   10.1640   31.8000 N.3   120  PHE120     -0.1241
     64  CA        64.2270   11.2180   32.1540 C.3   120  PHE120      0.1605
     65  C         63.6070   11.9970   33.3090 C.2   120  PHE120      0.2264
     66  O         62.3880   12.1600   33.3670 O.2   120  PHE120     -0.2867
     67  CB        64.4260   12.2100   30.9900 C.3   120  PHE120      0.0534
     68  CG        65.2470   11.6850   29.8550 C.ar  120  PHE120     -0.0203
     69  CD1       66.6390   11.7260   29.9080 C.ar  120  PHE120     -0.0042
     70  CD2       64.6310   11.1970   28.7040 C.ar  120  PHE120     -0.0042
     71  CE1       67.4050   11.2930   28.8260 C.ar  120  PHE120     -0.0003
     72  CE2       65.3900   10.7640   27.6200 C.ar  120  PHE120     -0.0003
     73  CZ        66.7790   10.8140   27.6820 C.ar  120  PHE120     -0.0000
     74  N         66.6090   14.1310   26.1470 N.3   126  ILE126     -0.1231
     75  CA        67.9060   13.8800   25.5310 C.3   126  ILE126      0.1692
     76  C         68.6600   15.1660   25.1960 C.2   126  ILE126      0.2592
     77  O         69.8830   15.1560   25.0450 O.2   126  ILE126     -0.2718
     78  CB        67.7530   12.9930   24.2620 C.3   126  ILE126      0.0266
     79  CG1       69.0770   12.3050   23.9410 C.3   126  ILE126      0.0019
     80  CG2       67.3170   13.8260   23.0880 C.3   126  ILE126      0.0020
     81  CD1       68.9790   11.3460   22.7610 C.3   126  ILE126      0.0001
     82  N         67.9310   16.2790   25.1060 N.am  127  PHE127     -0.1976
     83  CA        68.5410   17.5670   24.7990 C.3   127  PHE127      0.1639
     84  C         68.8870   18.3740   26.0510 C.2   127  PHE127      0.2290
     85  O         69.3030   19.5300   25.9610 O.2   127  PHE127     -0.2864
     86  CB        67.6170   18.3800   23.8860 C.3   127  PHE127      0.0560
     87  CG        67.4170   17.7610   22.5270 C.ar  127  PHE127     -0.0200
     88  CD1       66.3130   16.9610   22.2630 C.ar  127  PHE127     -0.0042
     89  CD2       68.3660   17.9360   21.5270 C.ar  127  PHE127     -0.0042
     90  CE1       66.1590   16.3380   21.0200 C.ar  127  PHE127     -0.0003
     91  CE2       68.2240   17.3220   20.2860 C.ar  127  PHE127     -0.0003
     92  CZ        67.1180   16.5200   20.0300 C.ar  127  PHE127     -0.0000
     93  N         73.2890    8.4780   26.7690 N.3   249  PHE249     -0.1241
     94  CA        71.8900    8.2240   26.4500 C.3   249  PHE249      0.1605
     95  C         71.7120    6.7430   26.1030 C.2   249  PHE249      0.2264
     96  O         72.5950    6.1380   25.5030 O.2   249  PHE249     -0.2867
     97  CB        71.4470    9.0300   25.2240 C.3   249  PHE249      0.0534
     98  CG        70.1140    8.6040   24.6650 C.ar  249  PHE249     -0.0203
     99  CD1       68.9430    8.8790   25.3660 C.ar  249  PHE249     -0.0042
    100  CD2       70.0240    7.9470   23.4360 C.ar  249  PHE249     -0.0042
    101  CE1       67.7010    8.5170   24.8580 C.ar  249  PHE249     -0.0003
    102  CE2       68.7750    7.5760   22.9140 C.ar  249  PHE249     -0.0003
    103  CZ        67.6200    7.8630   23.6250 C.ar  249  PHE249     -0.0000
    104  N         69.3120    2.4250   21.0660 N.3   274  TYR274     -0.1241
    105  CA        70.5250    3.0980   20.6120 C.3   274  TYR274      0.1605
    106  C         71.0790    3.9330   21.7490 C.2   274  TYR274      0.2264
    107  O         70.3500    4.2860   22.6840 O.2   274  TYR274     -0.2867
    108  CB        70.3050    3.9510   19.3450 C.3   274  TYR274      0.0534
    109  CG        69.3660    5.1400   19.4460 C.ar  274  TYR274     -0.0201
    110  CD1       69.8530    6.4280   19.2580 C.ar  274  TYR274     -0.0009
    111  CD2       67.9870    4.9780   19.6490 C.ar  274  TYR274     -0.0009
    112  CE1       69.0000    7.5360   19.2600 C.ar  274  TYR274      0.0417
    113  CE2       67.1280    6.0810   19.6500 C.ar  274  TYR274      0.0417
    114  CZ        67.6460    7.3620   19.4500 C.ar  274  TYR274      0.1957
    115  OH        66.8490    8.4880   19.4080 O.3   274  TYR274     -0.2866
    116  N         75.3870   13.4320   20.9190 N.3   282  LEU282     -0.1245
    117  CA        74.5680   13.4760   19.7140 C.3   282  LEU282      0.1561
    118  C         75.2650   13.9460   18.4470 C.2   282  LEU282      0.2260
    119  O         74.7070   13.8140   17.3550 O.2   282  LEU282     -0.2867
    120  CB        73.3200   14.3360   19.9500 C.3   282  LEU282      0.0270
    121  CG        72.3150   13.7760   20.9530 C.3   282  LEU282      0.0019
    122  CD1       71.3160   14.8590   21.3380 C.3   282  LEU282      0.0001
    123  CD2       71.6090   12.5730   20.3420 C.3   282  LEU282      0.0001
    124  N         75.6770    8.3720   18.2040 N.3   286  GLN286     -0.1245
    125  CA        74.4580    7.5610   18.2000 C.3   286  GLN286      0.1566
    126  C         74.7470    6.2350   17.5140 C.2   286  GLN286      0.2260
    127  O         75.1990    6.2140   16.3650 O.2   286  GLN286     -0.2867
    128  CB        73.3230    8.2960   17.4810 C.3   286  GLN286      0.0367
    129  CG        73.0010    9.6320   18.0880 C.3   286  GLN286      0.0905
    130  CD        71.9240   10.3550   17.3220 C.2   286  GLN286      0.2608
    131  OE1       70.7360   10.1010   17.5110 O.2   286  GLN286     -0.2717
    132  NE2       72.3340   11.2530   16.4410 N.am  286  GLN286     -0.0878
    133  N         70.9430    5.3380   14.3820 N.3   330  THR330     -0.1203
    134  CA        70.0940    5.6190   15.5500 C.3   330  THR330      0.1994
    135  C         68.9110    4.6710   15.7400 C.2   330  THR330      0.2617
    136  O         69.0990    3.4910   16.0420 O.2   330  THR330     -0.2717
    137  CB        69.5870    7.1150   15.5240 C.3   330  THR330      0.1784
    138  OG1       68.6060    7.2930   14.4950 O.3   330  THR330     -0.2211
    139  CG2       70.7400    8.0690   15.2410 C.3   330  THR330      0.0376
    140  N         67.7010    5.1910   15.6040 N.am  331  GLU331     -0.1979
    141  CA        66.5020    4.3760   15.7370 C.3   331  GLU331      0.1602
    142  C         66.5460    3.3150   14.6560 C.2   331  GLU331      0.2287
    143  O         66.9760    3.5790   13.5390 O.2   331  GLU331     -0.2864
    144  CB        65.2620    5.2540   15.5580 C.3   331  GLU331      0.0415
    145  CG        65.2430    6.4530   16.4750 C.3   331  GLU331      0.1163
    146  CD        64.2680    7.5100   16.0160 C.2   331  GLU331      0.3649
    147  OE1       64.1480    7.6990   14.7880 O.co2 331  GLU331     -0.2457
    148  OE2       63.6470    8.1730   16.8740 O.co2 331  GLU331     -0.2457
    149  N         68.1520    4.0080   11.0690 N.3   347  ARG347     -0.1245
    150  CA        68.0430    5.3900   10.6260 C.3   347  ARG347      0.1563
    151  C         69.4630    5.9390   10.6030 C.2   347  ARG347      0.2260
    152  O         70.2050    5.7810   11.5820 O.2   347  ARG347     -0.2867
    153  CB        67.1780    6.1780   11.6090 C.3   347  ARG347      0.0307
    154  CG        67.2520    7.6940   11.4490 C.3   347  ARG347      0.0489
    155  CD        66.3760    8.3710   12.4940 C.3   347  ARG347      0.2205
    156  NE        66.6060    9.8140   12.5720 N.pl3 347  ARG347     -0.0865
    157  CZ        65.8780   10.6490   13.2950 C.cat 347  ARG347      0.5346
    158  NH1       64.8570   10.1970   14.0130 N.pl3 347  ARG347      0.1354
    159  NH2       66.1620   11.9480   13.3070 N.pl3 347  ARG347      0.1354
    160  N         66.7080   10.6100    7.1580 N.3   379  TYR379     -0.1241
    161  CA        67.0300   10.7070    8.5830 C.3   379  TYR379      0.1605
    162  C         65.7620   10.8270    9.4310 C.2   379  TYR379      0.2264
    163  O         65.5000   11.8500   10.0630 O.2   379  TYR379     -0.2867
    164  CB        67.9720   11.8880    8.8460 C.3   379  TYR379      0.0534
    165  CG        68.6100   11.8640   10.2200 C.ar  379  TYR379     -0.0201
    166  CD1       69.2280   10.7070   10.6920 C.ar  379  TYR379     -0.0009
    167  CD2       68.5930   12.9880   11.0440 C.ar  379  TYR379     -0.0009
    168  CE1       69.8050   10.6660   11.9620 C.ar  379  TYR379      0.0417
    169  CE2       69.1730   12.9610   12.3140 C.ar  379  TYR379      0.0417
    170  CZ        69.7710   11.7910   12.7660 C.ar  379  TYR379      0.1957
    171  OH        70.3430   11.7470   14.0130 O.3   379  TYR379     -0.2866
    172  N         60.6110   15.0380    5.3200 N.3   405  ARG405     -0.1245
    173  CA        59.8070   14.0130    5.9680 C.3   405  ARG405      0.1563
    174  C         58.4110   14.0950    5.3680 C.2   405  ARG405      0.2260
    175  O         57.4860   14.6340    5.9820 O.2   405  ARG405     -0.2867
    176  CB        59.7730   14.2430    7.4760 C.3   405  ARG405      0.0307
    177  CG        61.1210   14.0120    8.1260 C.3   405  ARG405      0.0489
    178  CD        61.0760   14.2090    9.6260 C.3   405  ARG405      0.2205
    179  NE        62.3340   13.7720   10.2200 N.pl3 405  ARG405     -0.0865
    180  CZ        62.5830   13.7420   11.5250 C.cat 405  ARG405      0.5346
    181  NH1       61.6570   14.1310   12.3930 N.pl3 405  ARG405      0.1354
    182  NH2       63.7590   13.3050   11.9590 N.pl3 405  ARG405      0.1354
    183  N         57.3350    9.2210   11.4930 N.3   436  TYR436     -0.1241
    184  CA        57.3730    7.9120   12.1480 C.3   436  TYR436      0.1605
    185  C         56.1760    7.0280   11.7940 C.2   436  TYR436      0.2264
    186  O         55.0680    7.5180   11.5670 O.2   436  TYR436     -0.2867
    187  CB        57.4530    8.0870   13.6720 C.3   436  TYR436      0.0534
    188  CG        58.7920    8.5950   14.1870 C.ar  436  TYR436     -0.0201
    189  CD1       59.4990    9.5970   13.5140 C.ar  436  TYR436     -0.0009
    190  CD2       59.3290    8.1000   15.3770 C.ar  436  TYR436     -0.0009
    191  CE1       60.7070   10.0920   14.0190 C.ar  436  TYR436      0.0417
    192  CE2       60.5370    8.5880   15.8880 C.ar  436  TYR436      0.0417
    193  CZ        61.2190    9.5780   15.2080 C.ar  436  TYR436      0.1957
    194  OH        62.3980   10.0600   15.7180 O.3   436  TYR436     -0.2866
@<TRIPOS>BOND
     1   172   173    1
     2   174   173    1
     3   174   175    2
     4   173   176    1
     5   160   161    1
     6   176   177    1
     7   177   178    1
     8   161   164    1
     9   161   162    1
    10   164   165    1
    11   162   163    2
    12   178   179    1
    13   165   166   ar
    14   165   167   ar
    15   179   180    2
    16   151   150    1
    17   151   152    2
    18   150   149    1
    19   150   153    1
    20   166   168   ar
    21   167   169   ar
    22   154   153    1
    23   154   155    1
    24   183   184    1
    25   180   182    1
    26   180   181    1
    27   186   185    2
    28   185   184    1
    29   168   170   ar
    30   184   187    1
    31   169   170   ar
    32   155   156    1
    33   156   157    2
    34   170   171    1
    35   157   159    1
    36   157   158    1
    37   189   191   ar
    38   189   188   ar
    39   143   142    2
    40   187   188    1
    41   191   193   ar
    42   188   190   ar
    43   133   134    1
    44   138   137    1
    45   142   141    1
    46   147   146   ar
    47    11     9    1
    48   193   194    1
    49   193   192   ar
    50   139   137    1
    51   190   192   ar
    52   137   134    1
    53   134   135    1
    54   144   141    1
    55   144   145    1
    56   140   141    1
    57   140   135   am
    58   135   136    2
    59     9     8    2
    60     9    10    1
    61   146   145    1
    62   146   148   ar
    63     8     7    1
    64   127   126    2
    65   132   130   am
    66     7     6    1
    67   130   131    2
    68   130   129    1
    69   119   118    2
    70   128   129    1
    71   128   125    1
    72   126   125    1
    73     6     5    1
    74    12    13    1
    75    12     3   am
    76    13    14    1
    77    13    16    1
    78    14    15    2
    79    19    17    1
    80   125   124    1
    81     2     5    1
    82     2     3    1
    83     2     1    1
    84   118   117    1
    85     3     4    2
    86    18    16    1
    87    16    17    1
    88   110   112   ar
    89   110   109   ar
    90   112   114   ar
    91   108   109    1
    92   108   105    1
    93   115   114    1
    94   109   111   ar
    95   114   113   ar
    96   111   113   ar
    97   117   120    1
    98   117   116    1
    99    38    36   ar
   100   120   121    1
   101    92    91   ar
   102    92    90   ar
   103    37    36   ar
   104    91    89   ar
   105   123   121    1
   106    29    28    1
   107    36    35    1
   108   105   104    1
   109   105   106    1
   110   121   122    1
   111    90    88   ar
   112    53    52   ar
   113    28    30    1
   114    28    27    2
   115    54    52   ar
   116    89    87   ar
   117    52    51    1
   118   106   107    2
   119    27    26    1
   120    26    25    1
   121    35    32    1
   122    31    32    1
   123    88    87   ar
   124    51    48    1
   125    87    86    1
   126    32    33    1
   127    48    49    1
   128    48    47    1
   129    81    79    1
   130    25    24    1
   131   102   100   ar
   132   102   103   ar
   133    80    78    1
   134    24    21    1
   135    46    44    1
   136    49    50    2
   137   100    98   ar
   138    23    22    2
   139   103   101   ar
   140    47    41   am
   141    44    43    1
   142    86    83    1
   143    20    21    1
   144    79    78    1
   145    21    22    1
   146    33    34    2
   147    78    75    1
   148    98    97    1
   149    98    99   ar
   150    83    82    1
   151    83    84    1
   152    41    42    2
   153    41    40    1
   154    62    60   ar
   155   101    99   ar
   156    77    76    2
   157    82    76   am
   158    76    75    1
   159    97    94    1
   160    43    40    1
   161    43    45    1
   162    96    95    2
   163    61    60   ar
   164    75    74    1
   165    40    39    1
   166    60    59    1
   167    85    84    2
   168    95    94    1
   169    94    93    1
   170    59    56    1
   171    55    56    1
   172    72    73   ar
   173    72    70   ar
   174    73    71   ar
   175    56    57    1
   176    70    68   ar
   177    71    69   ar
   178    57    58    2
   179    68    69   ar
   180    68    67    1
   181    67    64    1
   182    63    64    1
   183    64    65    1
   184    65    66    2
