@<TRIPOS>MOLECULE
tmp/3h7cA00.pdb
 133 127 0 0 0
SMALL
GASTEIGER

@<TRIPOS>ATOM
      1  N         50.5460   27.6640    8.4600 N.3    34  ASN34      -0.1240
      2  CA        49.8920   28.7950    7.7820 C.3    34  ASN34       0.1653
      3  C         50.8230   29.5100    6.8020 C.2    34  ASN34       0.2266
      4  O         50.3640   30.2440    5.9410 O.2    34  ASN34      -0.2867
      5  CB        49.3430   29.8140    8.7880 C.3    34  ASN34       0.1155
      6  CG        48.1590   30.5870    8.2470 C.2    34  ASN34       0.2627
      7  OD1       47.5180   30.1780    7.2720 O.2    34  ASN34      -0.2716
      8  ND2       47.9030   31.7680    8.8160 N.am   34  ASN34      -0.0877
      9  N         49.3450   33.8070   15.9630 N.3    86  ASP86      -0.1239
     10  CA        49.6640   34.1480   14.5680 C.3    86  ASP86       0.1674
     11  C         49.7800   35.6580   14.4770 C.2    86  ASP86       0.2266
     12  O         49.6580   36.3390   15.5340 O.2    86  ASP86      -0.2867
     13  CB        48.5860   33.5790   13.6030 C.3    86  ASP86       0.1410
     14  CG        49.1000   33.3640   12.1960 C.2    86  ASP86       0.3668
     15  OD1       50.2860   33.6580   11.8650 O.co2  86  ASP86      -0.2456
     16  OD2       48.2420   32.9660   11.3510 O.co2  86  ASP86      -0.2456
     17  N         48.3380   38.6590   12.9330 N.3    88  TRP88      -0.1241
     18  CA        47.3020   39.4250   12.2280 C.3    88  TRP88       0.1605
     19  C         46.8260   40.5380   13.1550 C.2    88  TRP88       0.2264
     20  O         45.7030   40.5240   13.6910 O.2    88  TRP88      -0.2867
     21  CB        46.1420   38.4920   11.8070 C.3    88  TRP88       0.0550
     22  CG        46.6430   37.4100   10.8650 C.ar   88  TRP88       0.0003
     23  CD1       47.0230   36.1490   11.2070 C.ar   88  TRP88       0.0946
     24  CD2       46.9190   37.5550    9.4620 C.ar   88  TRP88       0.0152
     25  NE1       47.5220   35.4880   10.0970 N.ar   88  TRP88      -0.2442
     26  CE2       47.3930   36.2960    9.0020 C.ar   88  TRP88       0.0810
     27  CE3       46.8430   38.6280    8.5640 C.ar   88  TRP88       0.0012
     28  CZ2       47.7110   36.0550    7.6790 C.ar   88  TRP88       0.0191
     29  CZ3       47.1220   38.3860    7.2220 C.ar   88  TRP88       0.0001
     30  CH2       47.5570   37.0960    6.7990 C.ar   88  TRP88       0.0015
     31  N         43.4870   42.3500   13.5950 N.3    91  ASP91      -0.1239
     32  CA        42.3700   41.5660   14.1420 C.3    91  ASP91       0.1674
     33  C         42.5460   41.2550   15.6150 C.2    91  ASP91       0.2266
     34  O         41.5380   41.2410   16.3520 O.2    91  ASP91      -0.2867
     35  CB        42.1490   40.3130   13.3090 C.3    91  ASP91       0.1410
     36  CG        41.6550   40.6060   11.9060 C.2    91  ASP91       0.3668
     37  OD1       41.1910   41.7280   11.6360 O.co2  91  ASP91      -0.2456
     38  OD2       41.6720   39.6690   11.0700 O.co2  91  ASP91      -0.2456
     39  N         38.5880   33.9560   14.4530 N.3   115  TRP115     -0.1241
     40  CA        37.6830   34.0460   13.3060 C.3   115  TRP115      0.1605
     41  C         36.7450   32.8410   13.2280 C.2   115  TRP115      0.2264
     42  O         36.4780   32.3320   12.1100 O.2   115  TRP115     -0.2867
     43  CB        38.4530   34.1750   11.9770 C.3   115  TRP115      0.0550
     44  CG        39.5250   35.2860   12.0120 C.ar  115  TRP115      0.0003
     45  CD1       39.3730   36.5950   11.6640 C.ar  115  TRP115      0.0946
     46  CD2       40.9210   35.1060   12.2870 C.ar  115  TRP115      0.0152
     47  NE1       40.5940   37.2840   11.8280 N.ar  115  TRP115     -0.2442
     48  CE2       41.5490   36.3680   12.1910 C.ar  115  TRP115      0.0810
     49  CE3       41.6720   33.9960   12.7330 C.ar  115  TRP115      0.0012
     50  CZ2       42.9220   36.5570   12.5060 C.ar  115  TRP115      0.0191
     51  CZ3       43.0330   34.1640   13.0340 C.ar  115  TRP115      0.0001
     52  CH2       43.6420   35.4460   12.9260 C.ar  115  TRP115      0.0015
     53  N         40.1780   29.5190   12.5720 N.3   122  CYS122     -0.1221
     54  CA        41.2320   29.2320   11.6320 C.3   122  CYS122      0.1808
     55  C         42.3580   28.4260   12.2460 C.2   122  CYS122      0.2601
     56  O         43.1760   27.8850   11.5050 O.2   122  CYS122     -0.2717
     57  CB        41.7950   30.5250   11.0370 C.3   122  CYS122      0.0970
     58  SG        40.5200   31.4230   10.1100 S.3   122  CYS122     -0.0800
     59  N         42.4480   28.4320   13.5780 N.am  123  TYR123     -0.1976
     60  CA        43.4040   27.5680   14.2700 C.3   123  TYR123      0.1639
     61  C         42.8930   27.2780   15.6550 C.2   123  TYR123      0.2290
     62  O         41.9130   27.9060   16.0940 O.2   123  TYR123     -0.2864
     63  CB        44.8590   28.1080   14.2460 C.3   123  TYR123      0.0560
     64  CG        45.0260   29.5880   14.5400 C.ar  123  TYR123     -0.0198
     65  CD1       45.4590   30.4450   13.5340 C.ar  123  TYR123     -0.0009
     66  CD2       44.8970   30.0780   15.8670 C.ar  123  TYR123     -0.0009
     67  CE1       45.6390   31.8290   13.8000 C.ar  123  TYR123      0.0417
     68  CE2       45.1000   31.4450   16.1400 C.ar  123  TYR123      0.0417
     69  CZ        45.5390   32.2910   15.1030 C.ar  123  TYR123      0.1957
     70  OH        45.7460   33.6190   15.3330 O.3   123  TYR123     -0.2866
     71  N         36.9160   34.9710    0.8370 N.3   206  ASP206     -0.1239
     72  CA        37.2410   35.3370    2.2370 C.3   206  ASP206      0.1674
     73  C         36.2810   34.6440    3.2180 C.2   206  ASP206      0.2266
     74  O         36.0210   35.1500    4.3090 O.2   206  ASP206     -0.2867
     75  CB        37.1210   36.8640    2.3730 C.3   206  ASP206      0.1410
     76  CG        37.8330   37.4340    3.5710 C.2   206  ASP206      0.3668
     77  OD1       38.6580   36.7730    4.2000 O.co2 206  ASP206     -0.2456
     78  OD2       37.6350   38.6390    3.8190 O.co2 206  ASP206     -0.2456
     79  N         36.9850   32.2830    5.1820 N.3   208  ASP208     -0.1225
     80  CA        37.6270   32.0040    6.4470 C.3   208  ASP208      0.1805
     81  C         37.5640   33.1200    7.5080 C.2   208  ASP208      0.2598
     82  O         37.7450   32.8620    8.7070 O.2   208  ASP208     -0.2718
     83  CB        39.1030   31.5640    6.1890 C.3   208  ASP208      0.1424
     84  CG        39.1970   30.1720    5.4910 C.2   208  ASP208      0.3668
     85  OD1       38.4210   29.2490    5.8550 O.co2 208  ASP208     -0.2456
     86  OD2       40.0370   30.0100    4.5990 O.co2 208  ASP208     -0.2456
     87  N         37.4920   34.3890    7.0850 N.am  209  THR209     -0.1953
     88  CA        37.1840   35.4750    8.0470 C.3   209  THR209      0.1897
     89  C         35.6750   35.7200    8.1330 C.2   209  THR209      0.2313
     90  O         35.2310   36.6220    8.8540 O.2   209  THR209     -0.2863
     91  CB        37.8560   36.8440    7.7580 C.3   209  THR209      0.1794
     92  OG1       37.3280   37.3950    6.5350 O.3   209  THR209     -0.2208
     93  CG2       39.3820   36.6920    7.6720 C.3   209  THR209      0.0378
     94  N         35.3040   39.7220    6.0530 N.3   212  HIS212     -0.1241
     95  CA        35.6760   41.0250    6.6050 C.3   212  HIS212      0.1621
     96  C         35.4850   42.2280    5.6950 C.2   212  HIS212      0.2264
     97  O         35.9490   42.2190    4.5280 O.2   212  HIS212     -0.2867
     98  CB        37.1570   41.0090    6.9820 C.3   212  HIS212      0.0745
     99  CG        37.4280   40.5270    8.3690 C.ar  212  HIS212      0.0817
    100  ND1       38.7160   40.5020    8.8750 N.ar  212  HIS212     -0.2268
    101  CD2       36.6180   40.0220    9.3320 C.ar  212  HIS212      0.1154
    102  CE1       38.6710   40.0650   10.1220 C.ar  212  HIS212      0.1986
    103  NE2       37.4100   39.7850   10.4340 N.ar  212  HIS212     -0.2212
    104  N         45.6070   24.4160    3.8500 N.3   287  ARG287     -0.1245
    105  CA        45.8810   25.3440    2.7750 C.3   287  ARG287      0.1563
    106  C         46.1270   24.5350    1.5140 C.2   287  ARG287      0.2260
    107  O         47.1670   23.8820    1.3380 O.2   287  ARG287     -0.2867
    108  CB        47.1070   26.1940    3.1330 C.3   287  ARG287      0.0307
    109  CG        46.9470   27.0790    4.3650 C.3   287  ARG287      0.0489
    110  CD        45.8170   28.0790    4.1430 C.3   287  ARG287      0.2205
    111  NE        45.7560   29.0000    5.2700 N.pl3 287  ARG287     -0.0865
    112  CZ        44.7970   29.8990    5.4310 C.cat 287  ARG287      0.5346
    113  NH1       43.7990   29.9520    4.5390 N.pl3 287  ARG287      0.1354
    114  NH2       44.7670   30.6570    6.5110 N.pl3 287  ARG287      0.1354
    115  N         47.8530   33.1960    3.1730 N.3   346  ALA346     -0.1231
    116  CA        47.4100   32.8540    4.5400 C.3   346  ALA346      0.1694
    117  C         46.1450   33.6260    4.8810 C.2   346  ALA346      0.2593
    118  O         45.7360   33.6420    6.0550 O.2   346  ALA346     -0.2718
    119  CB        48.5310   33.2200    5.5340 C.3   346  ALA346      0.0304
    120  N         45.4970   34.2190    3.8670 N.am  347  GLY347     -0.1942
    121  CA        44.1140   34.7060    3.9920 C.3   347  GLY347      0.2014
    122  C         43.9150   36.1830    4.2410 C.2   347  GLY347      0.2639
    123  O         42.7590   36.6130    4.4750 O.2   347  GLY347     -0.2714
    124  N         44.9830   36.9960    4.1640 N.am  348  GLY348     -0.1954
    125  CA        44.7730   38.4420    4.3560 C.3   348  GLY348      0.1869
    126  C         45.8520   39.2200    3.6640 C.2   348  GLY348      0.2309
    127  O         46.5400   38.6640    2.7710 O.2   348  GLY348     -0.2863
    128  N         45.3900   43.7870    6.9400 N.3   352  CYS352     -0.1235
    129  CA        45.1790   42.7670    7.9820 C.3   352  CYS352      0.1677
    130  C         46.3520   42.6110    8.9250 C.2   352  CYS352      0.2270
    131  O         46.2050   41.9910    9.9930 O.2   352  CYS352     -0.2867
    132  CB        44.9360   41.3950    7.3450 C.3   352  CYS352      0.0956
    133  SG        43.5650   41.3230    6.1920 S.3   352  CYS352     -0.0801
@<TRIPOS>BOND
     1    71    72    1
     2   107   106    2
     3   106   105    1
     4    72    75    1
     5    72    73    1
     6    75    76    1
     7   127   126    2
     8   105   108    1
     9   105   104    1
    10   108   109    1
    11   115   116    1
    12    73    74    2
    13    76    78   ar
    14    76    77   ar
    15   126   125    1
    16   120   121    1
    17   120   117   am
    18   121   122    1
    19   110   109    1
    20   110   111    1
    21   124   122   am
    22   124   125    1
    23   122   123    2
    24    97    96    2
    25   113   112    1
    26   116   117    1
    27   116   119    1
    28    86    84   ar
    29   117   118    2
    30    79    80    1
    31   111   112    2
    32   112   114    1
    33    84    85   ar
    34    84    83    1
    35    96    95    1
    36     4     3    2
    37    94    95    1
    38    83    80    1
    39   133   132    1
    40    80    81    1
    41    92    91    1
    42    95    98    1
    43    30    29   ar
    44    30    28   ar
    45     3     2    1
    46   128   129    1
    47    98    99    1
    48    87    81   am
    49    87    88    1
    50    29    27   ar
    51     7     6    2
    52   132   129    1
    53    81    82    2
    54    93    91    1
    55    28    26   ar
    56    91    88    1
    57     2     1    1
    58     2     5    1
    59   129   130    1
    60    88    89    1
    61    89    90    2
    62     6     5    1
    63     6     8   am
    64    99   100   ar
    65    99   101   ar
    66    27    24   ar
    67   100   102   ar
    68   130   131    2
    69    26    24   ar
    70    26    25   ar
    71   101   103   ar
    72    24    22   ar
    73    25    23   ar
    74    58    57    1
    75   102   103   ar
    76    22    23   ar
    77    22    21    1
    78    57    54    1
    79    38    36   ar
    80    16    14   ar
    81    56    55    2
    82    54    55    1
    83    54    53    1
    84    37    36   ar
    85    45    47   ar
    86    45    44   ar
    87    21    18    1
    88    47    48   ar
    89    15    14   ar
    90    36    35    1
    91    43    44    1
    92    43    40    1
    93    44    46   ar
    94    42    41    2
    95    48    46   ar
    96    48    50   ar
    97    14    13    1
    98    18    17    1
    99    18    19    1
   100    55    59   am
   101    46    49   ar
   102    50    52   ar
   103    49    51   ar
   104    52    51   ar
   105    19    20    2
   106    41    40    1
   107    40    39    1
   108    35    32    1
   109    65    67   ar
   110    65    64   ar
   111    59    60    1
   112    31    32    1
   113    13    10    1
   114    67    69   ar
   115    32    33    1
   116    63    60    1
   117    63    64    1
   118    60    61    1
   119    11    10    1
   120    11    12    2
   121    64    66   ar
   122    10     9    1
   123    69    70    1
   124    69    68   ar
   125    33    34    2
   126    61    62    2
   127    66    68   ar
