@<TRIPOS>MOLECULE
tmp/3h7dB00.pdb
 162 158 0 0 0
SMALL
GASTEIGER

@<TRIPOS>ATOM
      1  N         49.3510   19.8380   54.8980 N.3    19  GLN19      -0.1245
      2  CA        50.7490   19.5760   55.2610 C.3    19  GLN19       0.1566
      3  C         51.2550   20.4790   56.3880 C.2    19  GLN19       0.2260
      4  O         52.2370   20.1590   57.0500 O.2    19  GLN19      -0.2867
      5  CB        51.6650   19.7480   54.0480 C.3    19  GLN19       0.0367
      6  CG        51.7390   21.1900   53.5490 C.3    19  GLN19       0.0905
      7  CD        52.6490   21.3480   52.3550 C.2    19  GLN19       0.2608
      8  OE1       52.2290   21.1700   51.2090 O.2    19  GLN19      -0.2717
      9  NE2       53.9060   21.6910   52.6120 N.am   19  GLN19      -0.0878
     10  N         57.8390   21.5040   55.1150 N.3    23  GLY23      -0.1225
     11  CA        58.0820   21.4530   53.6780 C.3    23  GLY23       0.1811
     12  C         57.9930   20.0290   53.1480 C.2    23  GLY23       0.2280
     13  O         58.9710   19.4810   52.6570 O.2    23  GLY23      -0.2866
     14  N         55.5150   18.7970   50.9200 N.3    25  CYS25      -0.1221
     15  CA        54.5940   18.6670   49.7850 C.3    25  CYS25       0.1808
     16  C         54.9340   17.4210   48.9480 C.2    25  CYS25       0.2601
     17  O         54.0490   16.6990   48.4720 O.2    25  CYS25      -0.2717
     18  CB        54.6370   19.9270   48.9020 C.3    25  CYS25       0.0970
     19  SG        56.2360   20.1950   48.0800 S.3    25  CYS25      -0.0800
     20  N         56.2240   17.1660   48.7850 N.am   26  TRP26      -0.1976
     21  CA        56.6740   16.0090   48.0210 C.3    26  TRP26       0.1640
     22  C         56.1800   14.6730   48.6080 C.2    26  TRP26       0.2290
     23  O         55.9340   13.7120   47.8660 O.2    26  TRP26      -0.2864
     24  CB        58.1980   16.0270   47.9340 C.3    26  TRP26       0.0576
     25  CG        58.8790   15.9240   49.2850 C.ar   26  TRP26       0.0006
     26  CD1       59.2940   16.9550   50.0850 C.ar   26  TRP26       0.0946
     27  CD2       59.2240   14.7160   49.9780 C.ar   26  TRP26       0.0152
     28  NE1       59.8800   16.4610   51.2300 N.ar   26  TRP26      -0.2442
     29  CE2       59.8410   15.0890   51.1930 C.ar   26  TRP26       0.0810
     30  CE3       59.0490   13.3560   49.6990 C.ar   26  TRP26       0.0012
     31  CZ2       60.3020   14.1470   52.1220 C.ar   26  TRP26       0.0191
     32  CZ3       59.5100   12.4140   50.6260 C.ar   26  TRP26       0.0001
     33  CH2       60.1300   12.8200   51.8200 C.ar   26  TRP26       0.0015
     34  N         65.9090    9.0490   53.3510 N.3    58  SER58      -0.1202
     35  CA        67.1490    9.7280   53.6940 C.3    58  SER58       0.2020
     36  C         67.7940   10.4480   52.5040 C.2    58  SER58       0.2619
     37  O         68.6840   11.2620   52.6880 O.2    58  SER58      -0.2717
     38  CB        68.1400    8.7340   54.2930 C.3    58  SER58       0.2103
     39  OG        68.3970    7.6820   53.3770 O.3    58  SER58      -0.2182
     40  N         67.3660   10.1350   51.2860 N.am   59  GLU59      -0.1965
     41  CA        67.8910   10.8300   50.1150 C.3    59  GLU59       0.1733
     42  C         67.2750   12.2360   50.0600 C.2    59  GLU59       0.2616
     43  O         67.8080   13.1350   49.4080 O.2    59  GLU59      -0.2715
     44  CB        67.5890   10.0380   48.8280 C.3    59  GLU59       0.0429
     45  CG        68.5250   10.3470   47.6650 C.3    59  GLU59       0.1163
     46  CD        68.1190    9.6870   46.3380 C.2    59  GLU59       0.3649
     47  OE1       67.1720    8.8610   46.2950 O.co2  59  GLU59      -0.2457
     48  OE2       68.7620   10.0070   45.3140 O.co2  59  GLU59      -0.2457
     49  N         66.1420   12.4070   50.7410 N.am   60  ASN60      -0.1958
     50  CA        65.4930   13.7150   50.8630 C.3    60  ASN60       0.1819
     51  C         65.8900   14.4360   52.1550 C.2    60  ASN60       0.2621
     52  O         66.7380   13.9630   52.9190 O.2    60  ASN60      -0.2715
     53  CB        63.9640   13.5980   50.7710 C.3    60  ASN60       0.1195
     54  CG        63.4720   13.2840   49.3570 C.2    60  ASN60       0.2630
     55  OD1       64.1880   13.4720   48.3730 O.2    60  ASN60      -0.2716
     56  ND2       62.2330   12.8080   49.2570 N.am   60  ASN60      -0.0877
     57  N         65.2670   15.5800   52.3980 N.am   61  ASP61      -0.1971
     58  CA        65.6450   16.4380   53.5130 C.3    61  ASP61       0.1709
     59  C         64.4500   16.7390   54.4360 C.2    61  ASP61       0.2293
     60  O         64.3240   17.8400   54.9640 O.2    61  ASP61      -0.2864
     61  CB        66.2340   17.7440   52.9700 C.3    61  ASP61       0.1436
     62  CG        66.9530   18.5560   54.0380 C.2    61  ASP61       0.3671
     63  OD1       67.6130   17.9480   54.9150 O.co2  61  ASP61      -0.2456
     64  OD2       66.8640   19.8080   53.9920 O.co2  61  ASP61      -0.2456
     65  N         62.5880   20.0790   55.0610 N.3    64  GLY64      -0.1210
     66  CA        63.3370   20.9870   54.2110 C.3    64  GLY64       0.1956
     67  C         63.2500   20.6200   52.7300 C.2    64  GLY64       0.2612
     68  O         64.0010   21.1470   51.9140 O.2    64  GLY64      -0.2717
     69  N         62.3410   19.7140   52.3680 N.am   65  GLY65      -0.1942
     70  CA        62.0760   19.4640   50.9580 C.3    65  GLY65       0.2014
     71  C         62.6410   18.1670   50.4110 C.2    65  GLY65       0.2639
     72  O         63.4210   17.4890   51.0780 O.2    65  GLY65      -0.2714
     73  N         62.2460   17.8190   49.1880 N.am   66  GLY66      -0.1939
     74  CA        62.6280   16.5420   48.6010 C.3    66  GLY66       0.2014
     75  C         61.9870   16.3200   47.2450 C.2    66  GLY66       0.2639
     76  O         61.3610   17.2220   46.6920 O.2    66  GLY66      -0.2714
     77  N         62.1560   15.1140   46.7130 N.am   67  TYR67      -0.1959
     78  CA        61.6340   14.7490   45.4050 C.3    67  TYR67       0.1771
     79  C         60.7930   13.4770   45.5000 C.2    67  TYR67       0.2619
     80  O         61.0730   12.5770   46.3090 O.2    67  TYR67      -0.2715
     81  CB        62.7890   14.5220   44.4100 C.3    67  TYR67       0.0574
     82  CG        63.6150   15.7600   44.1240 C.ar   67  TYR67      -0.0198
     83  CD1       63.1600   16.7280   43.2390 C.ar   67  TYR67      -0.0009
     84  CD2       64.8450   15.9550   44.7270 C.ar   67  TYR67      -0.0009
     85  CE1       63.9070   17.8650   42.9660 C.ar   67  TYR67       0.0417
     86  CE2       65.6020   17.0980   44.4660 C.ar   67  TYR67       0.0417
     87  CZ        65.1240   18.0490   43.5850 C.ar   67  TYR67       0.1957
     88  OH        65.8620   19.1800   43.3160 O.3    67  TYR67      -0.2866
     89  N         59.7730   13.4020   44.6540 N.am   68  MET68      -0.1977
     90  CA        58.9130   12.2270   44.5850 C.3    68  MET68       0.1605
     91  C         59.6250   10.9450   44.1500 C.2    68  MET68       0.2287
     92  O         59.4550    9.9020   44.7720 O.2    68  MET68      -0.2864
     93  CB        57.7040   12.5310   43.7150 C.3    68  MET68       0.0413
     94  CG        56.8210   13.6140   44.3600 C.3    68  MET68       0.0598
     95  SD        57.4020   15.2810   43.9670 S.3    68  MET68      -0.1393
     96  CE        56.5750   15.5070   42.3880 C.3    68  MET68       0.0692
     97  N         62.6710   10.0570   44.5400 N.3    70  ASN70      -0.1240
     98  CA        63.3860    9.5280   45.7110 C.3    70  ASN70       0.1653
     99  C         62.4800    8.7990   46.6870 C.2    70  ASN70       0.2266
    100  O         62.9140    7.8470   47.3410 O.2    70  ASN70      -0.2867
    101  CB        64.1170   10.6260   46.4790 C.3    70  ASN70       0.1155
    102  CG        65.2010   11.2810   45.6600 C.2    70  ASN70       0.2627
    103  OD1       65.4570   10.8870   44.5200 O.2    70  ASN70      -0.2716
    104  ND2       65.8370   12.2890   46.2300 N.am   70  ASN70      -0.0877
    105  N         55.1220   18.4820   39.7400 N.3   134  ALA134     -0.1245
    106  CA        55.5860   19.6980   40.3930 C.3   134  ALA134      0.1562
    107  C         55.2180   20.9180   39.5600 C.2   134  ALA134      0.2260
    108  O         55.2430   20.8630   38.3290 O.2   134  ALA134     -0.2867
    109  CB        57.0690   19.6430   40.6440 C.3   134  ALA134      0.0290
    110  N         60.1970   25.4230   39.6240 N.3   160  LEU160     -0.1231
    111  CA        59.3310   24.5010   40.3500 C.3   160  LEU160      0.1693
    112  C         59.6280   24.5740   41.8430 C.2   160  LEU160      0.2592
    113  O         60.7860   24.6640   42.2420 O.2   160  LEU160     -0.2718
    114  CB        59.5210   23.0580   39.8540 C.3   160  LEU160      0.0284
    115  CG        59.4820   22.7770   38.3490 C.3   160  LEU160      0.0019
    116  CD1       59.6280   21.2900   38.0930 C.3   160  LEU160      0.0001
    117  CD2       58.2170   23.3010   37.7240 C.3   160  LEU160      0.0001
    118  N         58.5910   24.5200   42.6720 N.am  161  ASN161     -0.1960
    119  CA        58.8080   24.6250   44.1160 C.3   161  ASN161      0.1819
    120  C         57.7380   23.9260   44.9430 C.2   161  ASN161      0.2621
    121  O         57.7710   23.9810   46.1660 O.2   161  ASN161     -0.2715
    122  CB        58.8670   26.1020   44.5090 C.3   161  ASN161      0.1195
    123  CG        57.7970   26.9090   43.8080 C.2   161  ASN161      0.2630
    124  OD1       56.6270   26.5230   43.8080 O.2   161  ASN161     -0.2716
    125  ND2       58.1920   28.0110   43.1730 N.am  161  ASN161     -0.0877
    126  N         56.7880   23.2710   44.2790 N.am  162  HIS162     -0.1959
    127  CA        55.6430   22.7000   44.9820 C.3   162  HIS162      0.1787
    128  C         55.0770   21.4740   44.2740 C.2   162  HIS162      0.2620
    129  O         54.5970   21.5520   43.1430 O.2   162  HIS162     -0.2715
    130  CB        54.5470   23.7600   45.1960 C.3   162  HIS162      0.0785
    131  CG        53.4510   23.3200   46.1190 C.ar  162  HIS162      0.0821
    132  ND1       53.6730   23.0060   47.4450 N.ar  162  HIS162     -0.2267
    133  CD2       52.1230   23.1450   45.9130 C.ar  162  HIS162      0.1154
    134  CE1       52.5330   22.6450   48.0100 C.ar  162  HIS162      0.1986
    135  NE2       51.5760   22.7230   47.1030 N.ar  162  HIS162     -0.2212
    136  N         55.1510   20.3310   44.9370 N.am  163  ALA163     -0.1977
    137  CA        54.6210   19.1030   44.3570 C.3   163  ALA163      0.1597
    138  C         53.1380   18.9510   44.7000 C.2   163  ALA163      0.2287
    139  O         52.7150   19.1830   45.8390 O.2   163  ALA163     -0.2864
    140  CB        55.4200   17.8970   44.8420 C.3   163  ALA163      0.0319
    141  N         46.9730   21.7690   50.9910 N.3   184  TRP184     -0.1241
    142  CA        46.7770   22.9580   51.8170 C.3   184  TRP184      0.1605
    143  C         45.4080   22.9730   52.4960 C.2   184  TRP184      0.2264
    144  O         44.8440   24.0330   52.7390 O.2   184  TRP184     -0.2867
    145  CB        46.9410   24.2340   50.9760 C.3   184  TRP184      0.0550
    146  CG        48.3400   24.4960   50.5160 C.ar  184  TRP184      0.0003
    147  CD1       49.4790   23.8600   50.9330 C.ar  184  TRP184      0.0946
    148  CD2       48.7590   25.5000   49.5910 C.ar  184  TRP184      0.0152
    149  NE1       50.5760   24.3970   50.3100 N.ar  184  TRP184     -0.2442
    150  CE2       50.1620   25.4070   49.4820 C.ar  184  TRP184      0.0810
    151  CE3       48.0840   26.4690   48.8390 C.ar  184  TRP184      0.0012
    152  CZ2       50.9010   26.2390   48.6390 C.ar  184  TRP184      0.0191
    153  CZ3       48.8220   27.2960   48.0050 C.ar  184  TRP184      0.0001
    154  CH2       50.2140   27.1810   47.9180 C.ar  184  TRP184      0.0015
    155  N         58.1070   17.9190   35.8850 N.3   209  LEU209     -0.1245
    156  CA        58.6790   16.9420   36.8140 C.3   209  LEU209      0.1561
    157  C         57.6290   15.9630   37.3090 C.2   209  LEU209      0.2260
    158  O         57.4330   15.7860   38.5130 O.2   209  LEU209     -0.2867
    159  CB        59.3500   17.6310   37.9990 C.3   209  LEU209      0.0270
    160  CG        60.1800   16.6750   38.8540 C.3   209  LEU209      0.0019
    161  CD1       61.3660   16.1820   38.0500 C.3   209  LEU209      0.0001
    162  CD2       60.6440   17.3540   40.1250 C.3   209  LEU209      0.0001
@<TRIPOS>BOND
     1   155   156    1
     2   156   157    1
     3   156   159    1
     4   157   158    2
     5   117   115    1
     6   159   160    1
     7   161   160    1
     8   116   115    1
     9   108   107    2
    10   115   114    1
    11   160   162    1
    12   107   106    1
    13   110   111    1
    14   105   106    1
    15   114   111    1
    16   111   112    1
    17   106   109    1
    18   112   113    2
    19   112   118   am
    20    96    95    1
    21   118   119    1
    22    85    83   ar
    23    85    87   ar
    24   129   128    2
    25   125   123   am
    26    83    82   ar
    27    88    87    1
    28    87    86   ar
    29    93    94    1
    30    93    90    1
    31   124   123    2
    32   123   122    1
    33    95    94    1
    34   119   122    1
    35   119   120    1
    36    82    81    1
    37    82    84   ar
    38    91    90    1
    39    91    92    2
    40   128   136   am
    41   128   127    1
    42   126   120   am
    43   126   127    1
    44   137   138    1
    45   137   140    1
    46   137   136    1
    47    81    78    1
    48    86    84   ar
    49   103   102    2
    50    97    98    1
    51    90    89    1
    52    89    79   am
    53   138   139    2
    54   120   121    2
    55   127   130    1
    56   130   131    1
    57    48    46   ar
    58    78    79    1
    59    78    77    1
    60    79    80    2
    61   102   104   am
    62   102   101    1
    63    98   101    1
    64    98    99    1
    65   133   131   ar
    66   133   135   ar
    67   131   132   ar
    68    47    46   ar
    69    46    45    1
    70    99   100    2
    71    76    75    2
    72    77    75   am
    73   135   134   ar
    74    75    74    1
    75   132   134   ar
    76    45    44    1
    77    23    22    2
    78   154   153   ar
    79   154   152   ar
    80    24    21    1
    81    24    25    1
    82   153   151   ar
    83    21    22    1
    84    21    20    1
    85    19    18    1
    86    55    54    2
    87    17    16    2
    88    74    73    1
    89   152   150   ar
    90    20    16   am
    91    44    41    1
    92   151   148   ar
    93    18    15    1
    94    16    15    1
    95    73    71   am
    96    56    54   am
    97    25    27   ar
    98    25    26   ar
    99    54    53    1
   100    43    42    2
   101   150   148   ar
   102   150   149   ar
   103   148   146   ar
   104    30    27   ar
   105    30    32   ar
   106    15    14    1
   107    27    29   ar
   108    42    41    1
   109    42    49   am
   110    26    28   ar
   111    41    40    1
   112   149   147   ar
   113    71    70    1
   114    71    72    2
   115   146   147   ar
   116   146   145    1
   117    32    33   ar
   118    49    50    1
   119    53    50    1
   120    50    51    1
   121    70    69    1
   122   145   142    1
   123   141   142    1
   124    29    28   ar
   125    29    31   ar
   126     8     7    2
   127    40    36   am
   128   142   143    1
   129    33    31   ar
   130    68    67    2
   131    51    57   am
   132    51    52    2
   133     7     9   am
   134     7     6    1
   135    69    67   am
   136    57    58    1
   137   143   144    2
   138    36    37    2
   139    36    35    1
   140    13    12    2
   141    67    66    1
   142    61    58    1
   143    61    62    1
   144    12    11    1
   145    34    35    1
   146    39    38    1
   147    58    59    1
   148     6     5    1
   149    11    10    1
   150    35    38    1
   151    64    62   ar
   152    62    63   ar
   153     5     2    1
   154    66    65    1
   155    59    60    2
   156     1     2    1
   157     2     3    1
   158     3     4    2
