@<TRIPOS>MOLECULE
tmp/3h7dA00.pdb
 116 110 0 0 0
SMALL
GASTEIGER

@<TRIPOS>ATOM
      1  N         33.2300   -6.9290  100.2340 N.3     3  ASP3       -0.1225
      2  CA        33.2360   -8.3890  100.2580 C.3     3  ASP3        0.1805
      3  C         33.6270   -8.9770   98.9140 C.2     3  ASP3        0.2598
      4  O         34.2960  -10.0110   98.8410 O.2     3  ASP3       -0.2718
      5  CB        31.8680   -8.9320  100.6710 C.3     3  ASP3        0.1424
      6  CG        31.6250   -8.8100  102.1570 C.2     3  ASP3        0.3668
      7  OD1       32.6020   -8.5360  102.8950 O.co2   3  ASP3       -0.2456
      8  OD2       30.4620   -8.9910  102.5830 O.co2   3  ASP3       -0.2456
      9  N         33.1840   -8.3190   97.8510 N.am    4  SER4       -0.1952
     10  CA        33.5790   -8.7050   96.5090 C.3     4  SER4        0.1924
     11  C         33.7750   -7.4700   95.6470 C.2     4  SER4        0.2314
     12  O         33.2450   -6.4030   95.9450 O.2     4  SER4       -0.2863
     13  CB        32.5350   -9.6290   95.8880 C.3     4  SER4        0.2116
     14  OG        31.2380   -9.1220   96.1070 O.3     4  SER4       -0.2180
     15  N         35.6050   -6.0170   85.7710 N.3     8  ARG8       -0.1245
     16  CA        34.9340   -6.2220   84.4930 C.3     8  ARG8        0.1563
     17  C         33.5720   -5.5270   84.5000 C.2     8  ARG8        0.2260
     18  O         33.1360   -4.9940   83.4790 O.2     8  ARG8       -0.2867
     19  CB        34.7260   -7.7030   84.2090 C.3     8  ARG8        0.0307
     20  CG        35.9840   -8.5150   84.0620 C.3     8  ARG8        0.0489
     21  CD        35.6240   -9.9920   83.9550 C.3     8  ARG8        0.2205
     22  NE        34.8760  -10.4370   85.1300 N.pl3   8  ARG8       -0.0865
     23  CZ        34.5480  -11.7010   85.3770 C.cat   8  ARG8        0.5346
     24  NH1       34.8840  -12.6570   84.5250 N.pl3   8  ARG8        0.1354
     25  NH2       33.8760  -12.0040   86.4800 N.pl3   8  ARG8        0.1354
     26  N         35.4960  -24.3070   84.5240 N.3   147  LYS147     -0.1231
     27  CA        34.5990  -23.5350   85.3840 C.3   147  LYS147      0.1693
     28  C         34.8060  -23.8250   86.8700 C.2   147  LYS147      0.2593
     29  O         35.4760  -24.7830   87.2340 O.2   147  LYS147     -0.2718
     30  CB        33.1430  -23.8200   85.0170 C.3   147  LYS147      0.0285
     31  CG        32.7220  -25.2430   85.3160 C.3   147  LYS147      0.0035
     32  CD        31.4970  -25.6510   84.5050 C.3   147  LYS147      0.0206
     33  CE        31.2380  -27.1530   84.6150 C.3   147  LYS147      0.1093
     34  NZ        29.9720  -27.5650   83.9380 N.3   147  LYS147     -0.1314
     35  N         34.2120  -22.9940   87.7250 N.am  148  GLY148     -0.1942
     36  CA        34.2980  -23.1860   89.1620 C.3   148  GLY148      0.2014
     37  C         35.5160  -22.5520   89.8180 C.2   148  GLY148      0.2638
     38  O         36.3380  -21.8940   89.1700 O.2   148  GLY148     -0.2714
     39  N         35.6270  -22.7370   91.1280 N.am  149  VAL149     -0.1977
     40  CA        36.7770  -22.2380   91.8630 C.3   149  VAL149      0.1596
     41  C         37.9260  -23.2410   91.7810 C.2   149  VAL149      0.2287
     42  O         37.8200  -24.3700   92.2790 O.2   149  VAL149     -0.2864
     43  CB        36.4140  -21.9490   93.3190 C.3   149  VAL149      0.0276
     44  CG1       37.6550  -21.5830   94.1220 C.3   149  VAL149      0.0022
     45  CG2       35.3680  -20.8500   93.3720 C.3   149  VAL149      0.0022
     46  N         33.3080  -14.9310   96.0370 N.3   171  GLU171     -0.1231
     47  CA        33.0310  -16.2090   96.6750 C.3   171  GLU171      0.1699
     48  C         31.9370  -16.9580   95.9110 C.2   171  GLU171      0.2593
     49  O         30.8890  -16.3920   95.6030 O.2   171  GLU171     -0.2718
     50  CB        32.6140  -15.9930   98.1290 C.3   171  GLU171      0.0402
     51  CG        32.3810  -17.2790   98.9030 C.3   171  GLU171      0.1161
     52  CD        31.8980  -17.0170  100.3150 C.2   171  GLU171      0.3649
     53  OE1       31.0960  -17.8220  100.8350 O.co2 171  GLU171     -0.2457
     54  OE2       32.3130  -15.9970  100.9030 O.co2 171  GLU171     -0.2457
     55  N         32.2020  -18.2240   95.5900 N.am  172  SER172     -0.1938
     56  CA        31.2450  -19.0900   94.9030 C.3   172  SER172      0.2055
     57  C         31.1290  -20.3990   95.6750 C.2   172  SER172      0.2643
     58  O         32.1500  -21.0100   96.0050 O.2   172  SER172     -0.2714
     59  CB        31.7220  -19.4120   93.4850 C.3   172  SER172      0.2130
     60  OG        31.5630  -18.3260   92.5960 O.3   172  SER172     -0.2179
     61  N         29.8970  -20.8320   95.9480 N.am  173  LYS173     -0.1963
     62  CA        29.6450  -22.0700   96.6940 C.3   173  LYS173      0.1728
     63  C         30.4100  -22.1170   98.0040 C.2   173  LYS173      0.2616
     64  O         31.0100  -23.1420   98.3410 O.2   173  LYS173     -0.2715
     65  CB        30.0510  -23.3090   95.8850 C.3   173  LYS173      0.0311
     66  CG        29.4210  -23.4600   94.5270 C.3   173  LYS173      0.0038
     67  CD        29.5500  -24.9030   94.0730 C.3   173  LYS173      0.0206
     68  CE        29.6520  -25.0040   92.5610 C.3   173  LYS173      0.1093
     69  NZ        30.9280  -24.4090   92.0550 N.3   173  LYS173     -0.1314
     70  N         30.4240  -21.0120   98.7300 N.am  174  GLY174     -0.1955
     71  CA        31.1690  -20.9560   99.9730 C.3   174  GLY174      0.1869
     72  C         32.6800  -20.9870   99.8180 C.2   174  GLY174      0.2309
     73  O         33.4010  -20.9750  100.8140 O.2   174  GLY174     -0.2863
     74  N         37.4470  -16.8070   96.2460 N.3   177  HIS177     -0.1241
     75  CA        38.2690  -16.8580   95.0560 C.3   177  HIS177      0.1621
     76  C         38.7970  -15.4980   94.6070 C.2   177  HIS177      0.2264
     77  O         38.3770  -14.4630   95.1280 O.2   177  HIS177     -0.2867
     78  CB        37.4870  -17.5160   93.9250 C.3   177  HIS177      0.0745
     79  CG        36.2620  -16.7610   93.5220 C.ar  177  HIS177      0.0817
     80  ND1       36.3190  -15.5130   92.9390 N.ar  177  HIS177     -0.2268
     81  CD2       34.9470  -17.0790   93.6090 C.ar  177  HIS177      0.1154
     82  CE1       35.0920  -15.1010   92.6730 C.ar  177  HIS177      0.1986
     83  NE2       34.2420  -16.0350   93.0640 N.ar  177  HIS177     -0.2212
     84  N         36.5360  -19.8910   81.7180 N.3   190  MET190     -0.1230
     85  CA        35.2430  -19.2210   81.6640 C.3   190  MET190      0.1702
     86  C         35.3790  -17.9180   80.8950 C.2   190  MET190      0.2592
     87  O         35.5490  -16.8600   81.5000 O.2   190  MET190     -0.2718
     88  CB        34.7370  -18.9100   83.0720 C.3   190  MET190      0.0401
     89  CG        34.2790  -20.1180   83.8490 C.3   190  MET190      0.0596
     90  SD        33.3170  -19.6670   85.3070 S.3   190  MET190     -0.1393
     91  CE        34.6160  -19.2400   86.4410 C.3   190  MET190      0.0692
     92  N         35.3030  -17.9970   79.5710 N.am  191  GLY191     -0.1957
     93  CA        35.4800  -16.8270   78.7280 C.3   191  GLY191      0.1869
     94  C         36.8690  -16.2150   78.8530 C.2   191  GLY191      0.2309
     95  O         37.0250  -15.0090   78.7420 O.2   191  GLY191     -0.2863
     96  N         38.7190  -16.4560   81.5260 N.3   193  TYR193     -0.1241
     97  CA        38.9180  -16.1850   82.9520 C.3   193  TYR193      0.1605
     98  C         38.9740  -17.4390   83.8190 C.2   193  TYR193      0.2264
     99  O         38.5520  -18.5370   83.4180 O.2   193  TYR193     -0.2867
    100  CB        37.8030  -15.2800   83.4930 C.3   193  TYR193      0.0534
    101  CG        37.8770  -13.8540   82.9950 C.ar  193  TYR193     -0.0201
    102  CD1       37.3000  -13.4870   81.7810 C.ar  193  TYR193     -0.0009
    103  CD2       38.5220  -12.8680   83.7450 C.ar  193  TYR193     -0.0009
    104  CE1       37.3740  -12.1680   81.3190 C.ar  193  TYR193      0.0417
    105  CE2       38.5870  -11.5580   83.3060 C.ar  193  TYR193      0.0417
    106  CZ        38.0210  -11.2140   82.0860 C.ar  193  TYR193      0.1957
    107  OH        38.0990   -9.9070   81.6490 O.3   193  TYR193     -0.2866
    108  N         38.4540  -18.4250   88.1820 N.3   195  LYS195     -0.1245
    109  CA        38.3460  -18.1320   89.6080 C.3   195  LYS195      0.1561
    110  C         39.3260  -19.0200   90.3490 C.2   195  LYS195      0.2260
    111  O         39.2340  -20.2390   90.2750 O.2   195  LYS195     -0.2867
    112  CB        36.9410  -18.4320   90.1310 C.3   195  LYS195      0.0271
    113  CG        35.8030  -17.6750   89.4660 C.3   195  LYS195      0.0035
    114  CD        34.4680  -18.1730   90.0520 C.3   195  LYS195      0.0206
    115  CE        33.2710  -17.4100   89.5330 C.3   195  LYS195      0.1093
    116  NZ        32.0210  -18.1880   89.7760 N.3   195  LYS195     -0.1314
@<TRIPOS>BOND
     1    93    94    1
     2    93    92    1
     3    95    94    2
     4    92    86   am
     5    86    87    2
     6    86    85    1
     7   104   102   ar
     8   104   106   ar
     9    96    97    1
    10   107   106    1
    11    85    84    1
    12    85    88    1
    13   102   101   ar
    14   106   105   ar
    15    97   100    1
    16    97    98    1
    17   101   100    1
    18   101   103   ar
    19    88    89    1
    20   105   103   ar
    21    99    98    2
    22    18    17    2
    23    89    90    1
    24    34    33    1
    25    21    20    1
    26    21    22    1
    27    20    19    1
    28    19    16    1
    29    16    17    1
    30    16    15    1
    31    32    33    1
    32    32    31    1
    33    26    27    1
    34    24    23    1
    35    30    31    1
    36    30    27    1
    37    22    23    2
    38    90    91    1
    39    23    25    1
    40    27    28    1
    41    28    29    2
    42    28    35   am
    43    35    36    1
    44   108   109    1
    45    36    37    1
    46    38    37    2
    47   113   114    1
    48   113   112    1
    49   115   116    1
    50   115   114    1
    51   109   112    1
    52   109   110    1
    53    37    39   am
    54   111   110    2
    55    39    40    1
    56    41    40    1
    57    41    42    2
    58    40    43    1
    59    69    68    1
    60    68    67    1
    61    60    59    1
    62    82    80   ar
    63    82    83   ar
    64    80    79   ar
    65    83    81   ar
    66    43    45    1
    67    43    44    1
    68    59    56    1
    69    79    81   ar
    70    79    78    1
    71    78    75    1
    72    67    66    1
    73    66    65    1
    74    76    75    1
    75    76    77    2
    76    56    55    1
    77    56    57    1
    78    75    74    1
    79    55    48   am
    80    49    48    2
    81    11    12    2
    82    11    10    1
    83    57    61   am
    84    57    58    2
    85    65    62    1
    86    13    14    1
    87    13    10    1
    88    48    47    1
    89    61    62    1
    90    46    47    1
    91    10     9    1
    92    47    50    1
    93    62    63    1
    94     9     3   am
    95    63    64    2
    96    63    70   am
    97    50    51    1
    98    70    71    1
    99     4     3    2
   100    51    52    1
   101     3     2    1
   102    72    71    1
   103    72    73    2
   104     1     2    1
   105     2     5    1
   106    52    53   ar
   107    52    54   ar
   108     5     6    1
   109     6     8   ar
   110     6     7   ar
