@<TRIPOS>MOLECULE
tmp/3h7jB00.pdb
 173 163 0 0 0
SMALL
GASTEIGER

@<TRIPOS>ATOM
      1  N         50.2220  -44.9930   26.1080 N.3   130  LEU130     -0.1245
      2  CA        51.0350  -43.8750   25.7710 C.3   130  LEU130      0.1561
      3  C         51.9770  -43.5060   26.9500 C.2   130  LEU130      0.2260
      4  O         53.1480  -43.1690   26.7400 O.2   130  LEU130     -0.2867
      5  CB        50.0820  -42.7390   25.4390 C.3   130  LEU130      0.0270
      6  CG        50.7850  -41.4560   25.0130 C.3   130  LEU130      0.0019
      7  CD1       51.7750  -41.7180   23.8650 C.3   130  LEU130      0.0001
      8  CD2       49.7460  -40.3900   24.6580 C.3   130  LEU130      0.0001
      9  N         47.7250  -45.0770   30.7580 N.3   134  MET134     -0.1245
     10  CA        46.9840  -44.2610   29.7890 C.3   134  MET134      0.1570
     11  C         46.8630  -44.9680   28.4230 C.2   134  MET134      0.2261
     12  O         47.7620  -44.8510   27.5750 O.2   134  MET134     -0.2867
     13  CB        47.5910  -42.8550   29.6300 C.3   134  MET134      0.0387
     14  CG        46.9430  -42.0510   28.4670 C.3   134  MET134      0.0595
     15  SD        47.6300  -40.3860   28.5300 S.3   134  MET134     -0.1393
     16  CE        46.9600  -39.5070   27.1250 C.3   134  MET134      0.0692
     17  N         44.1300  -40.0810   17.8280 N.3   147  MET147     -0.1245
     18  CA        44.5360  -40.8760   18.9800 C.3   147  MET147      0.1570
     19  C         43.4080  -40.8210   19.9660 C.2   147  MET147      0.2261
     20  O         43.1520  -39.7690   20.5360 O.2   147  MET147     -0.2867
     21  CB        45.7780  -40.2860   19.6650 C.3   147  MET147      0.0387
     22  CG        46.3780  -41.2050   20.6610 C.3   147  MET147      0.0595
     23  SD        47.8620  -40.4900   21.4280 S.3   147  MET147     -0.1393
     24  CE        47.1680  -39.1090   22.3440 C.3   147  MET147      0.0692
     25  N         42.2770  -41.4080   23.5920 N.3   149  ALA149     -0.1245
     26  CA        43.0750  -41.5490   24.8090 C.3   149  ALA149      0.1562
     27  C         42.1670  -41.7810   25.9790 C.2   149  ALA149      0.2260
     28  O         41.2050  -41.0700   26.1080 O.2   149  ALA149     -0.2867
     29  CB        43.8670  -40.2370   25.0630 C.3   149  ALA149      0.0290
     30  N         42.3330  -41.2520   30.0270 N.3   151  ILE151     -0.1245
     31  CA        43.1100  -40.7440   31.1590 C.3   151  ILE151      0.1561
     32  C         42.4530  -41.2160   32.4510 C.2   151  ILE151      0.2260
     33  O         41.2620  -40.9450   32.6570 O.2   151  ILE151     -0.2867
     34  CB        43.2290  -39.1870   31.1540 C.3   151  ILE151      0.0252
     35  CG1       43.8480  -38.6870   29.8190 C.3   151  ILE151      0.0019
     36  CG2       44.0870  -38.7200   32.3140 C.3   151  ILE151      0.0019
     37  CD1       43.8010  -37.1330   29.6210 C.3   151  ILE151      0.0001
     38  N         48.5270  -36.1760   31.5860 N.3   158  MET158     -0.1245
     39  CA        49.4240  -35.8480   30.5000 C.3   158  MET158      0.1570
     40  C         50.2800  -34.6720   30.9690 C.2   158  MET158      0.2261
     41  O         49.7470  -33.5620   31.0510 O.2   158  MET158     -0.2867
     42  CB        48.6500  -35.4600   29.2070 C.3   158  MET158      0.0387
     43  CG        49.5850  -35.1560   27.9920 C.3   158  MET158      0.0595
     44  SD        51.0710  -36.2140   27.8410 S.3   158  MET158     -0.1393
     45  CE        50.4590  -37.5740   26.7980 C.3   158  MET158      0.0692
     46  N         53.4360  -30.0520   28.0260 N.3   161  HIS161     -0.1241
     47  CA        54.4850  -30.1460   27.0320 C.3   161  HIS161      0.1621
     48  C         54.1450  -29.3540   25.7650 C.2   161  HIS161      0.2264
     49  O         53.0180  -28.8060   25.6360 O.2   161  HIS161     -0.2867
     50  CB        54.6520  -31.6260   26.6630 C.3   161  HIS161      0.0745
     51  CG        53.4250  -32.2240   26.0270 C.ar  161  HIS161      0.0817
     52  ND1       52.3310  -32.6510   26.7520 N.ar  161  HIS161     -0.2268
     53  CD2       53.1030  -32.4100   24.7270 C.ar  161  HIS161      0.1154
     54  CE1       51.3940  -33.0760   25.9240 C.ar  161  HIS161      0.1986
     55  NE2       51.8420  -32.9510   24.6920 N.ar  161  HIS161     -0.2212
     56  N         54.9470  -29.4510   21.1330 N.3   163  HIS163     -0.1241
     57  CA        55.5950  -30.1960   20.0600 C.3   163  HIS163      0.1621
     58  C         55.2700  -29.4610   18.7500 C.2   163  HIS163      0.2264
     59  O         54.3820  -28.6160   18.7510 O.2   163  HIS163     -0.2867
     60  CB        55.1140  -31.6680   20.0610 C.3   163  HIS163      0.0745
     61  CG        53.6590  -31.8450   20.4150 C.ar  163  HIS163      0.0817
     62  ND1       52.6470  -31.2550   19.6910 N.ar  163  HIS163     -0.2268
     63  CD2       53.0460  -32.5890   21.3740 C.ar  163  HIS163      0.1154
     64  CE1       51.4740  -31.6120   20.1860 C.ar  163  HIS163      0.1986
     65  NE2       51.6810  -32.4320   21.2070 N.ar  163  HIS163     -0.2212
     66  N         47.5850  -29.8750   17.2800 N.3   167  GLN167     -0.1245
     67  CA        46.8420  -30.8880   18.0190 C.3   167  GLN167      0.1566
     68  C         45.5070  -30.3500   18.4280 C.2   167  GLN167      0.2260
     69  O         45.4100  -29.2990   19.0930 O.2   167  GLN167     -0.2867
     70  CB        47.6210  -31.3830   19.2460 C.3   167  GLN167      0.0367
     71  CG        46.9780  -32.5690   19.9070 C.3   167  GLN167      0.0905
     72  CD        47.6800  -32.8740   21.2400 C.2   167  GLN167      0.2608
     73  OE1       48.9130  -32.9100   21.2890 O.2   167  GLN167     -0.2717
     74  NE2       46.8970  -33.0760   22.3190 N.am  167  GLN167     -0.0878
     75  N         37.7630  -33.6690   32.7000 N.3   176  TYR176     -0.1241
     76  CA        39.1370  -33.5530   33.1640 C.3   176  TYR176      0.1605
     77  C         39.5160  -32.1360   32.8520 C.2   176  TYR176      0.2264
     78  O         38.7930  -31.4300   32.1140 O.2   176  TYR176     -0.2867
     79  CB        40.1190  -34.4840   32.4080 C.3   176  TYR176      0.0534
     80  CG        40.1720  -34.3090   30.8870 C.ar  176  TYR176     -0.0201
     81  CD1       39.2030  -34.8920   30.0850 C.ar  176  TYR176     -0.0009
     82  CD2       41.1810  -33.5980   30.2600 C.ar  176  TYR176     -0.0009
     83  CE1       39.2200  -34.7570   28.7130 C.ar  176  TYR176      0.0417
     84  CE2       41.1910  -33.4380   28.8470 C.ar  176  TYR176      0.0417
     85  CZ        40.1820  -34.0390   28.1070 C.ar  176  TYR176      0.1957
     86  OH        40.1040  -33.9950   26.7420 O.3   176  TYR176     -0.2866
     87  N         41.8410  -29.4820   31.1860 N.3   178  MET178     -0.1245
     88  CA        42.7730  -29.3990   30.0730 C.3   178  MET178      0.1570
     89  C         43.3510  -27.9710   30.1360 C.2   178  MET178      0.2261
     90  O         42.6150  -27.0080   30.3700 O.2   178  MET178     -0.2867
     91  CB        42.0160  -29.5650   28.7400 C.3   178  MET178      0.0387
     92  CG        42.8670  -29.1830   27.5180 C.3   178  MET178      0.0595
     93  SD        43.6020  -30.6650   26.8880 S.3   178  MET178     -0.1393
     94  CE        44.6570  -30.1650   25.4660 C.3   178  MET178      0.0692
     95  N         39.2090  -28.5750   22.0230 N.3   193  TYR193     -0.1241
     96  CA        40.4050  -27.7290   22.1820 C.3   193  TYR193      0.1605
     97  C         41.2180  -27.7020   20.8710 C.2   193  TYR193      0.2264
     98  O         41.2280  -28.6720   20.0820 O.2   193  TYR193     -0.2867
     99  CB        41.2590  -28.2030   23.3730 C.3   193  TYR193      0.0534
    100  CG        42.0170  -29.4740   23.0810 C.ar  193  TYR193     -0.0201
    101  CD1       43.1960  -29.4530   22.3170 C.ar  193  TYR193     -0.0009
    102  CD2       41.5150  -30.6850   23.4910 C.ar  193  TYR193     -0.0009
    103  CE1       43.8630  -30.6180   22.0030 C.ar  193  TYR193      0.0417
    104  CE2       42.1730  -31.8530   23.1710 C.ar  193  TYR193      0.0417
    105  CZ        43.3650  -31.8070   22.4540 C.ar  193  TYR193      0.1957
    106  OH        44.0260  -32.9720   22.1550 O.3   193  TYR193     -0.2866
    107  N         50.6020  -27.5700   26.4640 N.3   201  HIS201     -0.1226
    108  CA        49.3240  -28.1260   26.8640 C.3   201  HIS201      0.1752
    109  C         49.5000  -29.4060   27.7030 C.2   201  HIS201      0.2597
    110  O         50.5540  -30.0590   27.6840 O.2   201  HIS201     -0.2718
    111  CB        48.4150  -28.3820   25.5890 C.3   201  HIS201      0.0759
    112  CG        49.0410  -29.3100   24.5930 C.ar  201  HIS201      0.0818
    113  ND1       49.9500  -28.8840   23.6520 N.ar  201  HIS201     -0.2268
    114  CD2       48.9070  -30.6480   24.4140 C.ar  201  HIS201      0.1154
    115  CE1       50.3310  -29.9190   22.9220 C.ar  201  HIS201      0.1986
    116  NE2       49.7230  -30.9990   23.3730 N.ar  201  HIS201     -0.2212
    117  N         48.4560  -29.7730   28.4260 N.am  202  GLY202     -0.1942
    118  CA        48.4890  -30.9470   29.2800 C.3   202  GLY202      0.2014
    119  C         47.1190  -31.1230   29.9080 C.2   202  GLY202      0.2638
    120  O         46.2100  -30.3170   29.7130 O.2   202  GLY202     -0.2714
    121  N         46.9890  -32.1390   30.7290 N.am  203  ALA203     -0.1977
    122  CA        45.6820  -32.5650   31.0940 C.3   203  ALA203      0.1597
    123  C         45.8830  -33.2830   32.3850 C.2   203  ALA203      0.2287
    124  O         46.8800  -33.9980   32.5460 O.2   203  ALA203     -0.2864
    125  CB        45.1000  -33.5200   29.9870 C.3   203  ALA203      0.0319
    126  N         39.0800  -39.0310   25.3730 N.3   213  SER213     -0.1217
    127  CA        39.1750  -37.9120   24.4590 C.3   213  SER213      0.1889
    128  C         39.6460  -38.4510   23.0940 C.2   213  SER213      0.2288
    129  O         40.2200  -39.5740   22.9900 O.2   213  SER213     -0.2866
    130  CB        40.1220  -36.8390   24.9840 C.3   213  SER213      0.2089
    131  OG        41.3520  -37.4140   25.3160 O.3   213  SER213     -0.2183
    132  N         41.9730  -37.0800   20.1330 N.3   215  ASN215     -0.1240
    133  CA        43.0290  -36.1060   19.9460 C.3   215  ASN215      0.1653
    134  C         43.6130  -36.3010   18.5550 C.2   215  ASN215      0.2266
    135  O         43.9560  -37.4060   18.2000 O.2   215  ASN215     -0.2867
    136  CB        44.1060  -36.3760   21.0110 C.3   215  ASN215      0.1155
    137  CG        43.5180  -36.3110   22.4040 C.2   215  ASN215      0.2627
    138  OD1       43.1720  -35.2420   22.8430 O.2   215  ASN215     -0.2716
    139  ND2       43.2840  -37.4790   23.0430 N.am  215  ASN215     -0.0877
    140  N         46.4030  -35.2490   15.6330 N.3   217  PHE217     -0.1241
    141  CA        47.7310  -34.6850   15.3730 C.3   217  PHE217      0.1605
    142  C         47.9170  -34.3890   13.8830 C.2   217  PHE217      0.2264
    143  O         47.7640  -35.2660   13.0330 O.2   217  PHE217     -0.2867
    144  CB        48.7830  -35.6940   15.8300 C.3   217  PHE217      0.0534
    145  CG        48.7910  -35.9110   17.3080 C.ar  217  PHE217     -0.0203
    146  CD1       49.5450  -35.0700   18.1410 C.ar  217  PHE217     -0.0042
    147  CD2       48.0530  -36.9120   17.8690 C.ar  217  PHE217     -0.0042
    148  CE1       49.5490  -35.2680   19.4890 C.ar  217  PHE217     -0.0003
    149  CE2       48.0530  -37.1150   19.2220 C.ar  217  PHE217     -0.0003
    150  CZ        48.8060  -36.2880   20.0380 C.ar  217  PHE217     -0.0000
    151  N         52.3380  -37.8390   14.9980 N.3   221  ARG221     -0.1231
    152  CA        53.3600  -37.6280   15.9750 C.3   221  ARG221      0.1694
    153  C         53.9290  -38.9770   16.4190 C.2   221  ARG221      0.2592
    154  O         55.1360  -39.1110   16.5340 O.2   221  ARG221     -0.2718
    155  CB        52.7880  -36.8680   17.1770 C.3   221  ARG221      0.0321
    156  CG        53.7140  -36.8870   18.4150 C.3   221  ARG221      0.0489
    157  CD        53.2680  -35.9140   19.4630 C.3   221  ARG221      0.2205
    158  NE        54.0810  -35.9490   20.6920 N.pl3 221  ARG221     -0.0865
    159  CZ        55.3010  -35.4340   20.7920 C.cat 221  ARG221      0.5346
    160  NH1       55.8980  -34.8890   19.7330 N.pl3 221  ARG221      0.1354
    161  NH2       55.9560  -35.4930   21.9400 N.pl3 221  ARG221      0.1354
    162  N         53.0730  -39.9580   16.6900 N.am  222  TYR222     -0.1976
    163  CA        53.5240  -41.2620   17.2380 C.3   222  TYR222      0.1639
    164  C         53.8670  -42.3440   16.2220 C.2   222  TYR222      0.2290
    165  O         54.8790  -43.0620   16.3850 O.2   222  TYR222     -0.2864
    166  CB        52.5420  -41.7960   18.2980 C.3   222  TYR222      0.0560
    167  CG        52.4520  -40.8000   19.4310 C.ar  222  TYR222     -0.0198
    168  CD1       53.4910  -40.7320   20.3670 C.ar  222  TYR222     -0.0009
    169  CD2       51.3920  -39.9070   19.5230 C.ar  222  TYR222     -0.0009
    170  CE1       53.4950  -39.7980   21.3870 C.ar  222  TYR222      0.0417
    171  CE2       51.3730  -38.9380   20.5800 C.ar  222  TYR222      0.0417
    172  CZ        52.4410  -38.9020   21.5040 C.ar  222  TYR222      0.1957
    173  OH        52.4570  -37.9940   22.5560 O.3   222  TYR222     -0.2866
@<TRIPOS>BOND
     1   143   142    2
     2   142   141    1
     3   151   152    1
     4   141   140    1
     5   141   144    1
     6   144   145    1
     7   152   153    1
     8   152   155    1
     9   164   165    2
    10   164   163    1
    11   153   154    2
    12   153   162   am
    13   162   163    1
    14   155   156    1
    15   163   166    1
    16    66    67    1
    17   145   147   ar
    18   145   146   ar
    19    17    18    1
    20   147   149   ar
    21    67    68    1
    22    67    70    1
    23   146   148   ar
    24   135   134    2
    25   166   167    1
    26   156   157    1
    27    68    69    2
    28   134   133    1
    29    58    59    2
    30    58    57    1
    31    18    21    1
    32    18    19    1
    33   149   150   ar
    34    70    71    1
    35   167   169   ar
    36   167   168   ar
    37   157   158    1
    38   148   150   ar
    39   169   171   ar
    40    21    22    1
    41    62    64   ar
    42    62    61   ar
    43   160   159    1
    44    71    72    1
    45   133   132    1
    46   133   136    1
    47    19    20    2
    48    57    60    1
    49    57    56    1
    50    60    61    1
    51    98    97    2
    52    64    65   ar
    53   168   170   ar
    54    61    63   ar
    55   171   172   ar
    56    22    23    1
    57   158   159    2
    58   159   161    1
    59    97    96    1
    60   136   137    1
    61    65    63   ar
    62    72    73    2
    63    72    74   am
    64   170   172   ar
    65    23    24    1
    66   172   173    1
    67   103   101   ar
    68   103   105   ar
    69    95    96    1
    70   106   105    1
    71    96    99    1
    72   101   100   ar
    73   137   138    2
    74   137   139   am
    75   105   104   ar
    76   115   116   ar
    77   115   113   ar
    78   129   128    2
    79   100    99    1
    80   100   102   ar
    81   128   127    1
    82   104   102   ar
    83   116   114   ar
    84    25    26    1
    85   113   112   ar
    86     7     6    1
    87   114   112   ar
    88   127   130    1
    89   127   126    1
    90   112   111    1
    91     8     6    1
    92    55    53   ar
    93    55    54   ar
    94    53    51   ar
    95    26    29    1
    96    26    27    1
    97   130   131    1
    98     6     5    1
    99     5     2    1
   100    94    93    1
   101   111   108    1
   102    49    48    2
   103    48    47    1
   104     2     1    1
   105     2     3    1
   106    54    52   ar
   107    27    28    2
   108    51    50    1
   109    51    52   ar
   110   107   108    1
   111    50    47    1
   112     4     3    2
   113    86    85    1
   114    45    44    1
   115   108   109    1
   116    93    92    1
   117    47    46    1
   118    16    15    1
   119    92    91    1
   120    12    11    2
   121   110   109    2
   122   109   117   am
   123    44    43    1
   124    43    42    1
   125    85    83   ar
   126    85    84   ar
   127    11    10    1
   128   117   118    1
   129    14    15    1
   130    14    13    1
   131    83    81   ar
   132    91    88    1
   133    84    82   ar
   134    42    39    1
   135   118   119    1
   136    37    35    1
   137    13    10    1
   138   120   119    2
   139    10     9    1
   140    35    34    1
   141   119   121   am
   142   125   122    1
   143    30    31    1
   144    88    89    1
   145    88    87    1
   146    81    80   ar
   147    89    90    2
   148    82    80   ar
   149    39    40    1
   150    39    38    1
   151   121   122    1
   152    80    79    1
   153    40    41    2
   154   122   123    1
   155    34    31    1
   156    34    36    1
   157    31    32    1
   158    78    77    2
   159   123   124    2
   160    79    76    1
   161    32    33    2
   162    75    76    1
   163    77    76    1
