@<TRIPOS>MOLECULE
tmp/3h7rA00.pdb
 181 179 0 0 0
SMALL
GASTEIGER

@<TRIPOS>ATOM
      1  N         67.5460    4.0560   21.2060 N.3    18  GLY18      -0.1210
      2  CA        66.2880    4.8040   21.1080 C.3    18  GLY18       0.1956
      3  C         66.5300    6.2970   20.9670 C.2    18  GLY18       0.2613
      4  O         67.2710    6.8570   21.7620 O.2    18  GLY18      -0.2717
      5  N         65.9090    6.9330   19.9770 N.am   19  THR19      -0.1938
      6  CA        66.1840    8.3380   19.7050 C.3    19  THR19       0.2028
      7  C         65.0280    9.2880   20.0120 C.2    19  THR19       0.2642
      8  O         65.1770   10.5020   19.8140 O.2    19  THR19      -0.2714
      9  CB        66.6870    8.5940   18.2640 C.3    19  THR19       0.1808
     10  OG1       65.6160    8.3850   17.3270 O.3    19  THR19      -0.2208
     11  CG2       67.9300    7.7490   17.9530 C.3    19  THR19       0.0379
     12  N         63.9170    8.8020   20.5510 N.am   20  TYR20      -0.1973
     13  CA        62.8320    9.7030   20.9340 C.3    20  TYR20       0.1639
     14  C         63.3330   10.6300   22.0490 C.2    20  TYR20       0.2290
     15  O         63.8740   10.1780   23.0610 O.2    20  TYR20      -0.2864
     16  CB        61.6060    8.9020   21.3790 C.3    20  TYR20       0.0560
     17  CG        60.4800    9.7850   21.8440 C.ar   20  TYR20      -0.0198
     18  CD1       59.9280   10.7190   20.9900 C.ar   20  TYR20      -0.0009
     19  CD2       60.0000    9.7080   23.1350 C.ar   20  TYR20      -0.0009
     20  CE1       58.9140   11.5770   21.4050 C.ar   20  TYR20       0.0417
     21  CE2       58.9730   10.5760   23.5700 C.ar   20  TYR20       0.0417
     22  CZ        58.4450   11.4860   22.6870 C.ar   20  TYR20       0.1957
     23  OH        57.4170   12.3340   23.0720 O.3    20  TYR20      -0.2866
     24  N         67.6400    3.7590   16.1830 N.3    39  ASP39      -0.1239
     25  CA        66.2140    3.7060   15.9010 C.3    39  ASP39       0.1674
     26  C         65.6420    5.1030   15.7760 C.2    39  ASP39       0.2266
     27  O         65.4710    5.7840   16.7920 O.2    39  ASP39      -0.2867
     28  CB        65.4550    2.9570   17.0000 C.3    39  ASP39       0.1410
     29  CG        64.0110    2.7560   16.6340 C.2    39  ASP39       0.3668
     30  OD1       63.7650    1.9900   15.6970 O.co2  39  ASP39      -0.2456
     31  OD2       63.1410    3.4060   17.2550 O.co2  39  ASP39      -0.2456
     32  N         59.8490   12.0350   15.4300 N.3    44  TYR44      -0.1241
     33  CA        60.6480   12.4630   16.5850 C.3    44  TYR44       0.1605
     34  C         61.2230   13.8630   16.4020 C.2    44  TYR44       0.2264
     35  O         61.6770   14.4760   17.3650 O.2    44  TYR44      -0.2867
     36  CB        61.7580   11.4610   16.9120 C.3    44  TYR44       0.0534
     37  CG        61.2670   10.0540   17.1760 C.ar   44  TYR44      -0.0201
     38  CD1       59.9190    9.7590   17.3800 C.ar   44  TYR44      -0.0009
     39  CD2       62.1730    8.9990   17.2000 C.ar   44  TYR44      -0.0009
     40  CE1       59.5080    8.4320   17.5950 C.ar   44  TYR44       0.0417
     41  CE2       61.7710    7.7010   17.4270 C.ar   44  TYR44       0.0417
     42  CZ        60.4410    7.4220   17.6050 C.ar   44  TYR44       0.1957
     43  OH        60.0070    6.1370   17.7790 O.3    44  TYR44      -0.2866
     44  N         60.9220    5.4250   10.3180 N.3    73  LYS73      -0.1245
     45  CA        59.5230    5.0350   10.3430 C.3    73  LYS73       0.1561
     46  C         58.6820    6.0220    9.5860 C.2    73  LYS73       0.2260
     47  O         58.9020    7.2290    9.6480 O.2    73  LYS73      -0.2867
     48  CB        58.9970    4.9230   11.7850 C.3    73  LYS73       0.0271
     49  CG        59.9290    4.1750   12.7070 C.3    73  LYS73       0.0035
     50  CD        59.3200    3.8600   14.0690 C.3    73  LYS73       0.0206
     51  CE        60.3560    3.3090   15.0440 C.3    73  LYS73       0.1093
     52  NZ        61.2210    4.4020   15.5830 N.3    73  LYS73      -0.1314
     53  N         54.8820    3.0370   11.0230 N.3   106  HIS106     -0.1226
     54  CA        54.9850    3.3330   12.4560 C.3   106  HIS106      0.1752
     55  C         53.7590    2.8240   13.2270 C.2   106  HIS106      0.2596
     56  O         53.8970    2.2980   14.3350 O.2   106  HIS106     -0.2718
     57  CB        55.1550    4.8300   12.6320 C.3   106  HIS106      0.0759
     58  CG        55.7940    5.2520   13.9150 C.ar  106  HIS106      0.0818
     59  ND1       56.5900    6.3810   13.9860 N.ar  106  HIS106     -0.2268
     60  CD2       55.7180    4.7570   15.1790 C.ar  106  HIS106      0.1154
     61  CE1       56.9930    6.5410   15.2360 C.ar  106  HIS106      0.1986
     62  NE2       56.4800    5.5720   15.9810 N.ar  106  HIS106     -0.2212
     63  N         52.5710    2.9860   12.6300 N.am  107  TRP107     -0.1976
     64  CA        51.2950    2.5600   13.2430 C.3   107  TRP107      0.1640
     65  C         50.3590    2.0280   12.1810 C.2   107  TRP107      0.2290
     66  O         50.3860    2.4980   11.0430 O.2   107  TRP107     -0.2864
     67  CB        50.5730    3.7460   13.9030 C.3   107  TRP107      0.0576
     68  CG        51.2620    4.2340   15.1270 C.ar  107  TRP107      0.0006
     69  CD1       52.2050    5.2180   15.2090 C.ar  107  TRP107      0.0946
     70  CD2       51.0990    3.7250   16.4490 C.ar  107  TRP107      0.0152
     71  NE1       52.6220    5.3680   16.5080 N.ar  107  TRP107     -0.2442
     72  CE2       51.9710    4.4400   17.2810 C.ar  107  TRP107      0.0810
     73  CE3       50.2990    2.7260   17.0130 C.ar  107  TRP107      0.0012
     74  CZ2       52.0540    4.1950   18.6550 C.ar  107  TRP107      0.0191
     75  CZ3       50.4000    2.4880   18.3780 C.ar  107  TRP107      0.0001
     76  CH2       51.2710    3.1990   19.1670 C.ar  107  TRP107      0.0015
     77  N         55.3420   -1.6430   12.7150 N.3   150  SER150     -0.1202
     78  CA        55.4440   -1.3490   14.1420 C.3   150  SER150      0.2020
     79  C         54.0240   -1.2410   14.7020 C.2   150  SER150      0.2618
     80  O         53.1110   -0.7990   14.0170 O.2   150  SER150     -0.2717
     81  CB        56.2400   -0.0650   14.3420 C.3   150  SER150      0.2103
     82  OG        56.3900    0.2630   15.7170 O.3   150  SER150     -0.2182
     83  N         53.8420   -1.7120   15.9400 N.am  151  ASN151     -0.1974
     84  CA        52.5520   -1.6630   16.6110 C.3   151  ASN151      0.1688
     85  C         51.4720   -2.4790   15.9170 C.2   151  ASN151      0.2292
     86  O         50.2990   -2.1420   16.0290 O.2   151  ASN151     -0.2864
     87  CB        52.1110   -0.2220   16.8290 C.3   151  ASN151      0.1181
     88  CG        53.0690    0.5140   17.6880 C.2   151  ASN151      0.2629
     89  OD1       53.2130    0.1890   18.8680 O.2   151  ASN151     -0.2716
     90  ND2       53.7050    1.5560   17.1310 N.am  151  ASN151     -0.0877
     91  N         58.1310   -4.0130   15.2360 N.3   172  GLN172     -0.1245
     92  CA        58.6480   -3.3210   16.4250 C.3   172  GLN172      0.1566
     93  C         57.4850   -2.9730   17.3410 C.2   172  GLN172      0.2260
     94  O         56.5780   -2.2740   16.9350 O.2   172  GLN172     -0.2867
     95  CB        59.4290   -2.0680   16.0260 C.3   172  GLN172      0.0367
     96  CG        60.1400   -1.4360   17.2020 C.3   172  GLN172      0.0905
     97  CD        60.6780   -0.0410   16.9160 C.2   172  GLN172      0.2608
     98  OE1       60.1810    0.9610   17.4490 O.2   172  GLN172     -0.2717
     99  NE2       61.6900    0.0320   16.0310 N.am  172  GLN172     -0.0878
    100  N         60.4990   -2.0890   21.6990 N.3   198  TYR198     -0.1227
    101  CA        60.6050   -0.6990   22.0450 C.3   198  TYR198      0.1736
    102  C         60.2310   -0.4750   23.5050 C.2   198  TYR198      0.2596
    103  O         59.6320   -1.3420   24.1480 O.2   198  TYR198     -0.2718
    104  CB        59.8520    0.1950   21.0670 C.3   198  TYR198      0.0548
    105  CG        58.3380    0.3280   21.1250 C.ar  198  TYR198     -0.0200
    106  CD1       57.6920    0.8850   22.2280 C.ar  198  TYR198     -0.0009
    107  CD2       57.5900    0.0500   20.0060 C.ar  198  TYR198     -0.0009
    108  CE1       56.3410    1.0720   22.2370 C.ar  198  TYR198      0.0417
    109  CE2       56.2240    0.2740   19.9840 C.ar  198  TYR198      0.0417
    110  CZ        55.6110    0.8170   21.1020 C.ar  198  TYR198      0.1957
    111  OH        54.2650    1.0860   21.1050 O.3   198  TYR198     -0.2866
    112  N         60.6150    0.6720   24.0300 N.am  199  SER199     -0.1938
    113  CA        60.4110    0.9790   25.4360 C.3   199  SER199      0.2040
    114  C         60.8400   -0.1630   26.3460 C.2   199  SER199      0.2485
    115  O         60.1250   -0.5230   27.2860 O.2   199  SER199     -0.2729
    116  CB        58.9490    1.3800   25.6970 C.3   199  SER199      0.2129
    117  OG        58.6160    2.5710   25.0210 O.3   199  SER199     -0.2179
    118  N         62.0680   -0.6820   26.1520 N.am  200  PRO200     -0.2715
    119  CA        62.4890   -1.8490   26.9140 C.3   200  PRO200      0.1536
    120  C         62.7360   -1.5860   28.4070 C.2   200  PRO200      0.2598
    121  O         62.8490   -2.5230   29.1930 O.2   200  PRO200     -0.2715
    122  CB        63.7830   -2.2540   26.2200 C.3   200  PRO200      0.0310
    123  CG        64.3660   -0.9480   25.7550 C.3   200  PRO200      0.0237
    124  CD        63.1490   -0.1820   25.2730 C.3   200  PRO200      0.0939
    125  N         62.8240   -0.3110   28.7860 N.am  201  LEU201     -0.1964
    126  CA        62.9840    0.0800   30.1880 C.3   201  LEU201      0.1728
    127  C         61.6960    0.5950   30.8020 C.2   201  LEU201      0.2617
    128  O         61.7030    1.0670   31.9510 O.2   201  LEU201     -0.2715
    129  CB        64.0910    1.1160   30.3460 C.3   201  LEU201      0.0311
    130  CG        65.4450    0.7360   29.7580 C.3   201  LEU201      0.0022
    131  CD1       66.4210    1.9140   29.9240 C.3   201  LEU201      0.0001
    132  CD2       65.9800   -0.5260   30.4040 C.3   201  LEU201      0.0001
    133  N         60.5920    0.4900   30.0580 N.am  202  GLY202     -0.1940
    134  CA        59.2920    0.9720   30.5440 C.3   202  GLY202      0.2014
    135  C         58.8070    2.3120   30.0290 C.2   202  GLY202      0.2640
    136  O         57.7920    2.8090   30.5040 O.2   202  GLY202     -0.2714
    137  N         59.5200    2.8840   29.0540 N.am  203  SER203     -0.1935
    138  CA        59.1080    4.0820   28.3360 C.3   203  SER203      0.2055
    139  C         59.3870    5.4170   29.0410 C.2   203  SER203      0.2642
    140  O         59.7160    5.4730   30.2300 O.2   203  SER203     -0.2714
    141  CB        57.6270    4.0060   27.9310 C.3   203  SER203      0.2130
    142  OG        56.7950    4.5670   28.9350 O.3   203  SER203     -0.2179
    143  N         59.2240    6.4960   28.2790 N.am  204  GLN204     -0.1976
    144  CA        59.3840    7.8430   28.7820 C.3   204  GLN204      0.1601
    145  C         58.0730    8.4960   29.2410 C.2   204  GLN204      0.2287
    146  O         58.0410    9.6860   29.5350 O.2   204  GLN204     -0.2864
    147  CB        60.0390    8.7170   27.7050 C.3   204  GLN204      0.0394
    148  CG        61.4160    8.2570   27.3580 C.3   204  GLN204      0.0908
    149  CD        62.1720    9.2230   26.4760 C.2   204  GLN204      0.2608
    150  OE1       62.4930   10.3400   26.8840 O.2   204  GLN204     -0.2717
    151  NE2       62.5070    8.7700   25.2610 N.am  204  GLN204     -0.0878
    152  N         65.7020   -1.4900   22.3730 N.3   246  LEU246     -0.1231
    153  CA        65.9750   -0.1340   21.8680 C.3   246  LEU246      0.1678
    154  C         66.0840    0.9280   22.9610 C.2   246  LEU246      0.2434
    155  O         65.4370    1.9670   22.8830 O.2   246  LEU246     -0.2733
    156  CB        64.8970    0.2280   20.8410 C.3   246  LEU246      0.0284
    157  CG        64.5940   -0.7980   19.7580 C.3   246  LEU246      0.0019
    158  CD1       63.4120   -0.3000   18.9330 C.3   246  LEU246      0.0001
    159  CD2       65.8150   -1.0490   18.8420 C.3   246  LEU246      0.0001
    160  N         66.9330    0.7070   23.9680 N.am  247  PRO247     -0.2718
    161  CA        66.9660    1.6610   25.0770 C.3   247  PRO247      0.1535
    162  C         67.4020    3.0630   24.7100 C.2   247  PRO247      0.2598
    163  O         68.3430    3.2660   23.9310 O.2   247  PRO247     -0.2715
    164  CB        67.9830    1.0520   26.0340 C.3   247  PRO247      0.0310
    165  CG        68.8740    0.2580   25.1370 C.3   247  PRO247      0.0237
    166  CD        67.9640   -0.3250   24.1020 C.3   247  PRO247      0.0939
    167  N         66.7020    4.0240   25.2760 N.am  248  LYS248     -0.1978
    168  CA        67.0170    5.4340   25.1010 C.3   248  LYS248      0.1596
    169  C         67.6620    5.9990   26.3740 C.2   248  LYS248      0.2287
    170  O         67.1800    5.7370   27.4610 O.2   248  LYS248     -0.2864
    171  CB        65.7340    6.2440   24.7790 C.3   248  LYS248      0.0298
    172  CG        65.9530    7.7550   24.7650 C.3   248  LYS248      0.0038
    173  CD        65.7370    8.4360   26.1460 C.3   248  LYS248      0.0206
    174  CE        65.9160    9.9340   26.0750 C.3   248  LYS248      0.1093
    175  NZ        65.4930   10.6380   27.3390 N.3   248  LYS248     -0.1314
    176  N         52.1860    2.1140   26.2860 N.3   283  CYS283     -0.1235
    177  CA        51.9230    2.9350   25.1210 C.3   283  CYS283      0.1677
    178  C         50.6090    2.4650   24.5240 C.2   283  CYS283      0.2270
    179  O         50.5610    1.5100   23.7510 O.2   283  CYS283     -0.2867
    180  CB        53.0440    2.8370   24.1010 C.3   283  CYS283      0.0956
    181  SG        52.6950    3.8710   22.6700 S.3   283  CYS283     -0.0801
@<TRIPOS>BOND
     1    46    47    2
     2    46    45    1
     3    44    45    1
     4    45    48    1
     5    53    54    1
     6    66    65    2
     7    48    49    1
     8    65    64    1
     9    54    57    1
    10    54    55    1
    11    63    55   am
    12    63    64    1
    13    57    58    1
    14    49    50    1
    15    77    78    1
    16    55    56    2
    17    64    67    1
    18    67    68    1
    19    58    59   ar
    20    58    60   ar
    21    59    61   ar
    22    80    79    2
    23    50    51    1
    24    78    81    1
    25    78    79    1
    26    81    82    1
    27    79    83   am
    28    51    52    1
    29    68    69   ar
    30    68    70   ar
    31    60    62   ar
    32    69    71   ar
    33    61    62   ar
    34    91    92    1
    35    32    33    1
    36    30    29   ar
    37    26    25    1
    38    26    27    2
    39    25    24    1
    40    25    28    1
    41    85    86    2
    42    85    84    1
    43    83    84    1
    44    95    92    1
    45    95    96    1
    46    99    97   am
    47    34    33    1
    48    34    35    2
    49    92    93    1
    50    70    73   ar
    51    70    72   ar
    52    71    72   ar
    53    33    36    1
    54    84    87    1
    55    29    28    1
    56    29    31   ar
    57    87    88    1
    58    36    37    1
    59    97    96    1
    60    97    98    2
    61    94    93    2
    62    73    75   ar
    63    90    88   am
    64    37    39   ar
    65    37    38   ar
    66    39    41   ar
    67    72    74   ar
    68    10     9    1
    69    38    40   ar
    70    41    42   ar
    71    40    42   ar
    72    42    43    1
    73    88    89    2
    74    11     9    1
    75     9     6    1
    76    75    76   ar
    77    74    76   ar
    78   159   157    1
    79   158   157    1
    80     6     5    1
    81     6     7    1
    82   157   156    1
    83     8     7    2
    84     5     3   am
    85   109   107   ar
    86   109   110   ar
    87   107   105   ar
    88     7    12   am
    89    12    13    1
    90   156   153    1
    91    13    16    1
    92    13    14    1
    93     3     2    1
    94     3     4    2
    95    18    20   ar
    96    18    17   ar
    97   104   105    1
    98   104   101    1
    99   110   111    1
   100   110   108   ar
   101     2     1    1
   102   105   106   ar
   103    16    17    1
   104    20    22   ar
   105   100   101    1
   106    17    19   ar
   107   153   152    1
   108   153   154    1
   109   101   102    1
   110    14    15    2
   111   106   108   ar
   112   181   180    1
   113    22    23    1
   114    22    21   ar
   115   155   154    2
   116   154   160   am
   117    19    21   ar
   118   102   112   am
   119   102   103    2
   120   179   178    2
   121   163   162    2
   122   160   166    1
   123   160   161    1
   124   112   113    1
   125   180   177    1
   126   166   165    1
   127   178   177    1
   128   162   161    1
   129   162   167   am
   130   172   171    1
   131   172   173    1
   132   171   168    1
   133   117   116    1
   134   161   164    1
   135   168   167    1
   136   168   169    1
   137   177   176    1
   138   165   164    1
   139   151   149   am
   140   124   123    1
   141   124   118    1
   142   113   116    1
   143   113   114    1
   144   123   122    1
   145   174   173    1
   146   174   175    1
   147   118   114   am
   148   118   119    1
   149   122   119    1
   150   114   115    2
   151   169   170    2
   152   149   150    2
   153   149   148    1
   154   119   120    1
   155   148   147    1
   156   147   144    1
   157   141   138    1
   158   141   142    1
   159   143   144    1
   160   143   139   am
   161   138   139    1
   162   138   137    1
   163   120   125   am
   164   120   121    2
   165   144   145    1
   166   125   126    1
   167   139   140    2
   168   137   135   am
   169   145   146    2
   170   130   131    1
   171   130   129    1
   172   130   132    1
   173   135   136    2
   174   135   134    1
   175   133   134    1
   176   133   127   am
   177   126   129    1
   178   126   127    1
   179   127   128    2
