@<TRIPOS>MOLECULE
tmp/3h7wA00.pdb
 180 167 0 0 0
SMALL
GASTEIGER

@<TRIPOS>ATOM
      1  N         18.4800  -51.3970    9.5550 N.3     9  PHE9       -0.1241
      2  CA        18.5940  -51.1940   11.0010 C.3     9  PHE9        0.1605
      3  C         17.2680  -50.6930   11.5440 C.2     9  PHE9        0.2264
      4  O         16.5390  -49.9630   10.8340 O.2     9  PHE9       -0.2867
      5  CB        19.7590  -50.2620   11.3940 C.3     9  PHE9        0.0534
      6  CG        19.6370  -48.8740   10.8640 C.ar    9  PHE9       -0.0203
      7  CD1       19.0980  -47.8430   11.6570 C.ar    9  PHE9       -0.0042
      8  CD2       20.0790  -48.5650    9.5500 C.ar    9  PHE9       -0.0042
      9  CE1       18.9910  -46.5360   11.1430 C.ar    9  PHE9       -0.0003
     10  CE2       19.9620  -47.2760    9.0330 C.ar    9  PHE9       -0.0003
     11  CZ        19.4340  -46.2470    9.8320 C.ar    9  PHE9       -0.0000
     12  N         15.1300  -48.5640   14.3640 N.3    11  SER11      -0.1217
     13  CA        15.2120  -47.5370   15.3950 C.3    11  SER11       0.1889
     14  C         13.8520  -47.2940   16.0460 C.2    11  SER11       0.2288
     15  O         12.8080  -47.6040   15.4730 O.2    11  SER11      -0.2866
     16  CB        15.7820  -46.2480   14.8180 C.3    11  SER11       0.2089
     17  OG        14.9880  -45.6930   13.7960 O.3    11  SER11      -0.2183
     18  N         11.7120  -44.1200   18.2420 N.3    13  HIS13      -0.1241
     19  CA        11.6800  -42.6840   18.4890 C.3    13  HIS13       0.1621
     20  C         10.5540  -42.2670   19.3950 C.2    13  HIS13       0.2264
     21  O          9.5070  -42.8940   19.4140 O.2    13  HIS13      -0.2867
     22  CB        11.5320  -41.9360   17.1670 C.3    13  HIS13       0.0745
     23  CG        12.5950  -42.2900   16.1770 C.ar   13  HIS13       0.0817
     24  ND1       13.6380  -41.4320   15.8710 N.ar   13  HIS13      -0.2268
     25  CD2       12.8000  -43.4100   15.4400 C.ar   13  HIS13       0.1154
     26  CE1       14.4480  -42.0170   15.0030 C.ar   13  HIS13       0.1986
     27  NE2       13.9500  -43.2060   14.7040 N.ar   13  HIS13      -0.2212
     28  N         10.3040  -37.4490   17.1670 N.3    17  MET17      -0.1245
     29  CA        11.3570  -38.0560   16.3450 C.3    17  MET17       0.1570
     30  C         12.7260  -38.1830   17.0430 C.2    17  MET17       0.2261
     31  O         13.7030  -38.5700   16.4120 O.2    17  MET17      -0.2867
     32  CB        11.5340  -37.3450   14.9810 C.3    17  MET17       0.0387
     33  CG        10.6870  -37.8240   13.8030 C.3    17  MET17       0.0595
     34  SD        11.5330  -37.3500   12.2470 S.3    17  MET17      -0.1393
     35  CE        10.2830  -37.5690   10.9610 C.3    17  MET17       0.0692
     36  N         15.5510  -40.0090   18.7300 N.3    19  PHE19      -0.1241
     37  CA        15.9480  -41.4190   18.9250 C.3    19  PHE19       0.1605
     38  C         15.8460  -41.8420   20.3870 C.2    19  PHE19       0.2264
     39  O         16.3820  -41.1660   21.2890 O.2    19  PHE19      -0.2867
     40  CB        17.3840  -41.6630   18.4840 C.3    19  PHE19       0.0534
     41  CG        17.5800  -41.7570   17.0030 C.ar   19  PHE19      -0.0203
     42  CD1       17.5940  -43.0090   16.3580 C.ar   19  PHE19      -0.0042
     43  CD2       17.8560  -40.6000   16.2540 C.ar   19  PHE19      -0.0042
     44  CE1       17.8420  -43.0840   14.9810 C.ar   19  PHE19      -0.0003
     45  CE2       18.1070  -40.6670   14.8780 C.ar   19  PHE19      -0.0003
     46  CZ        18.0830  -41.9270   14.2330 C.ar   19  PHE19      -0.0000
     47  N         15.5600  -37.0440   14.7680 N.3    42  ALA42      -0.1245
     48  CA        15.8870  -37.5080   13.4190 C.3    42  ALA42       0.1562
     49  C         16.0840  -36.3460   12.4540 C.2    42  ALA42       0.2260
     50  O         16.8960  -36.4290   11.5160 O.2    42  ALA42      -0.2867
     51  CB        14.8080  -38.4230   12.8960 C.3    42  ALA42       0.0290
     52  N         19.3920  -34.9890   11.1180 N.3    45  PHE45      -0.1227
     53  CA        20.1830  -35.8210   10.2060 C.3    45  PHE45       0.1736
     54  C         19.7320  -35.8240    8.7630 C.2    45  PHE45       0.2595
     55  O         20.4190  -36.3930    7.9200 O.2    45  PHE45      -0.2718
     56  CB        20.1850  -37.2640   10.7130 C.3    45  PHE45       0.0547
     57  CG        20.7270  -37.3970   12.0980 C.ar   45  PHE45      -0.0202
     58  CD1       22.0770  -37.5870   12.2860 C.ar   45  PHE45      -0.0042
     59  CD2       19.8720  -37.3070   13.2100 C.ar   45  PHE45      -0.0042
     60  CE1       22.5970  -37.7230   13.5730 C.ar   45  PHE45      -0.0003
     61  CE2       20.3760  -37.4180   14.5120 C.ar   45  PHE45      -0.0003
     62  CZ        21.7500  -37.6200   14.6860 C.ar   45  PHE45      -0.0000
     63  N         18.5820  -35.2130    8.4770 N.am   46  TYR46      -0.1976
     64  CA        18.0650  -35.2020    7.1140 C.3    46  TYR46       0.1639
     65  C         18.7880  -34.1590    6.2650 C.2    46  TYR46       0.2290
     66  O         19.0590  -33.0430    6.7200 O.2    46  TYR46      -0.2864
     67  CB        16.5640  -34.8940    7.0620 C.3    46  TYR46       0.0560
     68  CG        15.6820  -35.8740    7.8230 C.ar   46  TYR46      -0.0198
     69  CD1       16.0040  -37.2410    7.8790 C.ar   46  TYR46      -0.0009
     70  CD2       14.5140  -35.4510    8.4390 C.ar   46  TYR46      -0.0009
     71  CE1       15.1920  -38.1410    8.5620 C.ar   46  TYR46       0.0417
     72  CE2       13.7020  -36.3530    9.1390 C.ar   46  TYR46       0.0417
     73  CZ        14.0640  -37.6920    9.1930 C.ar   46  TYR46       0.1957
     74  OH        13.2540  -38.5940    9.8670 O.3    46  TYR46      -0.2866
     75  N         10.2500  -34.8470    4.4800 N.3    54  MET54      -0.1245
     76  CA        10.2520  -35.6430    5.7040 C.3    54  MET54       0.1570
     77  C          9.2690  -35.1010    6.7560 C.2    54  MET54       0.2261
     78  O          8.6810  -35.8760    7.5280 O.2    54  MET54      -0.2867
     79  CB        11.6780  -35.7280    6.2540 C.3    54  MET54       0.0387
     80  CG        12.6360  -36.4850    5.3430 C.3    54  MET54       0.0595
     81  SD        12.1020  -38.1200    4.8390 S.3    54  MET54      -0.1393
     82  CE        12.2470  -39.0380    6.3750 C.3    54  MET54       0.0692
     83  N          5.9480  -36.4420    5.6230 N.3    57  SER57      -0.1202
     84  CA         5.8300  -37.8730    5.9430 C.3    57  SER57       0.2020
     85  C          5.5680  -38.0880    7.4260 C.2    57  SER57       0.2618
     86  O          4.7430  -38.9190    7.7950 O.2    57  SER57      -0.2717
     87  CB         7.0790  -38.6490    5.5170 C.3    57  SER57       0.2103
     88  OG         7.2330  -38.6420    4.1120 O.3    57  SER57      -0.2182
     89  N          6.2560  -37.3210    8.2770 N.am   58  HIS58      -0.1975
     90  CA         6.0030  -37.3480    9.7190 C.3    58  HIS58       0.1656
     91  C          4.5310  -37.0250   10.0150 C.2    58  HIS58       0.2291
     92  O          3.8830  -37.7180   10.8040 O.2    58  HIS58      -0.2864
     93  CB         6.9590  -36.3810   10.4320 C.3    58  HIS58       0.0771
     94  CG         6.9510  -36.4900   11.9300 C.ar   58  HIS58       0.0820
     95  ND1        7.4730  -35.5020   12.7430 N.ar   58  HIS58      -0.2267
     96  CD2        6.5160  -37.4680   12.7630 C.ar   58  HIS58       0.1154
     97  CE1        7.3430  -35.8590   14.0090 C.ar   58  HIS58       0.1986
     98  NE2        6.7630  -37.0470   14.0510 N.ar   58  HIS58      -0.2212
     99  N          2.4540  -40.0140    9.0500 N.3    61  LEU61      -0.1245
    100  CA         2.6610  -41.0750   10.0390 C.3    61  LEU61       0.1561
    101  C          1.8140  -40.8490   11.2880 C.2    61  LEU61       0.2260
    102  O          1.1540  -41.7520   11.7760 O.2    61  LEU61      -0.2867
    103  CB         4.1470  -41.1480   10.3930 C.3    61  LEU61       0.0270
    104  CG         4.5840  -42.0760   11.5210 C.3    61  LEU61       0.0019
    105  CD1        4.1890  -43.5450   11.2870 C.3    61  LEU61       0.0001
    106  CD2        6.0980  -41.9200   11.6910 C.3    61  LEU61       0.0001
    107  N          3.5740  -45.1110    7.7980 N.3    67  VAL67      -0.1245
    108  CA         4.0190  -44.4020    6.5850 C.3    67  VAL67       0.1561
    109  C          5.2210  -45.1250    5.9970 C.2    67  VAL67       0.2260
    110  O          5.9720  -45.7570    6.7270 O.2    67  VAL67      -0.2867
    111  CB         4.3880  -42.9040    6.8540 C.3    67  VAL67       0.0252
    112  CG1        5.8010  -42.7860    7.3970 C.3    67  VAL67       0.0019
    113  CG2        4.2290  -42.0530    5.5780 C.3    67  VAL67       0.0019
    114  N          8.3690  -43.6740    3.9660 N.3    69  SER69      -0.1217
    115  CA         9.0240  -42.4320    3.5860 C.3    69  SER69       0.1889
    116  C          9.3750  -42.5250    2.1010 C.2    69  SER69       0.2288
    117  O          9.4410  -43.6150    1.5420 O.2    69  SER69      -0.2866
    118  CB        10.3050  -42.2520    4.3950 C.3    69  SER69       0.2089
    119  OG        11.3570  -43.0440    3.8510 O.3    69  SER69      -0.2183
    120  N         15.2520  -40.7510    0.9660 N.3    72  TYR72      -0.1241
    121  CA        15.8740  -39.5550    1.5280 C.3    72  TYR72       0.1605
    122  C         17.3380  -39.7910    1.8930 C.2    72  TYR72       0.2264
    123  O         17.8050  -40.9400    1.9450 O.2    72  TYR72      -0.2867
    124  CB        15.0550  -39.0760    2.7250 C.3    72  TYR72       0.0534
    125  CG        15.1060  -39.9880    3.9290 C.ar   72  TYR72      -0.0201
    126  CD1       14.2600  -41.0870    4.0280 C.ar   72  TYR72      -0.0009
    127  CD2       15.9900  -39.7280    4.9860 C.ar   72  TYR72      -0.0009
    128  CE1       14.2860  -41.9090    5.1410 C.ar   72  TYR72       0.0417
    129  CE2       16.0340  -40.5490    6.1060 C.ar   72  TYR72       0.0417
    130  CZ        15.1760  -41.6370    6.1820 C.ar   72  TYR72       0.1957
    131  OH        15.1770  -42.4650    7.2830 O.3    72  TYR72      -0.2866
    132  N         20.4170  -39.3890    4.6600 N.3    74  MET74      -0.1245
    133  CA        20.8000  -39.2010    6.0570 C.3    74  MET74       0.1570
    134  C         22.2850  -38.8480    6.1080 C.2    74  MET74       0.2261
    135  O         23.1190  -39.5550    5.5160 O.2    74  MET74      -0.2867
    136  CB        20.5760  -40.4560    6.9080 C.3    74  MET74       0.0387
    137  CG        21.0040  -40.2230    8.3590 C.3    74  MET74       0.0595
    138  SD        21.1130  -41.6920    9.4130 S.3    74  MET74      -0.1393
    139  CE        21.1550  -40.9850   11.0470 C.3    74  MET74       0.0692
    140  N         18.4030  -43.6120    2.1050 N.3    84  LEU84      -0.1245
    141  CA        17.6090  -44.5270    2.9200 C.3    84  LEU84       0.1561
    142  C         16.1580  -44.5190    2.5170 C.2    84  LEU84       0.2260
    143  O         15.6730  -43.5560    1.9530 O.2    84  LEU84      -0.2867
    144  CB        17.5850  -44.0480    4.3870 C.3    84  LEU84       0.0270
    145  CG        18.8030  -43.9570    5.2730 C.3    84  LEU84       0.0019
    146  CD1       18.3420  -43.6390    6.6660 C.3    84  LEU84       0.0001
    147  CD2       19.5240  -45.3070    5.2210 C.3    84  LEU84       0.0001
    148  N         12.5310  -45.5850    4.8490 N.3    86  THR86      -0.1218
    149  CA        12.0610  -46.0220    6.1460 C.3    86  THR86       0.1862
    150  C         10.5860  -46.3550    6.1180 C.2    86  THR86       0.2287
    151  O          9.8130  -45.5970    5.5650 O.2    86  THR86      -0.2866
    152  CB        12.2850  -44.8930    7.1910 C.3    86  THR86       0.1770
    153  OG1       13.6920  -44.6430    7.3330 O.3    86  THR86      -0.2211
    154  CG2       11.6590  -45.2100    8.5320 C.3    86  THR86       0.0375
    155  N          7.7350  -46.4650    8.8380 N.3    88  GLY88      -0.1225
    156  CA         7.4620  -46.0150   10.2240 C.3    88  GLY88       0.1811
    157  C          6.0810  -46.4790   10.6710 C.2    88  GLY88       0.2280
    158  O          5.1440  -46.5300    9.8700 O.2    88  GLY88      -0.2866
    159  N          7.4600  -44.3420   18.0750 N.3    96  ILE96      -0.1245
    160  CA         7.4910  -44.6370   16.6620 C.3    96  ILE96       0.1561
    161  C          8.5700  -45.6960   16.4560 C.2    96  ILE96       0.2260
    162  O          9.6760  -45.5560   16.9470 O.2    96  ILE96      -0.2867
    163  CB         7.8010  -43.3480   15.8320 C.3    96  ILE96       0.0252
    164  CG1        6.6250  -42.3580   15.9410 C.3    96  ILE96       0.0019
    165  CG2        8.1250  -43.6850   14.3390 C.3    96  ILE96       0.0019
    166  CD1        7.0040  -40.9120   15.5080 C.3    96  ILE96       0.0001
    167  N         10.7440  -47.6390   13.5790 N.3    98  CYS98      -0.1235
    168  CA        11.1940  -47.4920   12.2260 C.3    98  CYS98       0.1677
    169  C         12.0180  -48.6750   11.7660 C.2    98  CYS98       0.2270
    170  O         12.8980  -49.1430   12.4770 O.2    98  CYS98      -0.2867
    171  CB        12.0160  -46.2000   12.0760 C.3    98  CYS98       0.0956
    172  SG        11.0160  -44.7130   12.2430 S.3    98  CYS98      -0.0801
    173  N         14.5690  -49.1520    8.8290 N.3   100  ASN100     -0.1240
    174  CA        15.3660  -48.3190    7.9380 C.3   100  ASN100      0.1653
    175  C         16.2370  -49.1970    7.0550 C.2   100  ASN100      0.2266
    176  O         16.9190  -50.1020    7.5680 O.2   100  ASN100     -0.2867
    177  CB        16.2670  -47.4310    8.8010 C.3   100  ASN100      0.1155
    178  CG        15.4800  -46.6790    9.8510 C.2   100  ASN100      0.2627
    179  OD1       14.6810  -45.7970    9.5270 O.2   100  ASN100     -0.2716
    180  ND2       15.6840  -47.0360   11.1130 N.am  100  ASN100     -0.0877
@<TRIPOS>BOND
     1   120   121    1
     2   121   122    1
     3   121   124    1
     4   117   116    2
     5   122   123    2
     6   143   142    2
     7   116   115    1
     8   140   141    1
     9   142   141    1
    10   124   125    1
    11   141   144    1
    12   115   114    1
    13   115   118    1
    14   119   118    1
    15   125   126   ar
    16   125   127   ar
    17   126   128   ar
    18    88    87    1
    19   144   145    1
    20    75    76    1
    21   132   133    1
    22    81    80    1
    23    81    82    1
    24   148   149    1
    25   127   129   ar
    26   128   130   ar
    27   147   145    1
    28   145   146    1
    29    80    79    1
    30   135   134    2
    31    87    84    1
    32   151   150    2
    33   113   111    1
    34    83    84    1
    35    76    79    1
    36    76    77    1
    37    84    85    1
    38   109   108    1
    39   109   110    2
    40   133   134    1
    41   133   136    1
    42   129   130   ar
    43   150   149    1
    44   149   152    1
    45   130   131    1
    46    65    66    2
    47    65    64    1
    48   108   111    1
    49   108   107    1
    50    77    78    2
    51   111   112    1
    52   136   137    1
    53   175   176    2
    54   175   174    1
    55    67    64    1
    56    67    68    1
    57    64    63    1
    58   152   153    1
    59   152   154    1
    60    85    86    2
    61    85    89   am
    62    68    69   ar
    63    68    70   ar
    64    69    71   ar
    65    55    54    2
    66   174   177    1
    67   174   173    1
    68    89    90    1
    69   137   138    1
    70    70    72   ar
    71    63    54   am
    72    71    73   ar
    73    54    53    1
    74   177   178    1
    75   155   156    1
    76    10     8   ar
    77    10    11   ar
    78    99   100    1
    79    72    73   ar
    80    73    74    1
    81   138   139    1
    82   179   178    2
    83     8     6   ar
    84     1     2    1
    85    90    91    1
    86    90    93    1
    87    11     9   ar
    88   178   180   am
    89   158   157    2
    90    91    92    2
    91   100   103    1
    92   100   101    1
    93    53    56    1
    94    53    52    1
    95   156   157    1
    96   103   104    1
    97    93    94    1
    98    56    57    1
    99     4     3    2
   100     6     5    1
   101     6     7   ar
   102    35    34    1
   103     2     5    1
   104     2     3    1
   105     9     7   ar
   106   105   104    1
   107   101   102    2
   108    50    49    2
   109   104   106    1
   110   169   168    1
   111   169   170    2
   112    94    95   ar
   113    94    96   ar
   114   171   168    1
   115   171   172    1
   116    57    58   ar
   117    57    59   ar
   118   168   167    1
   119    34    33    1
   120    58    60   ar
   121    49    48    1
   122    95    97   ar
   123    96    98   ar
   124    51    48    1
   125    59    61   ar
   126    48    47    1
   127    60    62   ar
   128    17    16    1
   129    33    32    1
   130    97    98   ar
   131    46    45   ar
   132    46    44   ar
   133   165   163    1
   134    12    13    1
   135    61    62   ar
   136    27    26   ar
   137    27    25   ar
   138    16    13    1
   139    45    43   ar
   140    44    42   ar
   141    32    29    1
   142    26    24   ar
   143    13    14    1
   144    25    23   ar
   145    15    14    2
   146   166   164    1
   147   163   164    1
   148   163   160    1
   149    24    23   ar
   150    23    22    1
   151    43    41   ar
   152    29    30    1
   153    29    28    1
   154    42    41   ar
   155    31    30    2
   156   161   160    1
   157   161   162    2
   158   160   159    1
   159    41    40    1
   160    22    19    1
   161    18    19    1
   162    40    37    1
   163    19    20    1
   164    36    37    1
   165    37    38    1
   166    20    21    2
   167    38    39    2
