@<TRIPOS>MOLECULE
tmp/3h80A00.pdb
 159 150 0 0 0
SMALL
GASTEIGER

@<TRIPOS>ATOM
      1  N         25.7660    5.9530   11.8850 N.3    38  GLU38      -0.1231
      2  CA        25.4110    6.8410   12.9680 C.3    38  GLU38       0.1699
      3  C         24.0730    6.4240   13.6470 C.2    38  GLU38       0.2592
      4  O         23.9610    6.4000   14.8750 O.2    38  GLU38      -0.2718
      5  CB        25.3580    8.2880   12.4310 C.3    38  GLU38       0.0402
      6  CG        26.7540    8.9100   12.1200 C.3    38  GLU38       0.1161
      7  CD        27.8170    8.6860   13.2070 C.2    38  GLU38       0.3649
      8  OE1       27.5780    8.8530   14.4510 O.co2  38  GLU38      -0.2457
      9  OE2       28.9370    8.3310   12.8000 O.co2  38  GLU38      -0.2457
     10  N         23.0820    6.0800   12.8370 N.am   39  LEU39      -0.1980
     11  CA        21.7530    5.6980   13.3830 C.3    39  LEU39       0.1596
     12  C         21.8020    4.3300   14.0880 C.2    39  LEU39       0.2287
     13  O         21.2530    4.1450   15.1550 O.2    39  LEU39      -0.2864
     14  CB        20.7100    5.7470   12.2850 C.3    39  LEU39       0.0297
     15  CG        20.4540    7.1190   11.6520 C.3    39  LEU39       0.0022
     16  CD1       19.3750    6.9920   10.6050 C.3    39  LEU39       0.0001
     17  CD2       20.0910    8.2040   12.7060 C.3    39  LEU39       0.0001
     18  N         24.5030    3.0640   15.4910 N.3    41  SER41      -0.1202
     19  CA        25.2600    3.3090   16.7230 C.3    41  SER41       0.2020
     20  C         24.3580    3.8390   17.8300 C.2    41  SER41       0.2619
     21  O         24.4780    3.4150   19.0010 O.2    41  SER41      -0.2717
     22  CB        26.4150    4.3070   16.4890 C.3    41  SER41       0.2103
     23  OG        26.9510    4.7910   17.7200 O.3    41  SER41      -0.2182
     24  N         23.4640    4.7730   17.4750 N.am   42  ASN42      -0.1960
     25  CA        22.5660    5.3510   18.4610 C.3    42  ASN42       0.1819
     26  C         21.6180    4.2700   18.9900 C.2    42  ASN42       0.2621
     27  O         21.3430    4.2200   20.1770 O.2    42  ASN42      -0.2715
     28  CB        21.7430    6.5010   17.8490 C.3    42  ASN42       0.1195
     29  CG        22.5470    7.7670   17.7070 C.2    42  ASN42       0.2630
     30  OD1       23.6340    7.8610   18.2600 O.2    42  ASN42      -0.2716
     31  ND2       22.0350    8.7440   16.9400 N.am   42  ASN42      -0.0877
     32  N         21.1300    3.4230   18.0900 N.am   43  ALA43      -0.1977
     33  CA        20.2160    2.3380   18.4550 C.3    43  ALA43       0.1597
     34  C         20.9080    1.3880   19.4400 C.2    43  ALA43       0.2287
     35  O         20.3670    1.0480   20.4980 O.2    43  ALA43      -0.2864
     36  CB        19.7460    1.6010   17.1840 C.3    43  ALA43       0.0319
     37  N         23.5810    2.0290   21.3430 N.3    45  ASP45      -0.1225
     38  CA        23.7300    2.7660   22.6160 C.3    45  ASP45       0.1805
     39  C         22.4450    2.7300   23.5100 C.2    45  ASP45       0.2597
     40  O         22.5180    2.5870   24.7260 O.2    45  ASP45      -0.2718
     41  CB        24.1010    4.2510   22.3490 C.3    45  ASP45       0.1424
     42  CG        25.5270    4.4340   21.8030 C.2    45  ASP45       0.3668
     43  OD1       26.2630    3.4150   21.6800 O.co2  45  ASP45      -0.2456
     44  OD2       25.8940    5.6080   21.5070 O.co2  45  ASP45      -0.2456
     45  N         21.2960    2.9510   22.8930 N.am   46  ALA46      -0.1979
     46  CA        20.0090    2.9450   23.5830 C.3    46  ALA46       0.1597
     47  C         19.6690    1.5520   24.1520 C.2    46  ALA46       0.2287
     48  O         19.0630    1.4490   25.2400 O.2    46  ALA46      -0.2864
     49  CB        18.9310    3.3890   22.6230 C.3    46  ALA46       0.0319
     50  N         21.7560    1.0280   27.2630 N.3    49  LYS49      -0.1245
     51  CA        21.2460    1.7040   28.4700 C.3    49  LYS49       0.1561
     52  C         20.1430    0.9100   29.1730 C.2    49  LYS49       0.2260
     53  O         20.1310    0.8170   30.3960 O.2    49  LYS49      -0.2867
     54  CB        20.7590    3.1440   28.1830 C.3    49  LYS49       0.0271
     55  CG        21.9190    4.1260   27.9070 C.3    49  LYS49       0.0035
     56  CD        21.4320    5.5520   27.8380 C.3    49  LYS49       0.0206
     57  CE        22.6030    6.4640   27.3980 C.3    49  LYS49       0.1093
     58  NZ        22.8320    6.3140   25.9290 N.3    49  LYS49      -0.1314
     59  N         14.6520    0.5990   17.2270 N.3    84  ASP84      -0.1239
     60  CA        15.2130   -0.2320   18.2900 C.3    84  ASP84       0.1674
     61  C         14.1750   -0.3210   19.4180 C.2    84  ASP84       0.2266
     62  O         13.1850    0.4460   19.4400 O.2    84  ASP84      -0.2867
     63  CB        16.5460    0.3760   18.8140 C.3    84  ASP84       0.1410
     64  CG        16.3560    1.7590   19.4460 C.2    84  ASP84       0.3668
     65  OD1       15.8560    1.8020   20.5760 O.co2  84  ASP84      -0.2456
     66  OD2       16.7110    2.8000   18.8190 O.co2  84  ASP84      -0.2456
     67  N         16.3440    2.1120   25.3920 N.3    87  ILE87      -0.1231
     68  CA        15.7590    2.8570   26.5310 C.3    87  ILE87       0.1692
     69  C         14.6280    3.8580   26.1700 C.2    87  ILE87       0.2593
     70  O         13.7400    4.1250   27.0030 O.2    87  ILE87      -0.2718
     71  CB        16.8450    3.5380   27.4170 C.3    87  ILE87       0.0266
     72  CG1       16.2820    3.9270   28.7910 C.3    87  ILE87       0.0019
     73  CG2       17.5720    4.6760   26.6440 C.3    87  ILE87       0.0020
     74  CD1       17.3720    4.2140   29.8170 C.3    87  ILE87       0.0001
     75  N         14.6360    4.3620   24.9310 N.am   88  GLY88      -0.1942
     76  CA        13.6700    5.4000   24.4980 C.3    88  GLY88       0.2014
     77  C         13.9770    6.7640   25.0820 C.2    88  GLY88       0.2638
     78  O         14.7710    6.8900   25.9980 O.2    88  GLY88      -0.2714
     79  N         13.2840    7.7930   24.5930 N.am   89  MET89      -0.1976
     80  CA        13.5050    9.1890   25.0110 C.3    89  MET89       0.1605
     81  C         12.2230    9.8070   25.5600 C.2    89  MET89       0.2287
     82  O         11.1840    9.7420   24.9120 O.2    89  MET89      -0.2864
     83  CB        13.9880   10.0400   23.8190 C.3    89  MET89       0.0413
     84  CG        15.4920    9.9020   23.5040 C.3    89  MET89       0.0598
     85  SD        15.9550   10.7510   21.9940 S.3    89  MET89      -0.1393
     86  CE        15.2820    9.6410   20.8250 C.3    89  MET89       0.0692
     87  N         17.9340   16.9370   23.8260 N.3    97  ASN97      -0.1225
     88  CA        19.0070   16.1710   23.1980 C.3    97  ASN97       0.1785
     89  C         18.9520   16.2120   21.6970 C.2    97  ASN97       0.2597
     90  O         19.9340   15.9330   21.0450 O.2    97  ASN97      -0.2718
     91  CB        18.9800   14.6970   23.6950 C.3    97  ASN97       0.1169
     92  CG        19.2180   14.5670   25.2070 C.2    97  ASN97       0.2627
     93  OD1       19.6820   15.4880   25.8640 O.2    97  ASN97      -0.2716
     94  ND2       18.9550   13.3960   25.7340 N.am   97  ASN97      -0.0877
     95  N         17.7980   16.5340   21.1380 N.am   98  LEU98      -0.1980
     96  CA        17.6830   16.6690   19.6960 C.3    98  LEU98       0.1596
     97  C         17.2750   18.0860   19.2570 C.2    98  LEU98       0.2287
     98  O         16.4030   18.2510   18.4080 O.2    98  LEU98      -0.2864
     99  CB        16.7160   15.6150   19.1290 C.3    98  LEU98       0.0297
    100  CG        17.0850   14.1420   19.3130 C.3    98  LEU98       0.0022
    101  CD1       15.8770   13.3100   18.8940 C.3    98  LEU98       0.0001
    102  CD2       18.3140   13.8540   18.4830 C.3    98  LEU98       0.0001
    103  N         30.4970   12.0030   14.0710 N.3   123  GLY123     -0.1225
    104  CA        30.3150   11.2800   15.3270 C.3   123  GLY123      0.1811
    105  C         31.3070   11.6580   16.4170 C.2   123  GLY123      0.2280
    106  O         30.9820   11.6450   17.6260 O.2   123  GLY123     -0.2866
    107  N         30.0230   14.8170   18.5260 N.3   126  GLY126     -0.1210
    108  CA        28.8370   14.7910   19.3550 C.3   126  GLY126      0.1956
    109  C         27.5460   15.1590   18.6370 C.2   126  GLY126      0.2612
    110  O         26.5430   15.3770   19.2880 O.2   126  GLY126     -0.2717
    111  N         27.5700   15.1870   17.3020 N.am  127  VAL127     -0.1965
    112  CA        26.3920   15.5370   16.4780 C.3   127  VAL127      0.1727
    113  C         26.0410   14.4790   15.4270 C.2   127  VAL127      0.2617
    114  O         25.4620   14.7990   14.3910 O.2   127  VAL127     -0.2715
    115  CB        26.5390   16.9390   15.8200 C.3   127  VAL127      0.0290
    116  CG1       26.2150   18.0040   16.8480 C.3   127  VAL127      0.0023
    117  CG2       27.9870   17.1430   15.2780 C.3   127  VAL127      0.0023
    118  N         26.3740   13.2170   15.7010 N.am  128  GLY128     -0.1940
    119  CA        26.1270   12.1270   14.7310 C.3   128  GLY128      0.2014
    120  C         24.7260   12.0440   14.1260 C.2   128  GLY128      0.2639
    121  O         24.5770   11.7680   12.9410 O.2   128  GLY128     -0.2714
    122  N         23.6970   12.2540   14.9450 N.am  129  PHE129     -0.1959
    123  CA        22.2860   12.1340   14.5100 C.3   129  PHE129      0.1771
    124  C         21.9890   12.9570   13.2670 C.2   129  PHE129      0.2619
    125  O         21.2480   12.5150   12.3920 O.2   129  PHE129     -0.2715
    126  CB        21.3550   12.5780   15.6590 C.3   129  PHE129      0.0574
    127  CG        19.9120   12.8060   15.2440 C.ar  129  PHE129     -0.0200
    128  CD1       19.0410   11.7350   15.0930 C.ar  129  PHE129     -0.0042
    129  CD2       19.4210   14.1000   15.0410 C.ar  129  PHE129     -0.0042
    130  CE1       17.7070   11.9440   14.7110 C.ar  129  PHE129     -0.0003
    131  CE2       18.0620   14.3290   14.6680 C.ar  129  PHE129     -0.0003
    132  CZ        17.2150   13.2340   14.5040 C.ar  129  PHE129     -0.0000
    133  N         22.5580   14.1600   13.1940 N.am  130  TYR130     -0.1974
    134  CA        22.2420   15.1070   12.1190 C.3   130  TYR130      0.1639
    135  C         22.7540   14.6860   10.7660 C.2   130  TYR130      0.2290
    136  O         22.2950   15.2290    9.7680 O.2   130  TYR130     -0.2864
    137  CB        22.6930   16.5360   12.4780 C.3   130  TYR130      0.0560
    138  CG        22.0010   17.0110   13.7420 C.ar  130  TYR130     -0.0198
    139  CD1       20.6620   17.4430   13.7190 C.ar  130  TYR130     -0.0009
    140  CD2       22.6510   16.9600   14.9670 C.ar  130  TYR130     -0.0009
    141  CE1       20.0210   17.8350   14.8870 C.ar  130  TYR130      0.0417
    142  CE2       22.0110   17.3390   16.1180 C.ar  130  TYR130      0.0417
    143  CZ        20.7030   17.7820   16.0580 C.ar  130  TYR130      0.1957
    144  OH        20.1040   18.1310   17.2200 O.3   130  TYR130     -0.2866
    145  N         12.6160    3.4730   20.0550 N.3   175  THR175     -0.1218
    146  CA        12.7030    4.6220   19.1550 C.3   175  THR175      0.1862
    147  C         12.6790    4.1640   17.7150 C.2   175  THR175      0.2287
    148  O         13.3330    3.1850   17.3890 O.2   175  THR175     -0.2866
    149  CB        14.0140    5.4090   19.4500 C.3   175  THR175      0.1770
    150  OG1       13.9800    5.8680   20.8080 O.3   175  THR175     -0.2211
    151  CG2       14.1840    6.5730   18.5420 C.3   175  THR175      0.0375
    152  N         13.4610    5.9260   13.9680 N.3   177  ILE177     -0.1245
    153  CA        13.9410    7.1250   13.2590 C.3   177  ILE177      0.1561
    154  C         13.5180    6.8420   11.8250 C.2   177  ILE177      0.2260
    155  O         13.9310    5.8260   11.2530 O.2   177  ILE177     -0.2867
    156  CB        15.5040    7.2930   13.2920 C.3   177  ILE177      0.0252
    157  CG1       16.1370    7.0210   14.6750 C.3   177  ILE177      0.0019
    158  CG2       15.9480    8.6750   12.7310 C.3   177  ILE177      0.0019
    159  CD1       15.9480    8.0670   15.7400 C.3   177  ILE177      0.0001
@<TRIPOS>BOND
     1   136   135    2
     2    16    15    1
     3   135   134    1
     4   155   154    2
     5    15    14    1
     6    15    17    1
     7   154   153    1
     8     1     2    1
     9   134   137    1
    10   134   133    1
    11     6     5    1
    12     6     7    1
    13    14    11    1
    14   125   124    2
    15     5     2    1
    16   137   138    1
    17   158   156    1
    18     9     7   ar
    19    10    11    1
    20    10     3   am
    21   121   120    2
    22     2     3    1
    23   133   124   am
    24     7     8   ar
    25   153   156    1
    26   153   152    1
    27   124   123    1
    28   156   157    1
    29    11    12    1
    30     3     4    2
    31   139   138   ar
    32   139   141   ar
    33   138   140   ar
    34   103   104    1
    35    12    13    2
    36   120   119    1
    37   120   122   am
    38   114   113    2
    39   132   131   ar
    40   132   130   ar
    41   123   122    1
    42   123   126    1
    43   131   129   ar
    44   157   159    1
    45   130   128   ar
    46   119   118    1
    47   141   143   ar
    48   140   142   ar
    49   129   127   ar
    50   128   127   ar
    51   127   126    1
    52   117   115    1
    53   104   105    1
    54   113   118   am
    55   113   112    1
    56    18    19    1
    57   115   112    1
    58   115   116    1
    59   143   142   ar
    60   143   144    1
    61   105   106    2
    62   112   111    1
    63    22    19    1
    64    22    23    1
    65    19    20    1
    66    31    29   am
    67    36    33    1
    68    59    60    1
    69   111   109   am
    70   148   147    2
    71    24    20   am
    72    24    25    1
    73    29    28    1
    74    29    30    2
    75   147   146    1
    76    20    21    2
    77    28    25    1
    78    32    33    1
    79    32    26   am
    80    60    63    1
    81    60    61    1
    82    98    97    2
    83    33    34    1
    84    25    26    1
    85   102   100    1
    86   107   108    1
    87   151   149    1
    88   109   110    2
    89   109   108    1
    90    63    64    1
    91    66    64   ar
    92   101   100    1
    93    26    27    2
    94    99   100    1
    95    99    96    1
    96   146   149    1
    97   146   145    1
    98    97    96    1
    99    61    62    2
   100    34    35    2
   101    64    65   ar
   102   149   150    1
   103    96    95    1
   104    86    85    1
   105    90    89    2
   106    95    89   am
   107    37    38    1
   108    44    42   ar
   109    43    42   ar
   110    89    88    1
   111    42    41    1
   112    85    84    1
   113    41    38    1
   114    38    39    1
   115    49    46    1
   116    45    39   am
   117    45    46    1
   118    88    91    1
   119    88    87    1
   120    84    83    1
   121    39    40    2
   122    46    47    1
   123    91    92    1
   124    83    80    1
   125    47    48    2
   126    76    75    1
   127    76    77    1
   128    79    80    1
   129    79    77   am
   130    82    81    2
   131    75    69   am
   132    80    81    1
   133    77    78    2
   134    92    94   am
   135    92    93    2
   136    67    68    1
   137    58    57    1
   138    69    68    1
   139    69    70    2
   140    68    71    1
   141    73    71    1
   142    50    51    1
   143    57    56    1
   144    71    72    1
   145    56    55    1
   146    55    54    1
   147    54    51    1
   148    51    52    1
   149    72    74    1
   150    52    53    2
