@<TRIPOS>MOLECULE
tmp/3h82B00.pdb
 180 167 0 0 0
SMALL
GASTEIGER

@<TRIPOS>ATOM
      1  N         11.8810    1.5710    4.4380 N.3    10  PHE10      -0.1241
      2  CA        10.5460    1.5890    3.8730 C.3    10  PHE10       0.1605
      3  C          9.6130    0.7470    4.7650 C.2    10  PHE10       0.2264
      4  O         10.0250   -0.2650    5.2620 O.2    10  PHE10      -0.2867
      5  CB        10.5050    1.1620    2.3900 C.3    10  PHE10       0.0534
      6  CG        10.9400   -0.2440    2.1570 C.ar   10  PHE10      -0.0203
      7  CD1       10.0050   -1.2710    2.0400 C.ar   10  PHE10      -0.0042
      8  CD2       12.3050   -0.5400    2.0230 C.ar   10  PHE10      -0.0042
      9  CE1       10.4090   -2.5900    1.8150 C.ar   10  PHE10      -0.0003
     10  CE2       12.7380   -1.8880    1.7720 C.ar   10  PHE10      -0.0003
     11  CZ        11.7800   -2.8850    1.6870 C.ar   10  PHE10      -0.0000
     12  N          6.2230   -1.5210    5.2810 N.3    12  SER12      -0.1217
     13  CA         5.2830   -2.4000    4.5290 C.3    12  SER12       0.1889
     14  C          4.2820   -2.9950    5.5150 C.2    12  SER12       0.2288
     15  O          4.5660   -3.1410    6.6650 O.2    12  SER12      -0.2866
     16  CB         6.0230   -3.4770    3.7090 C.3    12  SER12       0.2089
     17  OG         6.7860   -4.3610    4.4820 O.3    12  SER12      -0.2183
     18  N          1.4790   -6.3350    5.7240 N.3    14  HIS14      -0.1241
     19  CA         1.2120   -7.6290    5.1510 C.3    14  HIS14       0.1621
     20  C          0.0260   -8.2530    5.8300 C.2    14  HIS14       0.2264
     21  O         -0.2160   -8.0410    7.0170 O.2    14  HIS14      -0.2867
     22  CB         2.4320   -8.5220    5.3860 C.3    14  HIS14       0.0745
     23  CG         3.6540   -7.9810    4.7440 C.ar   14  HIS14       0.0817
     24  ND1        4.1270   -8.4130    3.5210 N.ar   14  HIS14      -0.2268
     25  CD2        4.4940   -6.9970    5.1490 C.ar   14  HIS14       0.1154
     26  CE1        5.1880   -7.6930    3.1850 C.ar   14  HIS14       0.1986
     27  NE2        5.4240   -6.8190    4.1450 N.ar   14  HIS14      -0.2212
     28  N          1.8430  -13.1280    4.8700 N.3    18  MET18      -0.1245
     29  CA         2.9740  -12.3780    4.3370 C.3    18  MET18       0.1570
     30  C          2.7270  -11.7080    2.9650 C.2    18  MET18       0.2261
     31  O          3.6610  -11.1800    2.3600 O.2    18  MET18      -0.2867
     32  CB         4.3170  -13.1890    4.3610 C.3    18  MET18       0.0387
     33  CG         4.8780  -13.4700    5.7700 C.3    18  MET18       0.0595
     34  SD         6.7210  -13.6490    5.8770 S.3    18  MET18      -0.1393
     35  CE         6.9970  -15.3070    5.2180 C.3    18  MET18       0.0692
     36  N          1.8230   -8.7300    0.6230 N.3    20  PHE20      -0.1241
     37  CA         1.8200   -7.2700    0.7940 C.3    20  PHE20       0.1605
     38  C          0.4080   -6.7060    0.7110 C.2    20  PHE20       0.2264
     39  O         -0.3390   -7.0210   -0.2800 O.2    20  PHE20      -0.2867
     40  CB         2.6140   -6.5970   -0.3150 C.3    20  PHE20       0.0534
     41  CG         4.1100   -6.6540   -0.1230 C.ar   20  PHE20      -0.0203
     42  CD1        4.7730   -5.5700    0.4840 C.ar   20  PHE20      -0.0042
     43  CD2        4.8550   -7.6900   -0.6650 C.ar   20  PHE20      -0.0042
     44  CE1        6.1660   -5.5630    0.6660 C.ar   20  PHE20      -0.0003
     45  CE2        6.2730   -7.7260   -0.5130 C.ar   20  PHE20      -0.0003
     46  CZ         6.9560   -6.6280    0.1320 C.ar   20  PHE20      -0.0000
     47  N          5.5480  -12.0020    0.2310 N.3    43  ALA43      -0.1245
     48  CA         6.9140  -11.6050    0.6170 C.3    43  ALA43       0.1562
     49  C          7.9380  -12.5760    0.0320 C.2    43  ALA43       0.2260
     50  O          9.0300  -12.1590   -0.3720 O.2    43  ALA43      -0.2867
     51  CB         7.0580  -11.5560    2.0700 C.3    43  ALA43       0.0290
     52  N         10.1800  -12.1210   -3.0320 N.3    46  PHE46      -0.1227
     53  CA        11.2800  -11.1460   -3.0470 C.3    46  PHE46       0.1736
     54  C         12.4220  -11.5440   -2.1320 C.2    46  PHE46       0.2595
     55  O         13.3860  -10.7920   -1.9810 O.2    46  PHE46      -0.2718
     56  CB        10.6710   -9.7700   -2.6980 C.3    46  PHE46       0.0547
     57  CG         9.5090   -9.4430   -3.5800 C.ar   46  PHE46      -0.0202
     58  CD1        9.7340   -8.9680   -4.8550 C.ar   46  PHE46      -0.0042
     59  CD2        8.1970   -9.6970   -3.1580 C.ar   46  PHE46      -0.0042
     60  CE1        8.6770   -8.7230   -5.7410 C.ar   46  PHE46      -0.0003
     61  CE2        7.1060   -9.4310   -4.0320 C.ar   46  PHE46      -0.0003
     62  CZ         7.3620   -8.9590   -5.3180 C.ar   46  PHE46      -0.0000
     63  N         12.2810  -12.6650   -1.4570 N.am   47  TYR47      -0.1976
     64  CA        13.3800  -13.2050   -0.6530 C.3    47  TYR47       0.1639
     65  C         14.3540  -13.9470   -1.5440 C.2    47  TYR47       0.2290
     66  O         13.9480  -14.7850   -2.3940 O.2    47  TYR47      -0.2864
     67  CB        12.8850  -14.1730    0.4260 C.3    47  TYR47       0.0560
     68  CG        11.9570  -13.5980    1.4720 C.ar   47  TYR47      -0.0198
     69  CD1       12.0240  -12.2520    1.8480 C.ar   47  TYR47      -0.0009
     70  CD2       11.0470  -14.4210    2.1310 C.ar   47  TYR47      -0.0009
     71  CE1       11.2020  -11.7700    2.8690 C.ar   47  TYR47       0.0417
     72  CE2       10.1890  -13.9490    3.1250 C.ar   47  TYR47       0.0417
     73  CZ        10.3060  -12.6060    3.5170 C.ar   47  TYR47       0.1957
     74  OH         9.4690  -12.0880    4.5070 O.3    47  TYR47      -0.2866
     75  N         13.7350  -17.0180    6.5040 N.3    55  MET55      -0.1245
     76  CA        12.5970  -16.1300    6.6140 C.3    55  MET55       0.1570
     77  C         11.3710  -16.8520    7.1240 C.2    55  MET55       0.2261
     78  O         10.6050  -16.3040    7.9300 O.2    55  MET55      -0.2867
     79  CB        12.2950  -15.4930    5.2700 C.3    55  MET55       0.0387
     80  CG        13.4360  -14.6580    4.7260 C.3    55  MET55       0.0595
     81  SD        14.2710  -13.5550    5.9130 S.3    55  MET55      -0.1393
     82  CE        13.0330  -12.3060    6.1860 C.3    55  MET55       0.0692
     83  N         11.8890  -16.9470   10.8720 N.3    58  SER58      -0.1202
     84  CA        11.5970  -15.6550   11.4980 C.3    58  SER58       0.2020
     85  C         10.0950  -15.3450   11.5530 C.2    58  SER58       0.2618
     86  O          9.6350  -14.7820   12.5310 O.2    58  SER58      -0.2717
     87  CB        12.3100  -14.5220   10.7630 C.3    58  SER58       0.2103
     88  OG        13.7010  -14.7460   10.7870 O.3    58  SER58      -0.2182
     89  N          9.3840  -15.7080   10.4880 N.am   59  HIS59      -0.1975
     90  CA         7.9430  -15.4840   10.4180 C.3    59  HIS59       0.1656
     91  C          7.2800  -16.2720   11.5520 C.2    59  HIS59       0.2291
     92  O          6.3910  -15.7570   12.2090 O.2    59  HIS59      -0.2864
     93  CB         7.3930  -15.8430    9.0360 C.3    59  HIS59       0.0771
     94  CG         5.9180  -15.5940    8.8810 C.ar   59  HIS59       0.0820
     95  ND1        5.0110  -16.6150    8.6810 N.ar   59  HIS59      -0.2267
     96  CD2        5.1970  -14.4430    8.8680 C.ar   59  HIS59       0.1154
     97  CE1        3.7980  -16.1040    8.5430 C.ar   59  HIS59       0.1986
     98  NE2        3.8790  -14.7900    8.6750 N.ar   59  HIS59      -0.2212
     99  N          7.8950  -14.4490   14.7050 N.3    62  LEU62      -0.1245
    100  CA         7.0680  -13.2480   14.7100 C.3    62  LEU62       0.1561
    101  C          5.6390  -13.5710   15.1920 C.2    62  LEU62       0.2260
    102  O          5.0690  -12.8630   16.0150 O.2    62  LEU62      -0.2867
    103  CB         7.0730  -12.6310   13.3170 C.3    62  LEU62       0.0270
    104  CG         6.1260  -11.4610   13.0420 C.3    62  LEU62       0.0019
    105  CD1        6.4370  -10.3860   14.0350 C.3    62  LEU62       0.0001
    106  CD2        6.3440  -11.0300   11.5590 C.3    62  LEU62       0.0001
    107  N          9.5200   -9.4320   15.9130 N.3    68  VAL68      -0.1245
    108  CA        10.7630  -10.1510   15.5990 C.3    68  VAL68       0.1561
    109  C         11.7000   -9.1560   14.9630 C.2    68  VAL68       0.2260
    110  O         11.2450   -8.2060   14.3520 O.2    68  VAL68      -0.2867
    111  CB        10.5330  -11.3120   14.5900 C.3    68  VAL68       0.0252
    112  CG1       10.4140  -10.8190   13.1520 C.3    68  VAL68       0.0019
    113  CG2       11.6050  -12.4120   14.7750 C.3    68  VAL68       0.0019
    114  N         14.5040   -9.6380   12.0490 N.3    70  SER70      -0.1217
    115  CA        14.9620  -10.6530   11.1470 C.3    70  SER70       0.1889
    116  C         16.5000  -10.7980   11.2970 C.2    70  SER70       0.2288
    117  O         17.1630   -9.9520   11.9090 O.2    70  SER70      -0.2866
    118  CB        14.6290  -10.2910    9.6870 C.3    70  SER70       0.2089
    119  OG        15.4080   -9.1410    9.2800 O.3    70  SER70      -0.2183
    120  N         19.1600  -10.3370    5.6910 N.3    73  TYR73      -0.1241
    121  CA        18.7640  -11.1670    4.5350 C.3    73  TYR73       0.1605
    122  C         18.7950  -10.3610    3.2420 C.2    73  TYR73       0.2264
    123  O         19.0640   -9.1360    3.2530 O.2    73  TYR73      -0.2867
    124  CB        17.3750  -11.7890    4.7580 C.3    73  TYR73       0.0534
    125  CG        16.2520  -10.8030    4.7630 C.ar   73  TYR73      -0.0201
    126  CD1       15.9730  -10.0410    5.9180 C.ar   73  TYR73      -0.0009
    127  CD2       15.4010  -10.6550    3.6590 C.ar   73  TYR73      -0.0009
    128  CE1       14.9290   -9.1300    5.9440 C.ar   73  TYR73       0.0417
    129  CE2       14.3480   -9.7330    3.6650 C.ar   73  TYR73       0.0417
    130  CZ        14.1080   -8.9780    4.8250 C.ar   73  TYR73       0.1957
    131  OH        13.0580   -8.0920    4.8300 O.3    73  TYR73      -0.2866
    132  N         16.9450   -9.0620   -0.2630 N.3    75  MET75      -0.1245
    133  CA        15.7400   -8.8690   -1.0000 C.3    75  MET75       0.1570
    134  C         16.1140   -8.7150   -2.4770 C.2    75  MET75       0.2261
    135  O         16.9740   -7.9180   -2.8410 O.2    75  MET75      -0.2867
    136  CB        14.9870   -7.6230   -0.5010 C.3    75  MET75       0.0387
    137  CG        13.7040   -7.3620   -1.3470 C.3    75  MET75       0.0595
    138  SD        12.7570   -5.9920   -0.5740 S.3    75  MET75      -0.1393
    139  CE        11.2360   -6.0830   -1.4900 C.3    75  MET75       0.0692
    140  N         19.0960   -6.4690    3.6840 N.3    85  LEU85      -0.1245
    141  CA        18.0490   -5.7890    4.4700 C.3    85  LEU85       0.1561
    142  C         18.0240   -6.3570    5.9040 C.2    85  LEU85       0.2260
    143  O         18.4480   -7.4940    6.1090 O.2    85  LEU85      -0.2867
    144  CB        16.6100   -6.0690    3.8900 C.3    85  LEU85       0.0270
    145  CG        15.9800   -5.3890    2.6860 C.3    85  LEU85       0.0019
    146  CD1       14.5130   -5.6110    2.8150 C.3    85  LEU85       0.0001
    147  CD2       16.2180   -3.8960    2.7400 C.3    85  LEU85       0.0001
    148  N         14.7280   -6.3430    8.9070 N.3    87  THR87      -0.1218
    149  CA        13.3500   -5.9760    9.1200 C.3    87  THR87       0.1862
    150  C         12.9630   -6.1890   10.5720 C.2    87  THR87       0.2287
    151  O         13.3170   -7.2250   11.1970 O.2    87  THR87      -0.2866
    152  CB        12.4060   -6.7990    8.2320 C.3    87  THR87       0.1770
    153  OG1       12.6930   -6.4180    6.8820 O.3    87  THR87      -0.2211
    154  CG2       10.9750   -6.5040    8.5550 C.3    87  THR87       0.0375
    155  N          9.6130   -6.7560   12.5010 N.3    89  GLY89      -0.1225
    156  CA         8.2000   -7.0380   12.2410 C.3    89  GLY89       0.1811
    157  C          7.3590   -6.9620   13.5240 C.2    89  GLY89       0.2280
    158  O          7.8710   -7.2500   14.6250 O.2    89  GLY89      -0.2866
    159  N          0.5520   -7.7030    9.7380 N.3   103  ILE103     -0.1245
    160  CA         1.9290   -7.5720   10.1360 C.3   103  ILE103      0.1561
    161  C          2.4180   -6.1990    9.6190 C.2   103  ILE103      0.2260
    162  O          2.1890   -5.8410    8.4720 O.2   103  ILE103     -0.2867
    163  CB         2.7850   -8.6770    9.5130 C.3   103  ILE103      0.0252
    164  CG1        2.4620  -10.0080   10.2020 C.3   103  ILE103      0.0019
    165  CG2        4.3300   -8.3600    9.8240 C.3   103  ILE103      0.0019
    166  CD1        2.9300  -11.3030    9.4490 C.3   103  ILE103      0.0001
    167  N          5.8330   -4.0750    9.0050 N.3   105  CYS105     -0.1235
    168  CA         7.2770   -4.2600    8.8750 C.3   105  CYS105      0.1677
    169  C          7.9840   -2.9040    8.6720 C.2   105  CYS105      0.2270
    170  O          7.5530   -2.0960    7.8450 O.2   105  CYS105     -0.2867
    171  CB         7.5540   -5.1290    7.6470 C.3   105  CYS105      0.0956
    172  SG         7.0610   -6.8340    7.9450 S.3   105  CYS105     -0.0801
    173  N         11.4850   -1.9220    7.3440 N.3   107  ASN107     -0.1240
    174  CA        12.5640   -2.5520    6.5590 C.3   107  ASN107      0.1653
    175  C         13.6370   -1.4800    6.3630 C.2   107  ASN107      0.2266
    176  O         13.2880   -0.3810    6.0060 O.2   107  ASN107     -0.2867
    177  CB        11.9860   -2.9950    5.1870 C.3   107  ASN107      0.1155
    178  CG        10.7110   -3.8070    5.3530 C.2   107  ASN107      0.2627
    179  OD1       10.7660   -4.9540    5.8270 O.2   107  ASN107     -0.2716
    180  ND2        9.5750   -3.2200    5.0090 N.am  107  ASN107     -0.0877
@<TRIPOS>BOND
     1    60    62   ar
     2    60    58   ar
     3    62    61   ar
     4    58    57   ar
     5    61    59   ar
     6    57    59   ar
     7    57    56    1
     8    53    52    1
     9    53    56    1
    10    53    54    1
    11   135   134    2
    12   134   133    1
    13    66    65    2
    14    54    55    2
    15    54    63   am
    16    65    64    1
    17   139   138    1
    18    63    64    1
    19   137   138    1
    20   137   136    1
    21   133   136    1
    22   133   132    1
    23    43    45   ar
    24    43    41   ar
    25    64    67    1
    26    45    46   ar
    27    50    49    2
    28    40    41    1
    29    40    37    1
    30    39    38    2
    31    41    42   ar
    32    49    48    1
    33    46    44   ar
    34    47    48    1
    35    67    68    1
    36    42    44   ar
    37    48    51    1
    38    36    37    1
    39    38    37    1
    40    68    69   ar
    41    68    70   ar
    42    11    10   ar
    43    11     9   ar
    44    10     8   ar
    45     9     7   ar
    46    69    71   ar
    47     8     6   ar
    48     7     6   ar
    49    70    72   ar
    50     6     5    1
    51    31    30    2
    52     5     2    1
    53   145   147    1
    54   145   146    1
    55   145   144    1
    56    71    73   ar
    57    30    29    1
    58    72    73   ar
    59    26    24   ar
    60    26    27   ar
    61   122   123    2
    62   122   121    1
    63    73    74    1
    64    24    23   ar
    65   127   129   ar
    66   127   125   ar
    67   129   130   ar
    68   140   141    1
    69    16    17    1
    70    16    13    1
    71     2     1    1
    72     2     3    1
    73   144   141    1
    74    27    25   ar
    75    29    32    1
    76    29    28    1
    77    32    33    1
    78   141   142    1
    79    13    12    1
    80    13    14    1
    81   121   124    1
    82   121   120    1
    83    80    79    1
    84    80    81    1
    85    23    25   ar
    86    23    22    1
    87   124   125    1
    88   125   126   ar
    89     3     4    2
    90   130   131    1
    91   130   128   ar
    92   180   178   am
    93    19    22    1
    94    19    18    1
    95    19    20    1
    96   177   178    1
    97   177   174    1
    98    35    34    1
    99    79    76    1
   100   178   179    2
   101    14    15    2
   102    33    34    1
   103    20    21    2
   104   142   143    2
   105    81    82    1
   106   126   128   ar
   107   176   175    2
   108   175   174    1
   109    75    76    1
   110   174   173    1
   111    76    77    1
   112   153   152    1
   113    77    78    2
   114   171   172    1
   115   171   168    1
   116   170   169    2
   117   152   154    1
   118   152   149    1
   119   162   161    2
   120    97    98   ar
   121    97    95   ar
   122   169   168    1
   123    98    96   ar
   124    95    94   ar
   125    96    94   ar
   126   168   167    1
   127    94    93    1
   128   148   149    1
   129    93    90    1
   130   149   150    1
   131   119   118    1
   132   166   164    1
   133   163   165    1
   134   163   160    1
   135   163   164    1
   136   161   160    1
   137   118   115    1
   138   159   160    1
   139    90    89    1
   140    90    91    1
   141    89    85   am
   142   150   151    2
   143    87    88    1
   144    87    84    1
   145    83    84    1
   146   115   116    1
   147   115   114    1
   148   116   117    2
   149    84    85    1
   150    91    92    2
   151    85    86    2
   152   106   104    1
   153   156   155    1
   154   156   157    1
   155   104   103    1
   156   104   105    1
   157   112   111    1
   158   103   100    1
   159   157   158    2
   160   110   109    2
   161   111   113    1
   162   111   108    1
   163    99   100    1
   164   100   101    1
   165   109   108    1
   166   101   102    2
   167   108   107    1
