@<TRIPOS>MOLECULE
tmp/3h83B00.pdb
 116 113 0 0 0
SMALL
GASTEIGER

@<TRIPOS>ATOM
      1  N         35.8530   -6.3800   44.7780 N.3    53  GLY53      -0.1225
      2  CA        35.6920   -6.9950   46.1050 C.3    53  GLY53       0.1811
      3  C         36.9040   -7.0540   47.0210 C.2    53  GLY53       0.2280
      4  O         36.7680   -7.0760   48.2340 O.2    53  GLY53      -0.2866
      5  N         39.4200  -11.0750   47.9330 N.3   109  ASP109     -0.1225
      6  CA        38.4530  -11.1800   49.0240 C.3   109  ASP109      0.1805
      7  C         37.9670  -12.6210   49.2790 C.2   109  ASP109      0.2597
      8  O         37.9320  -13.0710   50.4220 O.2   109  ASP109     -0.2718
      9  CB        37.2400  -10.2560   48.8590 C.3   109  ASP109      0.1424
     10  CG        36.5000  -10.4400   47.5400 C.2   109  ASP109      0.3668
     11  OD1       36.9430  -11.1550   46.6360 O.co2 109  ASP109     -0.2456
     12  OD2       35.4150   -9.8520   47.4240 O.co2 109  ASP109     -0.2456
     13  N         37.7090  -13.3560   48.2160 N.am  110  ILE110     -0.1980
     14  CA        37.2600  -14.7300   48.3170 C.3   110  ILE110      0.1595
     15  C         37.6860  -15.5080   47.1040 C.2   110  ILE110      0.2287
     16  O         37.7500  -14.9810   46.0120 O.2   110  ILE110     -0.2864
     17  CB        35.7120  -14.8440   48.5280 C.3   110  ILE110      0.0276
     18  CG1       35.3350  -16.3110   48.8540 C.3   110  ILE110      0.0022
     19  CG2       34.9080  -14.2920   47.2730 C.3   110  ILE110      0.0022
     20  CD1       33.9840  -16.4660   49.5600 C.3   110  ILE110      0.0001
     21  N         29.6740  -20.9250   53.4070 N.3   159  HIS159     -0.1241
     22  CA        28.2950  -20.3840   53.3040 C.3   159  HIS159      0.1621
     23  C         27.8880  -19.7070   52.0100 C.2   159  HIS159      0.2264
     24  O         28.6660  -19.0120   51.3250 O.2   159  HIS159     -0.2867
     25  CB        28.0370  -19.3530   54.4080 C.3   159  HIS159      0.0745
     26  CG        28.2530  -19.8680   55.8000 C.ar  159  HIS159      0.0817
     27  ND1       29.4990  -20.2320   56.2750 N.ar  159  HIS159     -0.2268
     28  CD2       27.3920  -20.0450   56.8280 C.ar  159  HIS159      0.1154
     29  CE1       29.3880  -20.6380   57.5290 C.ar  159  HIS159      0.1986
     30  NE2       28.1250  -20.5230   57.8950 N.ar  159  HIS159     -0.2212
     31  N         25.4600  -16.7980   50.1810 N.3   161  PHE161     -0.1227
     32  CA        24.8790  -15.5420   50.5650 C.3   161  PHE161      0.1736
     33  C         25.6500  -14.8410   51.7190 C.2   161  PHE161      0.2595
     34  O         25.0370  -14.2890   52.6500 O.2   161  PHE161     -0.2718
     35  CB        23.4010  -15.7280   50.9310 C.3   161  PHE161      0.0547
     36  CG        22.5640  -16.2870   49.8080 C.ar  161  PHE161     -0.0202
     37  CD1       21.8940  -17.5050   49.9540 C.ar  161  PHE161     -0.0042
     38  CD2       22.4630  -15.6030   48.5980 C.ar  161  PHE161     -0.0042
     39  CE1       21.1260  -18.0140   48.9240 C.ar  161  PHE161     -0.0003
     40  CE2       21.6940  -16.1090   47.5660 C.ar  161  PHE161     -0.0003
     41  CZ        21.0250  -17.3180   47.7270 C.ar  161  PHE161     -0.0000
     42  N         26.9800  -14.8430   51.6000 N.am  162  VAL162     -0.1966
     43  CA        27.8270  -14.0510   52.4810 C.3   162  VAL162      0.1727
     44  C         28.0880  -12.6550   51.8480 C.2   162  VAL162      0.2616
     45  O         28.3560  -12.5450   50.6570 O.2   162  VAL162     -0.2715
     46  CB        29.1440  -14.7440   52.7800 C.3   162  VAL162      0.0290
     47  CG1       30.0840  -13.7860   53.4070 C.3   162  VAL162      0.0023
     48  CG2       28.9050  -15.9160   53.7160 C.3   162  VAL162      0.0023
     49  N         28.0130  -11.6150   52.6630 N.am  163  VAL163     -0.1977
     50  CA        28.2610  -10.2580   52.1890 C.3   163  VAL163      0.1596
     51  C         29.1110   -9.4950   53.2010 C.2   163  VAL163      0.2287
     52  O         29.2830   -9.9400   54.3550 O.2   163  VAL163     -0.2864
     53  CB        26.9510   -9.4700   52.0110 C.3   163  VAL163      0.0276
     54  CG1       26.0600  -10.0690   50.8660 C.3   163  VAL163      0.0022
     55  CG2       26.2360   -9.3620   53.3190 C.3   163  VAL163      0.0022
     56  N         33.7020   -6.0260   51.3700 N.3   166  GLY166     -0.1210
     57  CA        33.9950   -6.1140   49.9680 C.3   166  GLY166      0.1956
     58  C         33.0650   -7.0340   49.1820 C.2   166  GLY166      0.2612
     59  O         32.8510   -6.8350   47.9830 O.2   166  GLY166     -0.2717
     60  N         32.4890   -8.0260   49.8600 N.am  167  LEU167     -0.1965
     61  CA        31.5230   -8.9430   49.2310 C.3   167  LEU167      0.1728
     62  C         30.1450   -8.2980   49.1270 C.2   167  LEU167      0.2616
     63  O         29.6240   -7.6900   50.0960 O.2   167  LEU167     -0.2715
     64  CB        31.4090  -10.2370   50.0630 C.3   167  LEU167      0.0311
     65  CG        32.6850  -11.0910   50.1750 C.3   167  LEU167      0.0022
     66  CD1       32.3290  -12.2650   51.1100 C.3   167  LEU167      0.0001
     67  CD2       33.0540  -11.5780   48.8340 C.3   167  LEU167      0.0001
     68  N         29.5220   -8.4630   47.9750 N.am  168  ASP168     -0.1957
     69  CA        28.2620   -7.8000   47.6840 C.3   168  ASP168      0.1840
     70  C         27.1180   -8.7750   47.4480 C.2   168  ASP168      0.2622
     71  O         27.3130   -9.9750   47.1860 O.2   168  ASP168     -0.2715
     72  CB        28.3650   -6.9580   46.3910 C.3   168  ASP168      0.1450
     73  CG        28.2830   -7.8050   45.0940 C.2   168  ASP168      0.3671
     74  OD1       29.1690   -8.6490   44.8960 O.co2 168  ASP168     -0.2456
     75  OD2       27.4050   -7.5550   44.2160 O.co2 168  ASP168     -0.2456
     76  N         25.9160   -8.2290   47.5230 N.am  169  TYR169     -0.1960
     77  CA        24.7240   -8.9190   46.9850 C.3   169  TYR169      0.1771
     78  C         24.0390   -7.8560   46.1280 C.2   169  TYR169      0.2619
     79  O         23.7020   -6.7780   46.6510 O.2   169  TYR169     -0.2715
     80  CB        23.7870   -9.4440   48.0510 C.3   169  TYR169      0.0574
     81  CG        22.4750   -9.9550   47.4410 C.ar  169  TYR169     -0.0198
     82  CD1       22.4360  -11.1030   46.6570 C.ar  169  TYR169     -0.0009
     83  CD2       21.2930   -9.2360   47.6060 C.ar  169  TYR169     -0.0009
     84  CE1       21.2340  -11.5560   46.0980 C.ar  169  TYR169      0.0417
     85  CE2       20.0960   -9.6680   47.0530 C.ar  169  TYR169      0.0417
     86  CZ        20.0660  -10.8270   46.3180 C.ar  169  TYR169      0.1957
     87  OH        18.8750  -11.2180   45.7890 O.3   169  TYR169     -0.2866
     88  N         24.0550   -8.0710   44.8110 N.am  170  LYS170     -0.1963
     89  CA        23.5050   -7.1200   43.8550 C.3   170  LYS170      0.1728
     90  C         24.1150   -5.7130   44.0190 C.2   170  LYS170      0.2616
     91  O         23.3900   -4.7420   44.0920 O.2   170  LYS170     -0.2715
     92  CB        22.0170   -7.0090   44.0740 C.3   170  LYS170      0.0311
     93  CG        21.1150   -7.8370   43.2550 C.3   170  LYS170      0.0038
     94  CD        21.3210   -9.2800   43.2650 C.3   170  LYS170      0.0206
     95  CE        20.0340   -9.9110   42.6470 C.3   170  LYS170      0.1093
     96  NZ        20.3320  -11.1280   41.8650 N.3   170  LYS170     -0.1314
     97  N         25.4320   -5.6560   44.2190 N.am  171  GLU171     -0.1977
     98  CA        26.2300   -4.4270   44.4180 C.3   171  GLU171      0.1602
     99  C         26.1120   -3.6990   45.7500 C.2   171  GLU171      0.2287
    100  O         26.8620   -2.7150   45.9940 O.2   171  GLU171     -0.2864
    101  CB        26.0760   -3.4310   43.2760 C.3   171  GLU171      0.0415
    102  CG        26.4430   -3.9700   41.9050 C.3   171  GLU171      0.1163
    103  CD        27.9070   -4.5070   41.7930 C.2   171  GLU171      0.3649
    104  OE1       28.8720   -3.9590   42.4170 O.co2 171  GLU171     -0.2457
    105  OE2       28.0830   -5.4940   41.0400 O.co2 171  GLU171     -0.2457
    106  N         28.9510   -4.0920   50.3190 N.3   174  ARG174     -0.1245
    107  CA        30.4080   -4.1640   50.3110 C.3   174  ARG174      0.1563
    108  C         31.0460   -3.3630   51.4450 C.2   174  ARG174      0.2260
    109  O         32.1360   -3.6810   51.8900 O.2   174  ARG174     -0.2867
    110  CB        30.9930   -3.7030   48.9650 C.3   174  ARG174      0.0307
    111  CG        30.5090   -4.4630   47.7160 C.3   174  ARG174      0.0489
    112  CD        31.3210   -3.9860   46.5300 C.3   174  ARG174      0.2205
    113  NE        30.8270   -4.4560   45.2400 N.pl3 174  ARG174     -0.0865
    114  CZ        31.2320   -5.5720   44.6410 C.cat 174  ARG174      0.5346
    115  NH1       32.0620   -6.4350   45.2670 N.pl3 174  ARG174      0.1354
    116  NH2       30.7450   -5.8800   43.4550 N.pl3 174  ARG174      0.1354
@<TRIPOS>BOND
     1   105   103   ar
     2   103   102    1
     3   103   104   ar
     4    96    95    1
     5   102   101    1
     6    95    94    1
     7    93    94    1
     8    93    92    1
     9   101    98    1
    10   116   114    1
    11    89    90    1
    12    89    92    1
    13    89    88    1
    14    90    91    2
    15    90    97   am
    16    75    73   ar
    17    97    98    1
    18    98    99    1
    19   114   113    2
    20   114   115    1
    21     1     2    1
    22    88    78   am
    23    74    73   ar
    24    73    72    1
    25   113   112    1
    26    99   100    2
    27    87    86    1
    28    16    15    2
    29    84    86   ar
    30    84    82   ar
    31     2     3    1
    32    78    79    2
    33    78    77    1
    34    86    85   ar
    35    72    69    1
    36   112   111    1
    37    11    10   ar
    38    82    81   ar
    39    77    76    1
    40    77    80    1
    41     3     4    2
    42    85    83   ar
    43    15    14    1
    44    71    70    2
    45    19    17    1
    46    12    10   ar
    47    81    83   ar
    48    81    80    1
    49    70    76   am
    50    70    69    1
    51    10     9    1
    52    40    41   ar
    53    40    38   ar
    54    69    68    1
    55   111   110    1
    56    41    39   ar
    57     5     6    1
    58    68    62   am
    59    59    58    2
    60    13    14    1
    61    13     7   am
    62    14    17    1
    63    17    18    1
    64    38    36   ar
    65    67    65    1
    66    18    20    1
    67     9     6    1
    68    39    37   ar
    69   110   107    1
    70     6     7    1
    71    62    61    1
    72    62    63    2
    73    58    60   am
    74    58    57    1
    75    61    60    1
    76    61    64    1
    77     7     8    2
    78    36    37   ar
    79    36    35    1
    80    57    56    1
    81    64    65    1
    82    65    66    1
    83    31    32    1
    84   107   106    1
    85   107   108    1
    86    32    35    1
    87    32    33    1
    88    45    44    2
    89    54    53    1
    90    24    23    2
    91   108   109    2
    92    42    33   am
    93    42    43    1
    94    33    34    2
    95    44    43    1
    96    44    49   am
    97    23    22    1
    98    53    50    1
    99    53    55    1
   100    50    49    1
   101    50    51    1
   102    43    46    1
   103    46    47    1
   104    46    48    1
   105    51    52    2
   106    22    21    1
   107    22    25    1
   108    25    26    1
   109    26    27   ar
   110    26    28   ar
   111    27    29   ar
   112    28    30   ar
   113    29    30   ar
