@<TRIPOS>MOLECULE
tmp/3h85A00.pdb
 200 198 0 0 0
SMALL
GASTEIGER

@<TRIPOS>ATOM
      1  N         55.7870    4.6470    7.7890 N.3    15  LEU15      -0.1231
      2  CA        55.5600    3.2810    8.2150 C.3    15  LEU15       0.1693
      3  C         55.8610    2.3030    7.0920 C.2    15  LEU15       0.2592
      4  O         55.6470    2.5930    5.9080 O.2    15  LEU15      -0.2718
      5  CB        54.1440    3.0940    8.7830 C.3    15  LEU15       0.0284
      6  CG        52.9480    3.2240    7.8370 C.3    15  LEU15       0.0019
      7  CD1       52.8340    1.9840    6.9530 C.3    15  LEU15       0.0001
      8  CD2       51.6590    3.4400    8.6170 C.3    15  LEU15       0.0001
      9  N         56.3910    1.1490    7.4890 N.am   16  PHE16      -0.1962
     10  CA        56.7350    0.0810    6.5630 C.3    16  PHE16       0.1771
     11  C         55.9740   -1.1890    6.9430 C.2    16  PHE16       0.2619
     12  O         55.9860   -1.5970    8.1130 O.2    16  PHE16      -0.2715
     13  CB        58.2360   -0.1870    6.6170 C.3    16  PHE16       0.0574
     14  CG        59.0790    1.0130    6.3020 C.ar   16  PHE16      -0.0200
     15  CD1       59.5500    1.2280    5.0100 C.ar   16  PHE16      -0.0042
     16  CD2       59.4040    1.9250    7.2930 C.ar   16  PHE16      -0.0042
     17  CE1       60.3300    2.3390    4.7110 C.ar   16  PHE16      -0.0003
     18  CE2       60.1850    3.0400    7.0070 C.ar   16  PHE16      -0.0003
     19  CZ        60.6510    3.2500    5.7170 C.ar   16  PHE16      -0.0000
     20  N         55.3150   -1.7970    5.9540 N.am   17  LEU17      -0.1963
     21  CA        54.5940   -3.0620    6.1410 C.3    17  LEU17       0.1728
     22  C         55.2570   -4.2160    5.4060 C.2    17  LEU17       0.2616
     23  O         55.4870   -4.1510    4.1920 O.2    17  LEU17      -0.2715
     24  CB        53.1490   -2.9450    5.6560 C.3    17  LEU17       0.0311
     25  CG        52.2240   -2.0570    6.4840 C.3    17  LEU17       0.0022
     26  CD1       50.8670   -1.9360    5.8250 C.3    17  LEU17       0.0001
     27  CD2       52.1000   -2.6140    7.8950 C.3    17  LEU17       0.0001
     28  N         55.5470   -5.2780    6.1460 N.am   18  ASP18      -0.1971
     29  CA        56.0630   -6.5010    5.5440 C.3    18  ASP18       0.1709
     30  C         55.0080   -7.6030    5.5620 C.2    18  ASP18       0.2293
     31  O         54.5020   -7.9770    6.6260 O.2    18  ASP18      -0.2864
     32  CB        57.3330   -6.9640    6.2630 C.3    18  ASP18       0.1436
     33  CG        58.5040   -6.0390    6.0120 C.2    18  ASP18       0.3671
     34  OD1       58.3750   -5.1380    5.1570 O.co2  18  ASP18      -0.2456
     35  OD2       59.5560   -6.2050    6.6590 O.co2  18  ASP18      -0.2456
     36  N         54.7830  -11.3450    4.8620 N.3    20  LEU20      -0.1245
     37  CA        55.6600  -12.5000    4.6960 C.3    20  LEU20       0.1561
     38  C         54.8800  -13.8120    4.7280 C.2    20  LEU20       0.2260
     39  O         54.2100  -14.1290    5.7230 O.2    20  LEU20      -0.2867
     40  CB        56.7410  -12.4870    5.7840 C.3    20  LEU20       0.0270
     41  CG        57.4250  -11.1180    5.9380 C.3    20  LEU20       0.0019
     42  CD1       58.3620  -11.0830    7.1200 C.3    20  LEU20       0.0001
     43  CD2       58.1550  -10.6780    4.6490 C.3    20  LEU20       0.0001
     44  N         56.5630   -1.7480   10.8210 N.3    45  LYS45      -0.1245
     45  CA        57.5890   -0.9040   11.3860 C.3    45  LYS45       0.1561
     46  C         57.0940    0.5210   11.2330 C.2    45  LYS45       0.2260
     47  O         56.9060    1.0100   10.1160 O.2    45  LYS45      -0.2867
     48  CB        58.9180   -1.1260   10.6640 C.3    45  LYS45       0.0271
     49  CG        59.2530   -2.6080   10.4870 C.3    45  LYS45       0.0035
     50  CD        60.5420   -2.7990    9.7200 C.3    45  LYS45       0.0206
     51  CE        60.4680   -3.9890    8.8000 C.3    45  LYS45       0.1093
     52  NZ        61.6130   -3.9080    7.8580 N.3    45  LYS45      -0.1314
     53  N         59.2900  -10.9480  -10.9670 N.3   134  LEU134     -0.1245
     54  CA        60.4790  -11.7760  -11.0500 C.3   134  LEU134      0.1561
     55  C         60.5880  -12.6360   -9.8020 C.2   134  LEU134      0.2260
     56  O         60.4890  -12.1290   -8.6800 O.2   134  LEU134     -0.2867
     57  CB        61.7100  -10.8850  -11.1510 C.3   134  LEU134      0.0270
     58  CG        62.6370  -11.1750  -12.3240 C.3   134  LEU134      0.0019
     59  CD1       61.8100  -11.4570  -13.5750 C.3   134  LEU134      0.0001
     60  CD2       63.5690   -9.9940  -12.5380 C.3   134  LEU134      0.0001
     61  N         63.0540  -15.1680   -7.5520 N.3   136  GLN136     -0.1231
     62  CA        64.4810  -15.3950   -7.3930 C.3   136  GLN136      0.1698
     63  C         64.8250  -16.4200   -6.3200 C.2   136  GLN136      0.2592
     64  O         63.9460  -16.8980   -5.5960 O.2   136  GLN136     -0.2718
     65  CB        65.2310  -14.0750   -7.1960 C.3   136  GLN136      0.0381
     66  CG        64.7430  -13.2110   -6.0680 C.3   136  GLN136      0.0905
     67  CD        65.2940  -11.7860   -6.1680 C.2   136  GLN136      0.2608
     68  OE1       66.0380  -11.4530   -7.1040 O.2   136  GLN136     -0.2717
     69  NE2       64.9260  -10.9400   -5.2030 N.am  136  GLN136     -0.0878
     70  N         66.1080  -16.7640   -6.2440 N.am  137  LYS137     -0.1980
     71  CA        66.5880  -17.8090   -5.3470 C.3   137  LYS137      0.1596
     72  C         65.8720  -19.1300   -5.6250 C.2   137  LYS137      0.2287
     73  O         65.4430  -19.8300   -4.7090 O.2   137  LYS137     -0.2864
     74  CB        66.4320  -17.3940   -3.8890 C.3   137  LYS137      0.0298
     75  CG        67.3150  -16.2340   -3.5060 C.3   137  LYS137      0.0038
     76  CD        66.9400  -15.6850   -2.1440 C.3   137  LYS137      0.0206
     77  CE        67.3640  -14.2280   -2.0220 C.3   137  LYS137      0.1093
     78  NZ        66.8270  -13.6020   -0.7760 N.3   137  LYS137     -0.1314
     79  N         61.4210  -17.5680   -4.2060 N.3   209  GLU209     -0.1231
     80  CA        61.0010  -16.3890   -3.4800 C.3   209  GLU209      0.1699
     81  C         60.2800  -15.5300   -4.4980 C.2   209  GLU209      0.2592
     82  O         60.7520  -15.3840   -5.6280 O.2   209  GLU209     -0.2718
     83  CB        62.2350  -15.6580   -2.9680 C.3   209  GLU209      0.0402
     84  CG        62.0600  -14.9060   -1.6820 C.3   209  GLU209      0.1161
     85  CD        63.3910  -14.3990   -1.1570 C.2   209  GLU209      0.3649
     86  OE1       64.0950  -13.6940   -1.9190 O.co2 209  GLU209     -0.2457
     87  OE2       63.7430  -14.7140    0.0040 O.co2 209  GLU209     -0.2457
     88  N         59.1290  -14.9850   -4.1190 N.am  210  VAL210     -0.1966
     89  CA        58.3520  -14.1690   -5.0370 C.3   210  VAL210      0.1712
     90  C         57.8380  -12.9200   -4.3460 C.2   210  VAL210      0.2458
     91  O         57.5340  -12.9410   -3.1490 O.2   210  VAL210     -0.2730
     92  CB        57.1640  -14.9610   -5.6570 C.3   210  VAL210      0.0289
     93  CG1       57.6730  -15.9740   -6.6640 C.3   210  VAL210      0.0023
     94  CG2       56.3250  -15.6330   -4.5650 C.3   210  VAL210      0.0023
     95  N         57.7260  -11.8250   -5.1040 N.am  211  PRO211     -0.2727
     96  CA        57.2960  -10.5420   -4.5540 C.3   211  PRO211      0.1402
     97  C         55.7770  -10.4100   -4.5330 C.2   211  PRO211      0.2269
     98  O         55.2360   -9.4540   -5.0880 O.2   211  PRO211     -0.2865
     99  CB        57.8900   -9.5300   -5.5350 C.3   211  PRO211      0.0296
    100  CG        57.9760  -10.2590   -6.8390 C.3   211  PRO211      0.0237
    101  CD        58.0120  -11.7490   -6.5480 C.3   211  PRO211      0.0939
    102  N         47.2050   -5.5140    0.9690 N.3   219  VAL219     -0.1231
    103  CA        46.8680   -4.4810    1.9330 C.3   219  VAL219      0.1692
    104  C         46.0340   -3.4340    1.1980 C.2   219  VAL219      0.2592
    105  O         46.4690   -2.8930    0.1870 O.2   219  VAL219     -0.2718
    106  CB        48.1230   -3.8510    2.5450 C.3   219  VAL219      0.0266
    107  CG1       47.7520   -2.6640    3.4430 C.3   219  VAL219      0.0020
    108  CG2       48.9040   -4.9010    3.3250 C.3   219  VAL219      0.0020
    109  N         44.8180   -3.1860    1.6740 N.am  220  ARG220     -0.1966
    110  CA        43.9380   -2.2150    1.0250 C.3   220  ARG220      0.1729
    111  C         44.2790   -0.8230    1.5240 C.2   220  ARG220      0.2616
    112  O         44.2440    0.1520    0.7730 O.2   220  ARG220     -0.2715
    113  CB        42.4600   -2.5250    1.3060 C.3   220  ARG220      0.0348
    114  CG        41.8970   -3.7160    0.5300 C.3   220  ARG220      0.0492
    115  CD        41.6840   -3.3840   -0.9450 C.3   220  ARG220      0.2205
    116  NE        41.2630   -4.5540   -1.7260 N.pl3 220  ARG220     -0.0865
    117  CZ        41.9950   -5.1320   -2.6830 C.cat 220  ARG220      0.5346
    118  NH1       43.1940   -4.6530   -2.9950 N.pl3 220  ARG220      0.1354
    119  NH2       41.5290   -6.1890   -3.3370 N.pl3 220  ARG220      0.1354
    120  N         44.6220   -0.7370    2.7990 N.am  221  TYR221     -0.1960
    121  CA        44.9500    0.5420    3.3790 C.3   221  TYR221      0.1771
    122  C         45.4910    0.3660    4.7900 C.2   221  TYR221      0.2619
    123  O         45.2200   -0.6330    5.4540 O.2   221  TYR221     -0.2715
    124  CB        43.7010    1.4450    3.3990 C.3   221  TYR221      0.0574
    125  CG        42.5600    0.8750    4.2200 C.ar  221  TYR221     -0.0198
    126  CD1       42.6440    0.8200    5.6020 C.ar  221  TYR221     -0.0009
    127  CD2       41.4080    0.3760    3.6100 C.ar  221  TYR221     -0.0009
    128  CE1       41.6250    0.2880    6.3600 C.ar  221  TYR221      0.0417
    129  CE2       40.3730   -0.1560    4.3630 C.ar  221  TYR221      0.0417
    130  CZ        40.4910   -0.1960    5.7420 C.ar  221  TYR221      0.1957
    131  OH        39.4810   -0.7190    6.5210 O.3   221  TYR221     -0.2866
    132  N         46.2830    1.3380    5.2290 N.am  222  LEU222     -0.1977
    133  CA        46.5830    1.5000    6.6420 C.3   222  LEU222      0.1596
    134  C         46.3900    2.9700    7.0000 C.2   222  LEU222      0.2287
    135  O         47.0350    3.8600    6.4290 O.2   222  LEU222     -0.2864
    136  CB        47.9940    1.0230    6.9970 C.3   222  LEU222      0.0297
    137  CG        48.1720    0.9180    8.5130 C.3   222  LEU222      0.0022
    138  CD1       49.2990   -0.0170    8.8690 C.3   222  LEU222      0.0001
    139  CD2       48.3730    2.2850    9.1500 C.3   222  LEU222      0.0001
    140  N         53.7780    5.7610    3.4700 N.3   238  LYS238     -0.1231
    141  CA        53.4540    4.3530    3.6510 C.3   238  LYS238      0.1693
    142  C         54.1050    3.4310    2.6200 C.2   238  LYS238      0.2592
    143  O         54.0210    3.6680    1.4060 O.2   238  LYS238     -0.2718
    144  CB        51.9360    4.1780    3.6160 C.3   238  LYS238      0.0285
    145  CG        51.2380    4.8530    4.7680 C.3   238  LYS238      0.0035
    146  CD        49.8060    5.2030    4.4200 C.3   238  LYS238      0.0206
    147  CE        49.1910    6.0430    5.5230 C.3   238  LYS238      0.1093
    148  NZ        47.7320    6.1870    5.3420 N.3   238  LYS238     -0.1314
    149  N         54.7430    2.3710    3.1090 N.am  239  TRP239     -0.1962
    150  CA        55.3560    1.3850    2.2200 C.3   239  TRP239      0.1771
    151  C         54.9080   -0.0310    2.5440 C.2   239  TRP239      0.2619
    152  O         54.5340   -0.3450    3.6790 O.2   239  TRP239     -0.2715
    153  CB        56.8770    1.4410    2.3110 C.3   239  TRP239      0.0590
    154  CG        57.4620    2.8180    2.3060 C.ar  239  TRP239      0.0006
    155  CD1       57.6650    3.6290    3.3890 C.ar  239  TRP239      0.0946
    156  CD2       57.9590    3.5310    1.1710 C.ar  239  TRP239      0.0152
    157  NE1       58.2490    4.8040    2.9920 N.ar  239  TRP239     -0.2442
    158  CE2       58.4400    4.7720    1.6370 C.ar  239  TRP239      0.0810
    159  CE3       58.0420    3.2420   -0.1920 C.ar  239  TRP239      0.0012
    160  CZ2       58.9900    5.7260    0.7900 C.ar  239  TRP239      0.0191
    161  CZ3       58.5920    4.1900   -1.0380 C.ar  239  TRP239      0.0001
    162  CH2       59.0610    5.4220   -0.5400 C.ar  239  TRP239      0.0015
    163  N         54.9840   -0.8960    1.5430 N.am  240  VAL240     -0.1963
    164  CA        54.6170   -2.2850    1.7190 C.3   240  VAL240      0.1727
    165  C         55.5880   -3.1480    0.9420 C.2   240  VAL240      0.2616
    166  O         56.0710   -2.7460   -0.1150 O.2   240  VAL240     -0.2715
    167  CB        53.2410   -2.5520    1.1150 C.3   240  VAL240      0.0290
    168  CG1       53.3010   -2.2990   -0.3780 C.3   240  VAL240      0.0023
    169  CG2       52.8000   -3.9870    1.4030 C.3   240  VAL240      0.0023
    170  N         55.8700   -4.3430    1.4430 N.am  241  ARG241     -0.1963
    171  CA        56.5440   -5.3180    0.6080 C.3   241  ARG241      0.1729
    172  C         56.0010   -6.7100    0.8740 C.2   241  ARG241      0.2616
    173  O         55.7350   -7.0940    2.0300 O.2   241  ARG241     -0.2715
    174  CB        58.0720   -5.2610    0.7700 C.3   241  ARG241      0.0348
    175  CG        58.5980   -5.7660    2.1020 C.3   241  ARG241      0.0492
    176  CD        60.0690   -5.3990    2.2910 C.3   241  ARG241      0.2205
    177  NE        60.5400   -5.7040    3.6420 N.pl3 241  ARG241     -0.0865
    178  CZ        61.8220   -5.7810    3.9830 C.cat 241  ARG241      0.5346
    179  NH1       62.7720   -5.5670    3.0760 N.pl3 241  ARG241      0.1354
    180  NH2       62.1530   -6.0760    5.2310 N.pl3 241  ARG241      0.1354
    181  N         55.8260   -7.4480   -0.2190 N.am  242  TYR242     -0.1960
    182  CA        55.3620   -8.8230   -0.1680 C.3   242  TYR242      0.1771
    183  C         56.4890   -9.7950   -0.4840 C.2   242  TYR242      0.2619
    184  O         57.1400   -9.6950   -1.5300 O.2   242  TYR242     -0.2715
    185  CB        54.2270   -9.0270   -1.1720 C.3   242  TYR242      0.0574
    186  CG        53.0460   -8.1140   -0.9390 C.ar  242  TYR242     -0.0198
    187  CD1       52.0730   -8.4300    0.0030 C.ar  242  TYR242     -0.0009
    188  CD2       52.9080   -6.9310   -1.6600 C.ar  242  TYR242     -0.0009
    189  CE1       50.9820   -7.5850    0.2190 C.ar  242  TYR242      0.0417
    190  CE2       51.8320   -6.0840   -1.4570 C.ar  242  TYR242      0.0417
    191  CZ        50.8700   -6.4160   -0.5220 C.ar  242  TYR242      0.1957
    192  OH        49.8080   -5.5740   -0.3240 O.3   242  TYR242     -0.2866
    193  N         56.7150  -10.7410    0.4170 N.am  243  ILE243     -0.1977
    194  CA        57.6450  -11.8300    0.1400 C.3   243  ILE243      0.1596
    195  C         56.9670  -13.1720    0.3600 C.2   243  ILE243      0.2287
    196  O         56.6540  -13.5560    1.4950 O.2   243  ILE243     -0.2864
    197  CB        58.9230  -11.7640    1.0070 C.3   243  ILE243      0.0276
    198  CG1       59.6850  -10.4560    0.7630 C.3   243  ILE243      0.0022
    199  CG2       59.8220  -12.9650    0.7150 C.3   243  ILE243      0.0022
    200  CD1       59.2760   -9.3570    1.7010 C.3   243  ILE243      0.0001
@<TRIPOS>BOND
     1    59    58    1
     2    60    58    1
     3    58    57    1
     4    57    54    1
     5    54    53    1
     6    54    55    1
     7    55    56    2
     8    61    62    1
     9    62    65    1
    10    62    63    1
    11    65    66    1
    12    68    67    2
    13   100   101    1
    14   100    99    1
    15    93    92    1
    16   101    95    1
    17    63    70   am
    18    63    64    2
    19    70    71    1
    20    67    66    1
    21    67    69   am
    22    92    89    1
    23    92    94    1
    24    82    81    2
    25    72    71    1
    26    72    73    2
    27    99    96    1
    28    71    74    1
    29    95    96    1
    30    95    90   am
    31    98    97    2
    32    89    90    1
    33    89    88    1
    34    96    97    1
    35    81    88   am
    36    81    80    1
    37    90    91    2
    38    79    80    1
    39    74    75    1
    40    75    76    1
    41    80    83    1
    42   119   117    1
    43   118   117    1
    44    83    84    1
    45   117   116    2
    46    76    77    1
    47    77    78    1
    48    86    85   ar
    49   116   115    1
    50    84    85    1
    51   188   190   ar
    52   188   186   ar
    53   184   183    2
    54   190   191   ar
    55   185   186    1
    56   185   182    1
    57    85    87   ar
    58   161   162   ar
    59   161   159   ar
    60   115   114    1
    61   186   187   ar
    62   162   160   ar
    63   191   192    1
    64   191   189   ar
    65   183   182    1
    66   183   193   am
    67   168   167    1
    68   181   182    1
    69   181   172   am
    70   159   156   ar
    71   166   165    2
    72   187   189   ar
    73   194   195    1
    74   194   193    1
    75   194   197    1
    76   105   104    2
    77   195   196    2
    78   114   113    1
    79   171   174    1
    80   171   172    1
    81   171   170    1
    82   199   197    1
    83   198   197    1
    84   198   200    1
    85   174   175    1
    86   112   111    2
    87   160   158   ar
    88   172   173    2
    89   165   170   am
    90   165   164    1
    91   102   103    1
    92   110   113    1
    93   110   111    1
    94   110   109    1
    95   167   169    1
    96   167   164    1
    97   156   158   ar
    98   156   154   ar
    99   104   109   am
   100   104   103    1
   101   143   142    2
   102   111   120   am
   103   163   164    1
   104   163   151   am
   105   158   157   ar
   106   103   106    1
   107   175   176    1
   108   150   153    1
   109   150   151    1
   110   150   149    1
   111   176   177    1
   112   154   153    1
   113   154   155   ar
   114   151   152    2
   115   106   108    1
   116   106   107    1
   117   142   149   am
   118   142   141    1
   119   120   121    1
   120   157   155   ar
   121   179   178    1
   122   121   124    1
   123   121   122    1
   124   124   125    1
   125   140   141    1
   126   127   125   ar
   127   127   129   ar
   128   144   141    1
   129   144   145    1
   130   177   178    2
   131   178   180    1
   132    23    22    2
   133   125   126   ar
   134   129   130   ar
   135   146   145    1
   136   146   147    1
   137    43    41    1
   138    37    38    1
   139    37    36    1
   140    37    40    1
   141    17    15   ar
   142    17    19   ar
   143    38    39    2
   144   122   132   am
   145   122   123    2
   146    15    14   ar
   147    34    33   ar
   148   132   133    1
   149   148   147    1
   150    22    21    1
   151    22    28   am
   152    29    30    1
   153    29    28    1
   154    29    32    1
   155    30    31    2
   156   126   128   ar
   157    24    21    1
   158    24    25    1
   159    19    18   ar
   160   130   128   ar
   161   130   131    1
   162    40    41    1
   163    26    25    1
   164     4     3    2
   165    41    42    1
   166    20    21    1
   167    20    11   am
   168    33    32    1
   169    33    35   ar
   170    14    13    1
   171    14    16   ar
   172   135   134    2
   173    25    27    1
   174    10    13    1
   175    10    11    1
   176    10     9    1
   177   133   136    1
   178   133   134    1
   179    11    12    2
   180     7     6    1
   181   136   137    1
   182    18    16   ar
   183     3     9   am
   184     3     2    1
   185     1     2    1
   186     6     8    1
   187     6     5    1
   188    52    51    1
   189     2     5    1
   190   137   138    1
   191   137   139    1
   192    51    50    1
   193    50    49    1
   194    47    46    2
   195    49    48    1
   196    48    45    1
   197    44    45    1
   198    46    45    1
