@<TRIPOS>MOLECULE
tmp/3h89B00.pdb
 218 214 0 0 0
SMALL
GASTEIGER

@<TRIPOS>ATOM
      1  N         95.6480    4.1750   61.2140 N.3    19  GLN19      -0.1231
      2  CA        94.1980    4.0610   61.1920 C.3    19  GLN19       0.1698
      3  C         93.6430    3.6240   59.8340 C.2    19  GLN19       0.2593
      4  O         92.5020    3.1770   59.7380 O.2    19  GLN19      -0.2718
      5  CB        93.5860    5.3980   61.5760 C.3    19  GLN19       0.0381
      6  CG        93.7890    6.4780   60.5300 C.3    19  GLN19       0.0905
      7  CD        93.3160    7.8380   61.0050 C.2    19  GLN19       0.2608
      8  OE1       94.0610    8.5780   61.6580 O.2    19  GLN19      -0.2717
      9  NE2       92.0620    8.1680   60.6950 N.am   19  GLN19      -0.0878
     10  N         94.4440    3.7590   58.7830 N.am   20  GLY20      -0.1942
     11  CA        93.9780    3.3750   57.4630 C.3    20  GLY20       0.2014
     12  C         92.8310    4.2390   56.9620 C.2    20  GLY20       0.2639
     13  O         92.6020    5.3450   57.4600 O.2    20  GLY20      -0.2714
     14  N         92.1020    3.7250   55.9750 N.am   21  GLN21      -0.1963
     15  CA        90.9740    4.4370   55.3830 C.3    21  GLN21       0.1733
     16  C         89.7290    4.3370   56.2590 C.2    21  GLN21       0.2616
     17  O         88.7360    3.7160   55.8850 O.2    21  GLN21      -0.2715
     18  CB        90.6780    3.8670   53.9960 C.3    21  GLN21       0.0408
     19  CG        91.9180    3.7140   53.1420 C.3    21  GLN21       0.0908
     20  CD        91.6020    3.5120   51.6780 C.2    21  GLN21       0.2608
     21  OE1       90.5130    3.8690   51.2100 O.2    21  GLN21      -0.2717
     22  NE2       92.5620    2.9620   50.9350 N.am   21  GLN21      -0.0878
     23  N         89.7970    4.9620   57.4260 N.am   22  CYS22      -0.1954
     24  CA        88.7050    4.9610   58.3930 C.3    22  CYS22       0.1843
     25  C         88.8870    6.1900   59.2800 C.2    22  CYS22       0.2626
     26  O         89.9700    6.4160   59.8230 O.2    22  CYS22      -0.2714
     27  CB        88.7550    3.6730   59.2280 C.3    22  CYS22       0.0997
     28  SG        87.8310    3.7040   60.8000 S.3    22  CYS22      -0.0797
     29  N         87.8330    6.9880   59.4120 N.am   23  GLY23      -0.1954
     30  CA        87.9170    8.1930   60.2170 C.3    23  GLY23       0.1869
     31  C         87.9240    7.9390   61.7120 C.2    23  GLY23       0.2309
     32  O         87.0810    8.4730   62.4350 O.2    23  GLY23      -0.2863
     33  N         90.6790    8.5600   63.7380 N.3    25  CYS25      -0.1221
     34  CA        91.8000    9.2780   64.3420 C.3    25  CYS25       0.1808
     35  C         91.5330    9.6730   65.7980 C.2    25  CYS25       0.2601
     36  O         92.4600    9.7650   66.5980 O.2    25  CYS25      -0.2717
     37  CB        92.1550   10.5250   63.5140 C.3    25  CYS25       0.0970
     38  SG        90.8140   11.7160   63.2150 S.3    25  CYS25      -0.0800
     39  N         90.2680    9.9070   66.1370 N.am   26  TRP26      -0.1976
     40  CA        89.9000   10.2710   67.5000 C.3    26  TRP26       0.1640
     41  C         90.1580    9.1060   68.4630 C.2    26  TRP26       0.2290
     42  O         90.4500    9.3110   69.6440 O.2    26  TRP26      -0.2864
     43  CB        88.4240   10.6680   67.5610 C.3    26  TRP26       0.0576
     44  CG        87.5190    9.6470   66.9580 C.ar   26  TRP26       0.0006
     45  CD1       87.1860    9.5170   65.6340 C.ar   26  TRP26       0.0946
     46  CD2       86.8680    8.5740   67.6440 C.ar   26  TRP26       0.0152
     47  NE1       86.3670    8.4260   65.4570 N.ar   26  TRP26      -0.2442
     48  CE2       86.1540    7.8300   66.6750 C.ar   26  TRP26       0.0810
     49  CE3       86.8130    8.1690   68.9880 C.ar   26  TRP26       0.0012
     50  CZ2       85.3970    6.6940   67.0080 C.ar   26  TRP26       0.0191
     51  CZ3       86.0580    7.0380   69.3210 C.ar   26  TRP26       0.0001
     52  CH2       85.3590    6.3170   68.3300 C.ar   26  TRP26       0.0015
     53  N         78.4600    9.3290   71.7230 N.3    61  GLY61      -0.1225
     54  CA        78.4300   10.3400   70.6810 C.3    61  GLY61       0.1811
     55  C         79.3600   10.1010   69.5080 C.2    61  GLY61       0.2280
     56  O         79.3250   10.8510   68.5340 O.2    61  GLY61      -0.2866
     57  N         80.9850    8.1800   66.1370 N.3    63  GLU63      -0.1245
     58  CA        80.3780    7.6190   64.9340 C.3    63  GLU63       0.1567
     59  C         81.2900    6.6650   64.1620 C.2    63  GLU63       0.2260
     60  O         81.3660    6.7340   62.9370 O.2    63  GLU63      -0.2867
     61  CB        79.9610    8.7610   64.0070 C.3    63  GLU63       0.0388
     62  CG        79.0740    9.7940   64.6730 C.3    63  GLU63       0.1160
     63  CD        77.6090    9.4240   64.6250 C.2    63  GLU63       0.3649
     64  OE1       77.3010    8.2140   64.5400 O.co2  63  GLU63      -0.2457
     65  OE2       76.7670   10.3480   64.6790 O.co2  63  GLU63      -0.2457
     66  N         83.2780    7.3730   60.8350 N.3    66  ASN66      -0.1225
     67  CA        82.7980    8.6440   60.3030 C.3    66  ASN66       0.1785
     68  C         83.1740    9.8380   61.1840 C.2    66  ASN66       0.2598
     69  O         82.9020   10.9900   60.8330 O.2    66  ASN66      -0.2718
     70  CB        81.2810    8.6030   60.1230 C.3    66  ASN66       0.1169
     71  CG        80.8470    7.5610   59.1170 C.2    66  ASN66       0.2627
     72  OD1       81.2880    7.5710   57.9680 O.2    66  ASN66      -0.2716
     73  ND2       79.9760    6.6540   59.5400 N.am   66  ASN66      -0.0877
     74  N         83.7870    9.5710   62.3320 N.am   67  GLY67      -0.1942
     75  CA        84.1810   10.6600   63.2080 C.3    67  GLY67       0.2014
     76  C         83.8470   10.4730   64.6740 C.2    67  GLY67       0.2639
     77  O         83.0540    9.5890   65.0350 O.2    67  GLY67      -0.2714
     78  N         84.4520   11.3190   65.5120 N.am   68  GLY68      -0.1939
     79  CA        84.2340   11.2700   66.9480 C.3    68  GLY68       0.2014
     80  C         85.0910   12.2880   67.6840 C.2    68  GLY68       0.2639
     81  O         85.7500   13.1250   67.0590 O.2    68  GLY68      -0.2714
     82  N         85.0860   12.2250   69.0130 N.am   69  LEU69      -0.1963
     83  CA        85.8740   13.1400   69.8380 C.3    69  LEU69       0.1728
     84  C         86.6570   12.3250   70.8500 C.2    69  LEU69       0.2616
     85  O         86.1880   11.2760   71.2910 O.2    69  LEU69      -0.2715
     86  CB        84.9730   14.1190   70.5980 C.3    69  LEU69       0.0311
     87  CG        84.0950   15.0940   69.8150 C.3    69  LEU69       0.0022
     88  CD1       83.3200   15.9660   70.7900 C.3    69  LEU69       0.0001
     89  CD2       84.9500   15.9500   68.9090 C.3    69  LEU69       0.0001
     90  N         87.8400   12.8080   71.2260 N.am   70  MET70      -0.1977
     91  CA        88.6630   12.0980   72.2010 C.3    70  MET70       0.1605
     92  C         87.9770   12.0490   73.5660 C.2    70  MET70       0.2287
     93  O         88.0930   11.0630   74.2950 O.2    70  MET70      -0.2864
     94  CB        90.0380   12.7600   72.3390 C.3    70  MET70       0.0413
     95  CG        90.9990   12.4850   71.1820 C.3    70  MET70       0.0598
     96  SD        90.6490   13.3990   69.6640 S.3    70  MET70      -0.1393
     97  CE        91.6040   14.9200   69.9810 C.3    70  MET70       0.0692
     98  N         84.8250   11.8740   74.0960 N.3    72  TYR72      -0.1241
     99  CA        83.7490   10.8940   74.0520 C.3    72  TYR72       0.1605
    100  C         84.3550    9.5180   74.3270 C.2    72  TYR72       0.2264
    101  O         83.7460    8.6800   74.9870 O.2    72  TYR72      -0.2867
    102  CB        83.0620   10.8920   72.6750 C.3    72  TYR72       0.0534
    103  CG        82.1540   12.0750   72.3970 C.ar   72  TYR72      -0.0201
    104  CD1       82.0330   13.1240   73.3060 C.ar   72  TYR72      -0.0009
    105  CD2       81.4090   12.1390   71.2180 C.ar   72  TYR72      -0.0009
    106  CE1       81.1960   14.2050   73.0540 C.ar   72  TYR72       0.0417
    107  CE2       80.5690   13.2180   70.9550 C.ar   72  TYR72       0.0417
    108  CZ        80.4690   14.2490   71.8790 C.ar   72  TYR72       0.1957
    109  OH        79.6540   15.3270   71.6240 O.3    72  TYR72      -0.2866
    110  N         93.5320   18.3680   68.8010 N.3   135  ALA135     -0.1245
    111  CA        92.9690   18.3550   67.4610 C.3   135  ALA135      0.1562
    112  C         93.7150   19.3950   66.6460 C.2   135  ALA135      0.2260
    113  O         94.0350   20.4740   67.1400 O.2   135  ALA135     -0.2867
    114  CB        91.4850   18.6770   67.5040 C.3   135  ALA135      0.0290
    115  N         94.4250   19.8310   59.7640 N.3   138  ALA138     -0.1231
    116  CA        95.2960   19.1370   58.8220 C.3   138  ALA138      0.1694
    117  C         94.6620   19.2330   57.4550 C.2   138  ALA138      0.2593
    118  O         94.9520   18.4430   56.5630 O.2   138  ALA138     -0.2718
    119  CB        95.4520   17.6750   59.2290 C.3   138  ALA138      0.0304
    120  N         93.7880   20.2170   57.3010 N.am  139  GLY139     -0.1942
    121  CA        93.0940   20.4060   56.0470 C.3   139  GLY139      0.2014
    122  C         93.9110   20.9500   54.8930 C.2   139  GLY139      0.2639
    123  O         93.4110   21.7830   54.1400 O.2   139  GLY139     -0.2714
    124  N         95.1500   20.4910   54.7310 N.am  140  HIS140     -0.1959
    125  CA        95.9910   20.9880   53.6430 C.3   140  HIS140      0.1787
    126  C         96.9370   19.9680   53.0190 C.2   140  HIS140      0.2620
    127  O         97.4010   19.0410   53.6790 O.2   140  HIS140     -0.2715
    128  CB        96.8010   22.1950   54.1220 C.3   140  HIS140      0.0785
    129  CG        95.9620   23.2710   54.7300 C.ar  140  HIS140      0.0821
    130  ND1       95.4590   23.1840   56.0110 N.ar  140  HIS140     -0.2267
    131  CD2       95.4830   24.4270   54.2130 C.ar  140  HIS140      0.1154
    132  CE1       94.7050   24.2410   56.2560 C.ar  140  HIS140      0.1986
    133  NE2       94.7030   25.0100   55.1810 N.ar  140  HIS140     -0.2212
    134  N         97.2150   20.1620   51.7320 N.am  141  GLU141     -0.1977
    135  CA        98.1140   19.2910   50.9810 C.3   141  GLU141      0.1602
    136  C         99.4340   19.1670   51.7290 C.2   141  GLU141      0.2287
    137  O        100.0180   18.0850   51.8270 O.2   141  GLU141     -0.2864
    138  CB        98.4310   19.8880   49.6040 C.3   141  GLU141      0.0415
    139  CG        97.2690   20.1170   48.6690 C.3   141  GLU141      0.1163
    140  CD        97.7350   20.3730   47.2410 C.2   141  GLU141      0.3649
    141  OE1       96.9000   20.3180   46.3080 O.co2 141  GLU141     -0.2457
    142  OE2       98.9420   20.6350   47.0490 O.co2 141  GLU141     -0.2457
    143  N         99.6300   16.7300   54.5620 N.3   144  LEU144     -0.1231
    144  CA        99.6040   15.4100   53.9610 C.3   144  LEU144      0.1693
    145  C        100.9060   14.9860   53.2780 C.2   144  LEU144      0.2592
    146  O        101.2610   13.8090   53.2920 O.2   144  LEU144     -0.2718
    147  CB        98.4750   15.3300   52.9560 C.3   144  LEU144      0.0284
    148  CG        98.3770   13.8650   52.5690 C.3   144  LEU144      0.0019
    149  CD1       97.5540   13.1190   53.5760 C.3   144  LEU144      0.0001
    150  CD2       97.7610   13.7570   51.2440 C.3   144  LEU144      0.0001
    151  N        101.6120   15.9370   52.6750 N.am  145  PHE145     -0.1976
    152  CA       102.8780   15.6320   52.0120 C.3   145  PHE145      0.1639
    153  C        104.0730   15.8640   52.9370 C.2   145  PHE145      0.2290
    154  O        105.2220   15.7120   52.5220 O.2   145  PHE145     -0.2864
    155  CB       103.0570   16.4950   50.7660 C.3   145  PHE145      0.0560
    156  CG       101.9150   16.4070   49.7930 C.ar  145  PHE145     -0.0200
    157  CD1      101.1360   15.2570   49.7130 C.ar  145  PHE145     -0.0042
    158  CD2      101.6360   17.4670   48.9370 C.ar  145  PHE145     -0.0042
    159  CE1      100.1080   15.1660   48.8020 C.ar  145  PHE145     -0.0003
    160  CE2      100.6080   17.3820   48.0200 C.ar  145  PHE145     -0.0003
    161  CZ        99.8460   16.2280   47.9540 C.ar  145  PHE145     -0.0000
    162  N         88.9820   25.5510   62.7100 N.3   160  ASP160     -0.1225
    163  CA        88.4020   24.3630   62.0900 C.3   160  ASP160      0.1805
    164  C         89.2830   23.1050   62.1150 C.2   160  ASP160      0.2598
    165  O         89.5410   22.5010   61.0670 O.2   160  ASP160     -0.2718
    166  CB        88.0110   24.6850   60.6430 C.3   160  ASP160      0.1424
    167  CG        89.2160   24.7790   59.7130 C.2   160  ASP160      0.3668
    168  OD1       90.3550   24.8730   60.2210 O.co2 160  ASP160     -0.2456
    169  OD2       89.0250   24.7610   58.4720 O.co2 160  ASP160     -0.2456
    170  N         89.7430   22.7040   63.3000 N.am  161  MET161     -0.1965
    171  CA        90.5740   21.5070   63.4100 C.3   161  MET161      0.1736
    172  C         89.7640   20.3110   62.9180 C.2   161  MET161      0.2616
    173  O         88.5710   20.2140   63.1920 O.2   161  MET161     -0.2715
    174  CB        91.0000   21.2600   64.8600 C.3   161  MET161      0.0427
    175  CG        91.7400   22.4110   65.5200 C.3   161  MET161      0.0599
    176  SD        90.6240   23.7110   66.0970 S.3   161  MET161     -0.1393
    177  CE        89.9830   22.9190   67.5990 C.3   161  MET161      0.0692
    178  N         90.4080   19.3990   62.1990 N.am  162  ASP162     -0.1957
    179  CA        89.7050   18.2350   61.6770 C.3   162  ASP162      0.1840
    180  C         90.4490   16.9200   61.8900 C.2   162  ASP162      0.2622
    181  O         89.9870   15.8650   61.4690 O.2   162  ASP162     -0.2715
    182  CB        89.4150   18.4350   60.1860 C.3   162  ASP162      0.1450
    183  CG        90.6690   18.4460   59.3360 C.2   162  ASP162      0.3671
    184  OD1       91.7790   18.5650   59.8870 O.co2 162  ASP162     -0.2456
    185  OD2       90.5430   18.3420   58.1000 O.co2 162  ASP162     -0.2456
    186  N         91.5890   16.9820   62.5680 N.am  163  HIS163     -0.1959
    187  CA        92.3810   15.7870   62.8140 C.3   163  HIS163      0.1787
    188  C         92.8710   15.6900   64.2590 C.2   163  HIS163      0.2620
    189  O         93.5570   16.5870   64.7480 O.2   163  HIS163     -0.2715
    190  CB        93.5730   15.7640   61.8530 C.3   163  HIS163      0.0785
    191  CG        94.3570   14.4930   61.8890 C.ar  163  HIS163      0.0821
    192  ND1       93.7620   13.2480   61.8420 N.ar  163  HIS163     -0.2267
    193  CD2       95.6910   14.2700   61.9340 C.ar  163  HIS163      0.1154
    194  CE1       94.6970   12.3170   61.8570 C.ar  163  HIS163      0.1986
    195  NE2       95.8780   12.9100   61.9120 N.ar  163  HIS163     -0.2212
    196  N         92.5080   14.5970   64.9340 N.am  164  GLY164     -0.1954
    197  CA        92.9280   14.3890   66.3100 C.3   164  GLY164      0.1869
    198  C         94.2670   13.6800   66.3430 C.2   164  GLY164      0.2309
    199  O         94.4360   12.6550   65.6830 O.2   164  GLY164     -0.2863
    200  N         99.0780    7.7890   61.0780 N.3   184  TRP184     -0.1241
    201  CA        99.0760    7.5120   59.6490 C.3   184  TRP184      0.1605
    202  C        100.2310    6.6090   59.2440 C.2   184  TRP184      0.2264
    203  O        100.6850    6.6620   58.1010 O.2   184  TRP184     -0.2867
    204  CB        99.1800    8.8200   58.8630 C.3   184  TRP184      0.0550
    205  CG        97.9500    9.6650   58.8950 C.ar  184  TRP184      0.0003
    206  CD1       96.7770    9.3880   59.5440 C.ar  184  TRP184      0.0946
    207  CD2       97.7430   10.9060   58.2040 C.ar  184  TRP184      0.0152
    208  NE1       95.8540   10.3740   59.2900 N.ar  184  TRP184     -0.2442
    209  CE2       96.4200   11.3180   58.4730 C.ar  184  TRP184      0.0810
    210  CE3       98.5480   11.7070   57.3800 C.ar  184  TRP184      0.0012
    211  CZ2       95.8830   12.4990   57.9520 C.ar  184  TRP184      0.0191
    212  CZ3       98.0120   12.8840   56.8610 C.ar  184  TRP184      0.0001
    213  CH2       96.6930   13.2660   57.1490 C.ar  184  TRP184      0.0015
    214  N         91.6220   22.3480   71.3470 N.3   209  ALA209     -0.1245
    215  CA        90.8290   21.2350   71.8710 C.3   209  ALA209      0.1562
    216  C         91.7380   20.1870   72.4860 C.2   209  ALA209      0.2260
    217  O         91.7270   19.0310   72.0730 O.2   209  ALA209     -0.2867
    218  CB        89.9920   20.6070   70.7590 C.3   209  ALA209      0.0290
@<TRIPOS>BOND
     1   141   140   ar
     2   142   140   ar
     3   140   139    1
     4   161   160   ar
     5   161   159   ar
     6   160   158   ar
     7   139   138    1
     8   159   157   ar
     9   158   156   ar
    10   138   135    1
    11   157   156   ar
    12   156   155    1
    13   155   152    1
    14    22    20   am
    15   135   136    1
    16   135   134    1
    17    21    20    2
    18   150   148    1
    19    20    19    1
    20   136   137    2
    21   134   126   am
    22   152   151    1
    23   152   153    1
    24   154   153    2
    25   148   147    1
    26   148   149    1
    27   151   145   am
    28   147   144    1
    29   126   125    1
    30   126   127    2
    31    19    18    1
    32   145   146    2
    33   145   144    1
    34   125   128    1
    35   125   124    1
    36   144   143    1
    37    18    15    1
    38   128   129    1
    39   123   122    2
    40   131   129   ar
    41   131   133   ar
    42   129   130   ar
    43   124   122   am
    44   122   121    1
    45   133   132   ar
    46    15    14    1
    47    15    16    1
    48    17    16    2
    49    14    12   am
    50   130   132   ar
    51   121   120    1
    52    16    23   am
    53   118   117    2
    54   212   213   ar
    55   212   210   ar
    56    12    13    2
    57    12    11    1
    58   213   211   ar
    59   120   117   am
    60   210   207   ar
    61    23    24    1
    62   117   116    1
    63    11    10    1
    64   211   209   ar
    65    72    71    2
    66   185   183   ar
    67   203   202    2
    68   207   209   ar
    69   207   205   ar
    70    24    27    1
    71    24    25    1
    72   169   167   ar
    73   209   208   ar
    74    10     3   am
    75   116   119    1
    76   116   115    1
    77   204   205    1
    78   204   201    1
    79   205   206   ar
    80    71    73   am
    81    71    70    1
    82    27    28    1
    83   202   201    1
    84    25    29   am
    85    25    26    2
    86   208   206   ar
    87   183   184   ar
    88   183   182    1
    89    29    30    1
    90   201   200    1
    91   167   168   ar
    92   167   166    1
    93     4     3    2
    94     3     2    1
    95    70    67    1
    96   182   179    1
    97    30    31    1
    98    67    66    1
    99    67    68    1
   100     6     7    1
   101     6     5    1
   102   166   163    1
   103     9     7   am
   104    69    68    2
   105     7     8    2
   106   165   164    2
   107    68    74   am
   108     2     1    1
   109     2     5    1
   110   181   180    2
   111   179   180    1
   112   179   178    1
   113    31    32    2
   114   192   194   ar
   115   192   191   ar
   116   190   191    1
   117   190   187    1
   118   194   195   ar
   119   191   193   ar
   120   180   186   am
   121   195   193   ar
   122   163   164    1
   123   163   162    1
   124   164   170   am
   125   178   172   am
   126    74    75    1
   127   186   187    1
   128   187   188    1
   129   172   173    2
   130   172   171    1
   131    60    59    2
   132    75    76    1
   133    38    37    1
   134   170   171    1
   135   171   174    1
   136    37    34    1
   137    33    34    1
   138    61    62    1
   139    61    58    1
   140    59    58    1
   141   188   189    2
   142   188   196   am
   143    34    35    1
   144    64    63   ar
   145    63    62    1
   146    63    65   ar
   147    76    77    2
   148    76    78   am
   149   174   175    1
   150    58    57    1
   151   196   197    1
   152    47    45   ar
   153    47    48   ar
   154    78    79    1
   155   175   176    1
   156    45    44   ar
   157   199   198    2
   158    35    39   am
   159    35    36    2
   160   176   177    1
   161    39    40    1
   162   197   198    1
   163   112   113    2
   164   112   111    1
   165    48    50   ar
   166    48    46   ar
   167    79    80    1
   168    44    43    1
   169    44    46   ar
   170    50    52   ar
   171    81    80    2
   172   111   114    1
   173   111   110    1
   174    40    43    1
   175    40    41    1
   176    46    49   ar
   177    80    82   am
   178    52    51   ar
   179    41    42    2
   180    56    55    2
   181    89    87    1
   182    49    51   ar
   183    82    83    1
   184    55    54    1
   185    96    97    1
   186    96    95    1
   187    87    86    1
   188    87    88    1
   189    83    86    1
   190    83    84    1
   191    54    53    1
   192   218   215    1
   193    84    90   am
   194    84    85    2
   195   107   105   ar
   196   107   108   ar
   197    95    94    1
   198   105   103   ar
   199    90    91    1
   200   214   215    1
   201   109   108    1
   202   215   216    1
   203   108   106   ar
   204   217   216    2
   205    91    94    1
   206    91    92    1
   207   103   102    1
   208   103   104   ar
   209   102    99    1
   210   106   104   ar
   211    92    93    2
   212    99    98    1
   213    99   100    1
   214   100   101    2
