@<TRIPOS>MOLECULE
tmp/3h8gD00.pdb
 174 163 0 0 0
SMALL
GASTEIGER

@<TRIPOS>ATOM
      1  N          4.2310  -36.3340   26.9930 N.3   267  LYS267     -0.1245
      2  CA         3.4090  -35.1360   26.8780 C.3   267  LYS267      0.1561
      3  C          2.4340  -34.9770   28.0690 C.2   267  LYS267      0.2260
      4  O          1.6480  -35.8130   28.2980 O.2   267  LYS267     -0.2867
      5  CB         2.6350  -35.1900   25.5510 C.3   267  LYS267      0.0271
      6  CG         1.6040  -34.0590   25.2920 C.3   267  LYS267      0.0035
      7  CD         0.8090  -34.3340   24.0350 C.3   267  LYS267      0.0206
      8  CE        -0.2720  -33.3190   23.9150 C.3   267  LYS267      0.1093
      9  NZ        -1.1550  -33.4390   22.6880 N.3   267  LYS267     -0.1314
     10  N         -6.3450  -29.7270   27.0530 N.3   272  ASP272     -0.1239
     11  CA        -6.1250  -29.1420   25.7310 C.3   272  ASP272      0.1674
     12  C         -7.4170  -28.5200   25.1980 C.2   272  ASP272      0.2266
     13  O         -8.2900  -29.2250   24.6360 O.2   272  ASP272     -0.2867
     14  CB        -5.6000  -30.2250   24.7720 C.3   272  ASP272      0.1410
     15  CG        -5.1470  -29.6460   23.4050 C.2   272  ASP272      0.3668
     16  OD1       -5.0960  -28.4020   23.2780 O.co2 272  ASP272     -0.2456
     17  OD2       -4.8280  -30.4960   22.5060 O.co2 272  ASP272     -0.2456
     18  N        -10.8670  -25.7830   20.1440 N.3   279  LYS279     -0.1245
     19  CA       -11.5570  -27.0170   19.7620 C.3   279  LYS279      0.1561
     20  C        -13.0770  -26.8230   19.7870 C.2   279  LYS279      0.2260
     21  O        -13.5990  -25.9550   20.5200 O.2   279  LYS279     -0.2867
     22  CB       -11.2090  -28.1130   20.7680 C.3   279  LYS279      0.0271
     23  CG        -9.7940  -28.6340   20.5630 C.3   279  LYS279      0.0035
     24  CD        -9.5380  -29.8020   21.5200 C.3   279  LYS279      0.0206
     25  CE        -8.1190  -30.3470   21.3870 C.3   279  LYS279      0.1093
     26  NZ        -7.7780  -30.7960   19.9910 N.3   279  LYS279     -0.1314
     27  N        -12.7150  -34.9590   27.0710 N.3   286  GLU286     -0.1231
     28  CA       -11.7480  -36.0560   27.0030 C.3   286  GLU286      0.1699
     29  C        -10.3110  -35.5750   26.8680 C.2   286  GLU286      0.2592
     30  O         -9.3840  -36.3420   27.0280 O.2   286  GLU286     -0.2718
     31  CB       -12.1270  -37.0140   25.8870 C.3   286  GLU286      0.0402
     32  CG       -13.4190  -37.7420   26.1820 C.3   286  GLU286      0.1161
     33  CD       -13.8140  -38.6320   25.0310 C.2   286  GLU286      0.3649
     34  OE1      -13.2060  -38.5540   23.9330 O.co2 286  GLU286     -0.2457
     35  OE2      -14.7300  -39.4410   25.2420 O.co2 286  GLU286     -0.2457
     36  N        -10.2020  -34.2510   26.6930 N.am  287  MET287     -0.1979
     37  CA        -8.8750  -33.6920   26.6530 C.3   287  MET287      0.1605
     38  C         -8.1890  -33.5950   28.0390 C.2   287  MET287      0.2287
     39  O         -7.0460  -33.1670   28.1050 O.2   287  MET287     -0.2864
     40  CB        -8.8650  -32.3250   25.9060 C.3   287  MET287      0.0413
     41  CG        -9.2090  -32.4850   24.3910 C.3   287  MET287      0.0598
     42  SD        -7.9340  -33.4420   23.5030 S.3   287  MET287     -0.1393
     43  CE        -8.6570  -35.0530   23.4820 C.3   287  MET287      0.0692
     44  N         -5.1090  -35.6280   27.8540 N.3   290  ASP290     -0.1239
     45  CA        -4.0400  -35.2020   26.9750 C.3   290  ASP290      0.1674
     46  C         -2.6910  -35.1840   27.7120 C.2   290  ASP290      0.2266
     47  O         -1.6230  -34.8290   27.1400 O.2   290  ASP290     -0.2867
     48  CB        -4.3490  -33.8390   26.3750 C.3   290  ASP290      0.1410
     49  CG        -3.6990  -33.6330   25.0420 C.2   290  ASP290      0.3668
     50  OD1       -3.4220  -34.6160   24.3230 O.co2 290  ASP290     -0.2456
     51  OD2       -3.5030  -32.4570   24.6900 O.co2 290  ASP290     -0.2456
     52  N         -1.0810  -23.2600   14.1060 N.3   347  ASN347     -0.1240
     53  CA        -2.2750  -23.6800   14.8000 C.3   347  ASN347      0.1653
     54  C         -1.8960  -23.9960   16.2390 C.2   347  ASN347      0.2266
     55  O         -0.9960  -24.8150   16.5270 O.2   347  ASN347     -0.2867
     56  CB        -2.8490  -24.8990   14.0570 C.3   347  ASN347      0.1155
     57  CG        -4.1680  -25.3260   14.6070 C.2   347  ASN347      0.2627
     58  OD1       -4.3100  -25.5000   15.7980 O.2   347  ASN347     -0.2716
     59  ND2       -5.1830  -25.4650   13.7380 N.am  347  ASN347     -0.0877
     60  N         -3.5140  -25.4690   18.4330 N.3   349  ASP349     -0.1225
     61  CA        -3.9740  -26.8090   18.8640 C.3   349  ASP349      0.1805
     62  C         -2.9860  -27.9210   18.4550 C.2   349  ASP349      0.2598
     63  O         -3.1950  -29.0950   18.7900 O.2   349  ASP349     -0.2718
     64  CB        -5.3620  -27.0710   18.2900 C.3   349  ASP349      0.1424
     65  CG        -6.1010  -28.2000   18.9700 C.2   349  ASP349      0.3668
     66  OD1       -5.7140  -28.6480   20.0490 O.co2 349  ASP349     -0.2456
     67  OD2       -7.1260  -28.6120   18.4100 O.co2 349  ASP349     -0.2456
     68  N         -1.9060  -27.5470   17.7410 N.am  350  ALA350     -0.1966
     69  CA        -0.7880  -28.5130   17.5500 C.3   350  ALA350      0.1728
     70  C          0.3000  -28.2070   18.5990 C.2   350  ALA350      0.2616
     71  O          1.4420  -27.8400   18.2720 O.2   350  ALA350     -0.2715
     72  CB        -0.2710  -28.4470   16.0750 C.3   350  ALA350      0.0334
     73  N         -0.1120  -28.3220   19.8690 N.am  351  GLU351     -0.1963
     74  CA         0.6980  -27.8400   21.0030 C.3   351  GLU351      0.1733
     75  C          1.5630  -28.9120   21.6290 C.2   351  GLU351      0.2617
     76  O          2.5710  -28.5790   22.2400 O.2   351  GLU351     -0.2715
     77  CB        -0.1850  -27.1990   22.1000 C.3   351  GLU351      0.0429
     78  CG        -0.8040  -28.2020   23.1140 C.3   351  GLU351      0.1163
     79  CD        -1.7710  -29.2320   22.5030 C.2   351  GLU351      0.3649
     80  OE1       -2.4540  -28.9280   21.4750 O.co2 351  GLU351     -0.2457
     81  OE2       -1.9080  -30.3500   23.0910 O.co2 351  GLU351     -0.2457
     82  N          1.1660  -30.1680   21.5500 N.am  352  GLY352     -0.1940
     83  CA         1.9610  -31.2330   22.1410 C.3   352  GLY352      0.2014
     84  C          3.3390  -31.2950   21.5290 C.2   352  GLY352      0.2638
     85  O          4.3350  -31.4490   22.2430 O.2   352  GLY352     -0.2714
     86  N          3.4210  -31.1900   20.2120 N.am  353  ARG353     -0.1977
     87  CA         4.7200  -31.2730   19.5470 C.3   353  ARG353      0.1597
     88  C          5.6140  -30.0960   19.9590 C.2   353  ARG353      0.2287
     89  O          6.8220  -30.1970   19.8810 O.2   353  ARG353     -0.2864
     90  CB         4.5250  -31.3890   18.0250 C.3   353  ARG353      0.0334
     91  CG         3.9940  -30.1050   17.3870 C.3   353  ARG353      0.0492
     92  CD         3.4030  -30.3880   15.9890 C.3   353  ARG353      0.2205
     93  NE         2.1540  -31.1580   16.0750 N.pl3 353  ARG353     -0.0865
     94  CZ         1.4850  -31.6300   15.0380 C.cat 353  ARG353      0.5346
     95  NH1        1.9570  -31.4810   13.7960 N.pl3 353  ARG353      0.1354
     96  NH2        0.3780  -32.3140   15.2740 N.pl3 353  ARG353      0.1354
     97  N         -0.3350  -38.2310   23.3390 N.3   376  THR376     -0.1203
     98  CA        -1.6720  -38.3090   22.7450 C.3   376  THR376      0.1994
     99  C         -1.7350  -37.2390   21.6240 C.2   376  THR376      0.2618
    100  O         -2.3400  -36.1510   21.7490 O.2   376  THR376     -0.2717
    101  CB        -2.7330  -38.0590   23.8450 C.3   376  THR376      0.1784
    102  OG1       -2.3060  -36.9380   24.6750 O.3   376  THR376     -0.2211
    103  CG2       -2.8540  -39.2940   24.7060 C.3   376  THR376      0.0376
    104  N         -1.0610  -37.5180   20.5020 N.am  377  LEU377     -0.1965
    105  CA        -0.6530  -36.4350   19.6400 C.3   377  LEU377      0.1728
    106  C         -1.5800  -36.0860   18.5290 C.2   377  LEU377      0.2617
    107  O         -1.7700  -34.9050   18.2690 O.2   377  LEU377     -0.2715
    108  CB         0.8020  -36.6290   19.1510 C.3   377  LEU377      0.0311
    109  CG         1.5430  -35.3630   18.8020 C.3   377  LEU377      0.0022
    110  CD1        1.7450  -34.4890   20.0480 C.3   377  LEU377      0.0001
    111  CD2        2.8590  -35.6690   18.1280 C.3   377  LEU377      0.0001
    112  N         -2.1860  -37.0790   17.8790 N.am  378  THR378     -0.1937
    113  CA        -2.9590  -36.7800   16.6680 C.3   378  THR378      0.2028
    114  C         -4.2540  -37.5660   16.5770 C.2   378  THR378      0.2643
    115  O         -4.2890  -38.7810   16.7760 O.2   378  THR378     -0.2714
    116  CB        -2.1350  -37.0040   15.3270 C.3   378  THR378      0.1808
    117  OG1       -1.8050  -38.3960   15.1930 O.3   378  THR378     -0.2208
    118  CG2       -0.8490  -36.1820   15.3070 C.3   378  THR378      0.0379
    119  N         -5.3250  -36.8370   16.2610 N.am  379  GLY379     -0.1939
    120  CA        -6.5750  -37.4530   15.8650 C.3   379  GLY379      0.2014
    121  C         -6.3370  -38.3160   14.6390 C.2   379  GLY379      0.2638
    122  O         -6.9940  -39.3420   14.4640 O.2   379  GLY379     -0.2714
    123  N         -5.3860  -37.9090   13.7920 N.am  380  ALA380     -0.1977
    124  CA        -5.0060  -38.7220   12.6170 C.3   380  ALA380      0.1597
    125  C         -4.5810  -40.1600   12.9520 C.2   380  ALA380      0.2287
    126  O         -4.8020  -41.0820   12.1730 O.2   380  ALA380     -0.2864
    127  CB        -3.9090  -38.0280   11.8370 C.3   380  ALA380      0.0319
    128  N         -5.8660  -42.0500   15.2290 N.3   382  ILE382     -0.1245
    129  CA        -7.1060  -42.8020   15.4710 C.3   382  ILE382      0.1561
    130  C         -7.6960  -43.1820   14.1140 C.2   382  ILE382      0.2260
    131  O         -8.1680  -44.3070   13.9080 O.2   382  ILE382     -0.2867
    132  CB        -8.0960  -42.0090   16.3400 C.3   382  ILE382      0.0252
    133  CG1       -7.3750  -41.5000   17.5950 C.3   382  ILE382      0.0019
    134  CG2       -9.2930  -42.9150   16.6960 C.3   382  ILE382      0.0019
    135  CD1       -8.1850  -40.5290   18.4650 C.3   382  ILE382      0.0001
    136  N          2.4510  -27.4360   11.5530 N.3   437  ILE437     -0.1231
    137  CA         1.3990  -28.3010   10.9520 C.3   437  ILE437      0.1692
    138  C          1.7740  -28.6630    9.5320 C.2   437  ILE437      0.2593
    139  O          2.4880  -27.9170    8.8660 O.2   437  ILE437     -0.2718
    140  CB        -0.0140  -27.6700   10.9950 C.3   437  ILE437      0.0266
    141  CG1       -0.0500  -26.3600   10.2100 C.3   437  ILE437      0.0019
    142  CG2       -0.4720  -27.4420   12.4320 C.3   437  ILE437      0.0020
    143  CD1       -1.4590  -25.7000   10.0490 C.3   437  ILE437      0.0001
    144  N          1.3010  -29.8360    9.1290 N.am  438  GLY438     -0.1942
    145  CA         1.5620  -30.3150    7.7490 C.3   438  GLY438      0.2014
    146  C          0.3560  -30.4680    6.8640 C.2   438  GLY438      0.2639
    147  O          0.4800  -30.9670    5.7460 O.2   438  GLY438     -0.2714
    148  N         -0.8110  -30.0540    7.3340 N.am  439  GLY439     -0.1954
    149  CA        -2.0070  -30.1400    6.4710 C.3   439  GLY439      0.1869
    150  C         -2.7570  -31.4400    6.6630 C.2   439  GLY439      0.2309
    151  O         -2.4340  -32.2390    7.5630 O.2   439  GLY439     -0.2863
    152  N         -1.2250  -36.8640    8.7950 N.3   443  GLY443     -0.1225
    153  CA        -1.0880  -36.0540   10.0010 C.3   443  GLY443      0.1811
    154  C         -0.2430  -36.6620   11.1180 C.2   443  GLY443      0.2280
    155  O          0.4980  -35.9440   11.8290 O.2   443  GLY443     -0.2866
    156  N         -2.8200  -41.4330   21.0000 N.3   466  ALA466     -0.1245
    157  CA        -4.1220  -40.7390   20.9290 C.3   466  ALA466      0.1562
    158  C         -5.3040  -41.7160   20.8720 C.2   466  ALA466      0.2260
    159  O         -6.3810  -41.3780   21.3740 O.2   466  ALA466     -0.2867
    160  CB        -4.1660  -39.8100   19.6990 C.3   466  ALA466      0.0290
    161  N         -7.1040  -43.9670   26.1460 N.3   470  TRP470     -0.1241
    162  CA        -8.3550  -43.9250   26.9120 C.3   470  TRP470      0.1605
    163  C         -9.5040  -44.4810   26.1190 C.2   470  TRP470      0.2264
    164  O         -9.4150  -44.5940   24.9000 O.2   470  TRP470     -0.2867
    165  CB        -8.6710  -42.5150   27.4650 C.3   470  TRP470      0.0550
    166  CG        -9.1810  -41.5290   26.4990 C.ar  470  TRP470      0.0003
    167  CD1      -10.4860  -41.2450   26.2130 C.ar  470  TRP470      0.0946
    168  CD2       -8.3910  -40.6190   25.7300 C.ar  470  TRP470      0.0152
    169  NE1      -10.5560  -40.2260   25.2780 N.ar  470  TRP470     -0.2442
    170  CE2       -9.2830  -39.8220   24.9670 C.ar  470  TRP470      0.0810
    171  CE3       -7.0230  -40.3890   25.6160 C.ar  470  TRP470      0.0012
    172  CZ2       -8.8350  -38.7910   24.1180 C.ar  470  TRP470      0.0191
    173  CZ3       -6.5750  -39.3710   24.7930 C.ar  470  TRP470      0.0001
    174  CH2       -7.4840  -38.5910   24.0280 C.ar  470  TRP470      0.0015
@<TRIPOS>BOND
     1   147   146    2
     2   149   150    1
     3   149   148    1
     4   150   151    2
     5   146   148   am
     6   146   145    1
     7   145   144    1
     8   152   153    1
     9   139   138    2
    10   144   138   am
    11   138   137    1
    12   153   154    1
    13   143   141    1
    14   141   140    1
    15   137   140    1
    16   137   136    1
    17   140   142    1
    18   154   155    2
    19   127   124    1
    20   126   125    2
    21   124   125    1
    22   124   123    1
    23    59    57   am
    24   123   121   am
    25    95    94    1
    26   131   130    2
    27    56    57    1
    28    56    53    1
    29    52    53    1
    30   130   129    1
    31   122   121    2
    32    57    58    2
    33   121   120    1
    34    53    54    1
    35    94    96    1
    36    94    93    2
    37   117   116    1
    38   128   129    1
    39   118   116    1
    40   116   113    1
    41   129   132    1
    42   120   119    1
    43    92    93    1
    44    92    91    1
    45    72    69    1
    46    54    55    2
    47   119   114   am
    48   132   134    1
    49   132   133    1
    50   114   113    1
    51   114   115    2
    52   113   112    1
    53    91    90    1
    54    69    68    1
    55    69    70    1
    56   133   135    1
    57    68    62   am
    58   112   106   am
    59    90    87    1
    60   111   109    1
    61   107   106    2
    62    71    70    2
    63    64    61    1
    64    64    65    1
    65    67    65   ar
    66    60    61    1
    67    62    63    2
    68    62    61    1
    69   106   105    1
    70    70    73   am
    71   109   108    1
    72   109   110    1
    73    65    66   ar
    74   108   105    1
    75    87    88    1
    76    87    86    1
    77   105   104    1
    78   160   157    1
    79    19    20    1
    80    19    18    1
    81    19    22    1
    82    20    21    2
    83    73    74    1
    84    89    88    2
    85    26    25    1
    86    86    84   am
    87   104    99   am
    88    23    22    1
    89    23    24    1
    90   158   157    1
    91   158   159    2
    92   157   156    1
    93    74    75    1
    94    74    77    1
    95    25    24    1
    96    80    79   ar
    97    84    83    1
    98    84    85    2
    99    82    75   am
   100    82    83    1
   101    99   100    2
   102    99    98    1
   103    75    76    2
   104    77    78    1
   105    79    81   ar
   106    79    78    1
   107    17    15   ar
   108     9     8    1
   109    98    97    1
   110    98   101    1
   111    16    15   ar
   112    15    14    1
   113    43    42    1
   114    42    41    1
   115   101   102    1
   116   101   103    1
   117     8     7    1
   118    34    33   ar
   119   174   172   ar
   120   174   173   ar
   121     7     6    1
   122   172   170   ar
   123    50    49   ar
   124    41    40    1
   125    13    12    2
   126    51    49   ar
   127    14    11    1
   128   173   171   ar
   129   164   163    2
   130   170   169   ar
   131   170   168   ar
   132    33    35   ar
   133    33    32    1
   134    49    48    1
   135    12    11    1
   136   169   167   ar
   137     6     5    1
   138     5     2    1
   139   171   168   ar
   140   168   166   ar
   141    11    10    1
   142    31    32    1
   143    31    28    1
   144    40    37    1
   145   163   162    1
   146   161   162    1
   147   167   166   ar
   148    48    45    1
   149   166   165    1
   150    37    36    1
   151    37    38    1
   152    36    29   am
   153    29    28    1
   154    29    30    2
   155     2     1    1
   156     2     3    1
   157   162   165    1
   158    45    46    1
   159    45    44    1
   160    28    27    1
   161    47    46    2
   162    38    39    2
   163     3     4    2
