@<TRIPOS>MOLECULE
tmp/3h8hA00.pdb
 81 79 0 0 0
SMALL
GASTEIGER

@<TRIPOS>ATOM
      1  N         16.8910   10.6230    0.4860 N.3    58  ALA58      -0.1231
      2  CA        17.4960    9.5700   -0.3050 C.3    58  ALA58       0.1694
      3  C         16.9330    8.2320    0.1810 C.2    58  ALA58       0.2593
      4  O         16.7600    8.0060    1.4010 O.2    58  ALA58      -0.2718
      5  CB        19.0330    9.5920   -0.1360 C.3    58  ALA58       0.0304
      6  N         16.6670    7.3470   -0.7610 N.am   59  THR59      -0.1939
      7  CA        16.2730    5.9710   -0.4120 C.3    59  THR59       0.2028
      8  C         17.3910    4.9850   -0.6970 C.2    59  THR59       0.2642
      9  O         18.3200    5.2700   -1.4770 O.2    59  THR59      -0.2714
     10  CB        14.9980    5.4840   -1.1760 C.3    59  THR59       0.1808
     11  OG1       15.3420    5.1240   -2.5280 O.3    59  THR59      -0.2208
     12  CG2       13.8750    6.5430   -1.1160 C.3    59  THR59       0.0379
     13  N         17.3160    3.8400   -0.0240 N.am   60  ALA60      -0.1977
     14  CA        18.3120    2.7730   -0.1570 C.3    60  ALA60       0.1597
     15  C         18.4460    2.2820   -1.5950 C.2    60  ALA60       0.2287
     16  O         19.5460    1.8830   -1.9980 O.2    60  ALA60      -0.2864
     17  CB        18.0000    1.5860    0.7830 C.3    60  ALA60       0.0319
     18  N         18.2370    4.1130   -4.2730 N.3    62  GLY62      -0.1225
     19  CA        18.7820    5.1480   -5.1700 C.3    62  GLY62       0.1811
     20  C         17.7530    6.1440   -5.6760 C.2    62  GLY62       0.2280
     21  O         17.9690    6.8300   -6.7060 O.2    62  GLY62      -0.2866
     22  N         11.3040    6.9610    7.3180 N.3    80  TYR80      -0.1227
     23  CA        12.2060    6.8800    6.1840 C.3    80  TYR80       0.1736
     24  C         13.6940    6.7170    6.4930 C.2    80  TYR80       0.2595
     25  O         14.4750    6.4930    5.5640 O.2    80  TYR80      -0.2718
     26  CB        12.0390    8.1630    5.3690 C.3    80  TYR80       0.0548
     27  CG        10.6150    8.4690    4.9410 C.ar   80  TYR80      -0.0200
     28  CD1        9.9360    7.6280    4.0230 C.ar   80  TYR80      -0.0009
     29  CD2        9.9760    9.6180    5.3950 C.ar   80  TYR80      -0.0009
     30  CE1        8.6320    7.9480    3.5930 C.ar   80  TYR80       0.0417
     31  CE2        8.6890    9.9470    4.9860 C.ar   80  TYR80       0.0417
     32  CZ         8.0260    9.1180    4.0810 C.ar   80  TYR80       0.1957
     33  OH         6.7650    9.4640    3.6970 O.3    80  TYR80      -0.2866
     34  N         14.0980    6.8170    7.7640 N.am   81  TRP81      -0.1962
     35  CA        15.5190    6.9060    8.0900 C.3    81  TRP81       0.1771
     36  C         15.7360    6.4780    9.5180 C.2    81  TRP81       0.2619
     37  O         15.8950    7.3340   10.4180 O.2    81  TRP81      -0.2715
     38  CB        15.9930    8.3600    8.0310 C.3    81  TRP81       0.0590
     39  CG        17.4710    8.4670    7.8860 C.ar   81  TRP81       0.0006
     40  CD1       18.4080    8.5930    8.8820 C.ar   81  TRP81       0.0946
     41  CD2       18.1860    8.4920    6.6510 C.ar   81  TRP81       0.0152
     42  NE1       19.6730    8.6720    8.3420 N.ar   81  TRP81      -0.2442
     43  CE2       19.5690    8.6110    6.9680 C.ar   81  TRP81       0.0810
     44  CE3       17.7920    8.4260    5.2960 C.ar   81  TRP81       0.0012
     45  CZ2       20.5640    8.6650    5.9790 C.ar   81  TRP81       0.0191
     46  CZ3       18.7750    8.4740    4.3110 C.ar   81  TRP81       0.0001
     47  CH2       20.1510    8.6030    4.6550 C.ar   81  TRP81       0.0015
     48  N         15.7590    5.1970    9.7560 N.am   82  LYS82      -0.1963
     49  CA        15.8640    4.7040   11.1230 C.3    82  LYS82       0.1728
     50  C         17.3060    4.6330   11.6010 C.2    82  LYS82       0.2616
     51  O         17.5640    4.5560   12.8130 O.2    82  LYS82      -0.2715
     52  CB        15.1820    3.3250   11.1870 C.3    82  LYS82       0.0311
     53  CG        13.7870    3.3810   10.5650 C.3    82  LYS82       0.0038
     54  CD        13.2550    2.0280   10.0750 C.3    82  LYS82       0.0206
     55  CE        12.0060    2.2820    9.2020 C.3    82  LYS82       0.1093
     56  NZ        11.2250    1.0360    8.9800 N.3    82  LYS82      -0.1314
     57  N         18.2300    4.6820   10.6410 N.am   83  VAL83      -0.1977
     58  CA        19.6280    4.3230   10.8440 C.3    83  VAL83       0.1596
     59  C         20.3840    5.4080   11.6060 C.2    83  VAL83       0.2287
     60  O         19.9720    6.6070   11.6250 O.2    83  VAL83      -0.2864
     61  CB        20.3390    4.0060    9.4630 C.3    83  VAL83       0.0276
     62  CG1       19.7300    2.7420    8.7940 C.3    83  VAL83       0.0022
     63  CG2       20.2740    5.2390    8.5110 C.3    83  VAL83       0.0022
     64  N         22.7990    7.6390   11.2590 N.3    85  LYS85      -0.1245
     65  CA        23.5920    8.4820   10.3360 C.3    85  LYS85       0.1561
     66  C         22.7940    9.7590   10.2020 C.2    85  LYS85       0.2260
     67  O         21.5630    9.7100   10.2830 O.2    85  LYS85      -0.2867
     68  CB        23.6000    7.9020    8.9080 C.3    85  LYS85       0.0271
     69  CG        24.3780    6.6710    8.6410 C.3    85  LYS85       0.0035
     70  CD        24.3590    6.3730    7.0940 C.3    85  LYS85       0.0206
     71  CE        23.0030    5.8080    6.6210 C.3    85  LYS85       0.1093
     72  NZ        22.9760    4.2840    6.3490 N.3    85  LYS85      -0.1314
     73  N         20.0420   12.1510    5.0500 N.3    88  GLU88      -0.1245
     74  CA        20.5160   12.6570    3.7860 C.3    88  GLU88       0.1567
     75  C         19.3630   13.2720    2.9920 C.2    88  GLU88       0.2260
     76  O         18.6360   12.5650    2.2850 O.2    88  GLU88      -0.2867
     77  CB        21.2380   11.5620    3.0150 C.3    88  GLU88       0.0388
     78  CG        22.5530   11.1440    3.7690 C.3    88  GLU88       0.1160
     79  CD        23.0810    9.7820    3.3300 C.2    88  GLU88       0.3649
     80  OE1       22.7250    9.3530    2.1980 O.co2  88  GLU88      -0.2457
     81  OE2       23.8560    9.1550    4.1230 O.co2  88  GLU88      -0.2457
@<TRIPOS>BOND
     1    21    20    2
     2    20    19    1
     3    19    18    1
     4    11    10    1
     5    16    15    2
     6    15    14    1
     7     9     8    2
     8    10    12    1
     9    10     7    1
    10     6     7    1
    11     6     3   am
    12     8     7    1
    13     8    13   am
    14     2     5    1
    15     2     3    1
    16     2     1    1
    17    14    13    1
    18    14    17    1
    19     3     4    2
    20    80    79   ar
    21    76    75    2
    22    75    74    1
    23    77    78    1
    24    77    74    1
    25    79    78    1
    26    79    81   ar
    27    30    28   ar
    28    30    32   ar
    29    33    32    1
    30    74    73    1
    31    28    27   ar
    32    32    31   ar
    33    46    47   ar
    34    46    44   ar
    35    47    45   ar
    36    27    26    1
    37    27    29   ar
    38    31    29   ar
    39    44    41   ar
    40    26    23    1
    41    25    24    2
    42    45    43   ar
    43    23    24    1
    44    23    22    1
    45    72    71    1
    46    24    34   am
    47    71    70    1
    48    41    43   ar
    49    41    39   ar
    50    43    42   ar
    51    70    69    1
    52    34    35    1
    53    39    38    1
    54    39    40   ar
    55    38    35    1
    56    35    36    1
    57    42    40   ar
    58    63    61    1
    59    69    68    1
    60    62    61    1
    61    68    65    1
    62    56    55    1
    63    55    54    1
    64    61    58    1
    65    36    48   am
    66    36    37    2
    67    48    49    1
    68    54    53    1
    69    66    67    2
    70    66    65    1
    71    65    64    1
    72    53    52    1
    73    57    58    1
    74    57    50   am
    75    58    59    1
    76    49    52    1
    77    49    50    1
    78    50    51    2
    79    59    60    2
