@<TRIPOS>MOLECULE
tmp/3h8tB00.pdb
 199 195 0 0 0
SMALL
GASTEIGER

@<TRIPOS>ATOM
      1  N          7.6150   53.2560  -10.0990 N.3    14  TYR14      -0.1241
      2  CA         8.4150   54.0650   -9.1750 C.3    14  TYR14       0.1605
      3  C          9.7780   54.5180   -9.7380 C.2    14  TYR14       0.2264
      4  O         10.3470   55.5340   -9.3010 O.2    14  TYR14      -0.2867
      5  CB         8.6320   53.2750   -7.8670 C.3    14  TYR14       0.0534
      6  CG         7.3700   53.1710   -7.0400 C.ar   14  TYR14      -0.0201
      7  CD1        6.4610   52.1170   -7.2430 C.ar   14  TYR14      -0.0009
      8  CD2        7.0840   54.1240   -6.0610 C.ar   14  TYR14      -0.0009
      9  CE1        5.2870   52.0250   -6.4780 C.ar   14  TYR14       0.0417
     10  CE2        5.9260   54.0390   -5.2850 C.ar   14  TYR14       0.0417
     11  CZ         5.0350   52.9970   -5.5090 C.ar   14  TYR14       0.1957
     12  OH         3.8900   52.9140   -4.7570 O.3    14  TYR14      -0.2866
     13  N          5.5470   61.3350  -11.6860 N.3    44  HIS44      -0.1226
     14  CA         6.0830   60.0940  -11.1100 C.3    44  HIS44       0.1752
     15  C          5.2270   59.8240   -9.8930 C.2    44  HIS44       0.2596
     16  O          5.2760   60.5810   -8.9140 O.2    44  HIS44      -0.2718
     17  CB         7.5440   60.2820  -10.6910 C.3    44  HIS44       0.0759
     18  CG         7.9980   59.3220   -9.6350 C.ar   44  HIS44       0.0818
     19  ND1        7.8020   59.5550   -8.2930 N.ar   44  HIS44      -0.2268
     20  CD2        8.6420   58.1340   -9.7210 C.ar   44  HIS44       0.1154
     21  CE1        8.2800   58.5390   -7.5910 C.ar   44  HIS44       0.1986
     22  NE2        8.8040   57.6650   -8.4350 N.ar   44  HIS44      -0.2212
     23  N          4.4450   58.7510   -9.9410 N.am   45  ARG45      -0.1966
     24  CA         3.4210   58.5220   -8.9050 C.3    45  ARG45       0.1729
     25  C          2.6250   59.8260   -8.7110 C.2    45  ARG45       0.2616
     26  O          2.0140   60.2830   -9.6580 O.2    45  ARG45      -0.2715
     27  CB         4.0370   58.0520   -7.5920 C.3    45  ARG45       0.0348
     28  CG         4.9090   56.7700   -7.6660 C.3    45  ARG45       0.0492
     29  CD         4.1000   55.5060   -7.9730 C.3    45  ARG45       0.2205
     30  NE         2.9630   55.2990   -7.0450 N.pl3  45  ARG45      -0.0865
     31  CZ         2.0760   54.3060   -7.1600 C.cat  45  ARG45       0.5346
     32  NH1        2.1970   53.3950   -8.1200 N.pl3  45  ARG45       0.1354
     33  NH2        1.0670   54.1980   -6.3000 N.pl3  45  ARG45       0.1354
     34  N          2.6450   60.4290   -7.5110 N.am   46  TYR46      -0.1974
     35  CA         1.9130   61.6840   -7.2980 C.3    46  TYR46       0.1639
     36  C          2.8130   62.9030   -7.2800 C.2    46  TYR46       0.2290
     37  O          2.3550   63.9940   -6.9610 O.2    46  TYR46      -0.2864
     38  CB         1.0160   61.6330   -6.0350 C.3    46  TYR46       0.0560
     39  CG         0.2470   60.3370   -5.9670 C.ar   46  TYR46      -0.0198
     40  CD1        0.3810   59.4760   -4.8600 C.ar   46  TYR46      -0.0009
     41  CD2       -0.5650   59.9390   -7.0330 C.ar   46  TYR46      -0.0009
     42  CE1       -0.3150   58.2520   -4.8180 C.ar   46  TYR46       0.0417
     43  CE2       -1.2460   58.7370   -7.0110 C.ar   46  TYR46       0.0417
     44  CZ        -1.1120   57.8960   -5.9100 C.ar   46  TYR46       0.1957
     45  OH        -1.8010   56.7040   -5.9070 O.3    46  TYR46      -0.2866
     46  N         12.6860   64.4190   -1.6630 N.3    88  ARG88      -0.1245
     47  CA        12.7920   62.9660   -1.6470 C.3    88  ARG88       0.1563
     48  C         11.8130   62.3710   -2.6540 C.2    88  ARG88       0.2260
     49  O         10.6330   62.7180   -2.6420 O.2    88  ARG88      -0.2867
     50  CB        12.4580   62.4370   -0.2550 C.3    88  ARG88       0.0307
     51  CG        12.9090   61.0110   -0.0590 C.3    88  ARG88       0.0489
     52  CD        12.6310   60.5380    1.3570 C.3    88  ARG88       0.2205
     53  NE        11.2540   60.0620    1.4590 N.pl3  88  ARG88      -0.0865
     54  CZ        10.7540   59.3710    2.4810 C.cat  88  ARG88       0.5346
     55  NH1       11.5090   59.0670    3.5400 N.pl3  88  ARG88       0.1354
     56  NH2        9.4870   58.9870    2.4350 N.pl3  88  ARG88       0.1354
     57  N         10.5380   58.5900   -4.1660 N.3    90  THR90      -0.1218
     58  CA        10.5640   57.1510   -3.9330 C.3    90  THR90       0.1862
     59  C         10.8090   56.4280   -5.2470 C.2    90  THR90       0.2287
     60  O          9.9570   56.4510   -6.1460 O.2    90  THR90      -0.2866
     61  CB         9.2380   56.7030   -3.3330 C.3    90  THR90       0.1770
     62  OG1        8.9890   57.4690   -2.1550 O.3    90  THR90      -0.2211
     63  CG2        9.2270   55.2030   -3.0190 C.3    90  THR90       0.0375
     64  N          9.7690   50.4560   -4.5340 N.3    93  TYR93      -0.1241
     65  CA         8.7530   50.1230   -3.5350 C.3    93  TYR93       0.1605
     66  C          8.4460   48.6420   -3.6580 C.2    93  TYR93       0.2264
     67  O          8.2070   48.1490   -4.7540 O.2    93  TYR93      -0.2867
     68  CB         7.5160   50.9640   -3.8210 C.3    93  TYR93       0.0534
     69  CG         6.2780   50.6610   -3.0050 C.ar   93  TYR93      -0.0201
     70  CD1        5.8080   51.5810   -2.0650 C.ar   93  TYR93      -0.0009
     71  CD2        5.5370   49.4950   -3.2300 C.ar   93  TYR93      -0.0009
     72  CE1        4.6300   51.3500   -1.3500 C.ar   93  TYR93       0.0417
     73  CE2        4.3520   49.2370   -2.4880 C.ar   93  TYR93       0.0417
     74  CZ         3.9190   50.1690   -1.5580 C.ar   93  TYR93       0.1957
     75  OH         2.7570   49.9100   -0.8480 O.3    93  TYR93      -0.2866
     76  N          6.3730   45.4740   -1.2640 N.3    95  MET95      -0.1245
     77  CA         5.7670   44.8810   -0.0690 C.3    95  MET95       0.1570
     78  C          6.4350   43.5430    0.2560 C.2    95  MET95       0.2261
     79  O          6.7340   42.7570   -0.6390 O.2    95  MET95      -0.2867
     80  CB         4.2770   44.6530   -0.3180 C.3    95  MET95       0.0387
     81  CG         3.4220   45.8870   -0.2170 C.3    95  MET95       0.0595
     82  SD         3.2140   46.1780    1.5640 S.3    95  MET95      -0.1393
     83  CE         2.0390   47.5320    1.4780 C.3    95  MET95       0.0692
     84  N          5.8970   47.7590    3.4680 N.3   100  HIS100     -0.1241
     85  CA         6.4540   48.3080    2.2280 C.3   100  HIS100      0.1621
     86  C          7.8640   48.8520    2.4130 C.2   100  HIS100      0.2264
     87  O          8.0680   49.8370    3.1350 O.2   100  HIS100     -0.2867
     88  CB         5.5290   49.3200    1.5130 C.3   100  HIS100      0.0745
     89  CG         4.9240   50.3850    2.3880 C.ar  100  HIS100      0.0817
     90  ND1        5.6400   51.0990    3.3330 N.ar  100  HIS100     -0.2268
     91  CD2        3.6640   50.8970    2.4060 C.ar  100  HIS100      0.1154
     92  CE1        4.8420   51.9800    3.9120 C.ar  100  HIS100      0.1986
     93  NE2        3.6380   51.8830    3.3660 N.ar  100  HIS100     -0.2212
     94  N         11.0430   50.7350    0.8490 N.3   102  MET102     -0.1245
     95  CA        11.2310   51.7350   -0.2050 C.3   102  MET102      0.1570
     96  C         12.6850   52.1550   -0.2820 C.2   102  MET102      0.2261
     97  O         13.4230   52.0450    0.7170 O.2   102  MET102     -0.2867
     98  CB        10.3580   52.9550    0.0680 C.3   102  MET102      0.0387
     99  CG         8.8830   52.6100    0.1980 C.3   102  MET102      0.0595
    100  SD         7.8920   54.0800    0.4170 S.3   102  MET102     -0.1393
    101  CE         6.4560   53.4050    1.2490 C.3   102  MET102      0.0692
    102  N          6.5160   67.3610    1.4190 N.3   117  LYS117     -0.1245
    103  CA         6.5130   66.0800    2.1340 C.3   117  LYS117      0.1561
    104  C          6.9580   66.2530    3.5710 C.2   117  LYS117      0.2260
    105  O          7.9300   66.9650    3.8440 O.2   117  LYS117     -0.2867
    106  CB         7.4000   65.0410    1.4450 C.3   117  LYS117      0.0271
    107  CG         6.9580   64.8140   -0.0160 C.3   117  LYS117      0.0035
    108  CD         7.6860   63.6790   -0.7040 C.3   117  LYS117      0.0206
    109  CE         7.2050   63.6280   -2.1780 C.3   117  LYS117      0.1093
    110  NZ         7.8800   62.5630   -2.9440 N.3   117  LYS117     -0.1314
    111  N          7.4380   61.7910    7.6930 N.3   120  GLN120     -0.1231
    112  CA         7.1900   60.3960    7.3200 C.3   120  GLN120      0.1698
    113  C          6.9580   60.2130    5.8170 C.2   120  GLN120      0.2593
    114  O          6.7030   59.0970    5.3680 O.2   120  GLN120     -0.2718
    115  CB         6.0390   59.8040    8.1330 C.3   120  GLN120      0.0381
    116  CG         6.3750   59.6060    9.6280 C.3   120  GLN120      0.0905
    117  CD         6.3860   60.9120   10.4090 C.2   120  GLN120      0.2608
    118  OE1        5.6790   61.8620   10.0580 O.2   120  GLN120     -0.2717
    119  NE2        7.1860   60.9630   11.4730 N.am  120  GLN120     -0.0878
    120  N          7.0620   61.2890    5.0410 N.am  121  GLY121     -0.1942
    121  CA         6.9840   61.1700    3.5790 C.3   121  GLY121      0.2014
    122  C          5.6370   61.5100    2.9450 C.2   121  GLY121      0.2638
    123  O          5.4640   61.3270    1.7350 O.2   121  GLY121     -0.2714
    124  N          4.6940   62.0100    3.7450 N.am  122  PHE122     -0.1973
    125  CA         3.3430   62.3300    3.2610 C.3   122  PHE122      0.1639
    126  C          3.3060   63.7440    2.6770 C.2   122  PHE122      0.2290
    127  O          3.6950   64.7120    3.3410 O.2   122  PHE122     -0.2864
    128  CB         2.2960   62.2140    4.3880 C.3   122  PHE122      0.0560
    129  CG         2.1880   60.8340    4.9970 C.ar  122  PHE122     -0.0200
    130  CD1        1.5480   59.8000    4.3100 C.ar  122  PHE122     -0.0042
    131  CD2        2.7260   60.5670    6.2500 C.ar  122  PHE122     -0.0042
    132  CE1        1.4570   58.5110    4.8800 C.ar  122  PHE122     -0.0003
    133  CE2        2.6290   59.2850    6.8260 C.ar  122  PHE122     -0.0003
    134  CZ         1.9850   58.2600    6.1330 C.ar  122  PHE122     -0.0000
    135  N         -2.3520   63.4020    0.4900 N.3   130  PHE130     -0.1241
    136  CA        -2.1630   61.9680    0.6790 C.3   130  PHE130      0.1605
    137  C         -1.8330   61.7080    2.1340 C.2   130  PHE130      0.2264
    138  O         -0.9510   62.3600    2.6990 O.2   130  PHE130     -0.2867
    139  CB        -1.0230   61.4850   -0.2040 C.3   130  PHE130      0.0534
    140  CG        -0.7030   60.0240   -0.0280 C.ar  130  PHE130     -0.0203
    141  CD1       -1.4510   59.0540   -0.6970 C.ar  130  PHE130     -0.0042
    142  CD2        0.3310   59.6170    0.8370 C.ar  130  PHE130     -0.0042
    143  CE1       -1.1590   57.6870   -0.5310 C.ar  130  PHE130     -0.0003
    144  CE2        0.6330   58.2590    1.0170 C.ar  130  PHE130     -0.0003
    145  CZ        -0.1300   57.2830    0.3280 C.ar  130  PHE130     -0.0000
    146  N         -2.5220   58.5030    5.5890 N.3   132  HIS132     -0.1241
    147  CA        -2.8980   57.1420    5.9240 C.3   132  HIS132      0.1621
    148  C         -3.9120   57.1820    7.0450 C.2   132  HIS132      0.2264
    149  O         -3.9190   58.1180    7.8790 O.2   132  HIS132     -0.2867
    150  CB        -1.6760   56.3410    6.4130 C.3   132  HIS132      0.0745
    151  CG        -0.9140   55.6220    5.3350 C.ar  132  HIS132      0.0817
    152  ND1       -0.8560   56.0540    4.0260 N.ar  132  HIS132     -0.2268
    153  CD2       -0.1220   54.5230    5.4050 C.ar  132  HIS132      0.1154
    154  CE1       -0.0670   55.2420    3.3320 C.ar  132  HIS132      0.1986
    155  NE2        0.4090   54.3200    4.1560 N.ar  132  HIS132     -0.2212
    156  N         -5.1990   54.1260   10.0310 N.3   134  PRO134     -0.2102
    157  CA        -4.3740   53.2640   10.8850 C.3   134  PRO134      0.1504
    158  C         -3.6130   52.1710   10.1200 C.2   134  PRO134      0.2576
    159  O         -2.6420   51.6100   10.6380 O.2   134  PRO134     -0.2718
    160  CB        -5.4020   52.6070   11.8270 C.3   134  PRO134      0.0282
    161  CG        -6.6300   53.4950   11.7550 C.3   134  PRO134      0.0208
    162  CD        -6.6330   54.0720   10.3700 C.3   134  PRO134      0.0893
    163  N         -4.0480   51.8600    8.8990 N.am  135  ALA135     -0.1966
    164  CA        -3.4850   50.7000    8.1990 C.3   135  ALA135      0.1728
    165  C         -3.4760   50.8270    6.6690 C.2   135  ALA135      0.2617
    166  O         -3.6350   49.8370    5.9290 O.2   135  ALA135     -0.2715
    167  CB        -4.2050   49.4160    8.6560 C.3   135  ALA135      0.0334
    168  N         -3.2790   52.0450    6.1820 N.am  136  GLY136     -0.1941
    169  CA        -3.1080   52.2340    4.7360 C.3   136  GLY136      0.1998
    170  C         -3.5840   53.5840    4.2150 C.2   136  GLY136      0.2480
    171  O         -3.9690   54.4690    4.9800 O.2   136  GLY136     -0.2729
    172  N         -3.5920   53.7350    2.8900 N.am  137  PRO137     -0.2726
    173  CA        -3.6170   55.0500    2.2360 C.3   137  PRO137      0.1402
    174  C         -4.9900   55.7220    2.1850 C.2   137  PRO137      0.2269
    175  O         -6.0250   55.0440    2.0320 O.2   137  PRO137     -0.2865
    176  CB        -3.1080   54.7330    0.8110 C.3   137  PRO137      0.0296
    177  CG        -3.5330   53.2960    0.5830 C.3   137  PRO137      0.0237
    178  CD        -3.3330   52.6360    1.9340 C.3   137  PRO137      0.0939
    179  N         -6.7790   59.3760    0.2750 N.3   139  TYR139     -0.1241
    180  CA        -6.5220   60.2920   -0.8390 C.3   139  TYR139      0.1605
    181  C         -7.5830   61.3770   -0.8680 C.2   139  TYR139      0.2264
    182  O         -8.7710   61.0720   -0.7580 O.2   139  TYR139     -0.2867
    183  CB        -6.6710   59.5360   -2.1560 C.3   139  TYR139      0.0534
    184  CG        -5.8440   58.2790   -2.2780 C.ar  139  TYR139     -0.0201
    185  CD1       -4.5720   58.3160   -2.8670 C.ar  139  TYR139     -0.0009
    186  CD2       -6.3530   57.0480   -1.8260 C.ar  139  TYR139     -0.0009
    187  CE1       -3.8080   57.1430   -2.9990 C.ar  139  TYR139      0.0417
    188  CE2       -5.5950   55.8690   -1.9360 C.ar  139  TYR139      0.0417
    189  CZ        -4.3360   55.9290   -2.5410 C.ar  139  TYR139      0.1957
    190  OH        -3.5900   54.7860   -2.6420 O.3   139  TYR139     -0.2866
    191  N         -3.9390   52.7100   -8.9320 N.3   170  LYS170     -0.1245
    192  CA        -3.3410   53.9320   -8.3900 C.3   170  LYS170      0.1561
    193  C         -2.1200   54.3910   -9.1840 C.2   170  LYS170      0.2260
    194  O         -1.4410   53.5760   -9.8340 O.2   170  LYS170     -0.2867
    195  CB        -2.9360   53.7060   -6.9120 C.3   170  LYS170      0.0271
    196  CG        -4.0710   53.2490   -5.9800 C.3   170  LYS170      0.0035
    197  CD        -5.2570   54.2080   -5.8570 C.3   170  LYS170      0.0206
    198  CE        -6.3210   53.6420   -4.8490 C.3   170  LYS170      0.1093
    199  NZ        -7.1450   52.5460   -5.4240 N.3   170  LYS170     -0.1314
@<TRIPOS>BOND
     1    13    14    1
     2    14    17    1
     3    14    15    1
     4    17    18    1
     5     1     2    1
     6    23    15   am
     7    23    24    1
     8    15    16    2
     9   194   193    2
    10     3     4    2
    11     3     2    1
    12    20    18   ar
    13    20    22   ar
    14    26    25    2
    15    18    19   ar
    16   193   192    1
    17     2     5    1
    18   191   192    1
    19    24    25    1
    20    24    27    1
    21    25    34   am
    22    22    21   ar
    23   192   195    1
    24    19    21   ar
    25    32    31    1
    26    29    28    1
    27    29    30    1
    28     5     6    1
    29    28    27    1
    30    34    35    1
    31    35    36    1
    32    35    38    1
    33    36    37    2
    34     7     6   ar
    35     7     9   ar
    36    31    30    2
    37    31    33    1
    38     6     8   ar
    39    41    43   ar
    40    41    39   ar
    41    43    44   ar
    42   195   196    1
    43     9    11   ar
    44    60    59    2
    45     8    10   ar
    46    38    39    1
    47   196   197    1
    48    39    40   ar
    49    44    45    1
    50    44    42   ar
    51   197   198    1
    52    11    10   ar
    53    11    12    1
    54   199   198    1
    55    59    58    1
    56    40    42   ar
    57    67    66    2
    58    64    65    1
    59    57    58    1
    60    58    61    1
    61    68    65    1
    62    68    69    1
    63    66    65    1
    64    61    63    1
    65    61    62    1
    66    71    69   ar
    67    71    73   ar
    68    69    70   ar
    69   187   185   ar
    70   187   189   ar
    71   110   109    1
    72   185   184   ar
    73    48    49    2
    74    48    47    1
    75   190   189    1
    76   189   188   ar
    77    73    74   ar
    78   184   183    1
    79   184   186   ar
    80   109   108    1
    81   183   180    1
    82    70    72   ar
    83   188   186   ar
    84    46    47    1
    85    47    50    1
    86    74    72   ar
    87    74    75    1
    88    76    77    1
    89   181   180    1
    90   181   182    2
    91   180   179    1
    92   108   107    1
    93   141   143   ar
    94   141   140   ar
    95    79    78    2
    96   143   145   ar
    97    80    81    1
    98    80    77    1
    99    96    95    1
   100    96    97    2
   101    50    51    1
   102    81    82    1
   103    95    98    1
   104    95    94    1
   105   139   140    1
   106   139   136    1
   107    77    78    1
   108    51    52    1
   109   140   142   ar
   110   107   106    1
   111    98    99    1
   112    99   100    1
   113   145   144   ar
   114   100   101    1
   115   135   136    1
   116   177   176    1
   117   177   178    1
   118   136   137    1
   119   176   173    1
   120   142   144   ar
   121    52    53    1
   122   102   103    1
   123   106   103    1
   124    53    54    2
   125    83    82    1
   126    88    85    1
   127    88    89    1
   128   123   122    2
   129   178   172    1
   130   175   174    2
   131   137   138    2
   132   103   104    1
   133   174   173    1
   134    85    86    1
   135    85    84    1
   136   173   172    1
   137    89    91   ar
   138    89    90   ar
   139    91    93   ar
   140    86    87    2
   141    56    54    1
   142    54    55    1
   143   126   125    1
   144   126   127    2
   145   172   170   am
   146   122   121    1
   147   122   124   am
   148   125   124    1
   149   125   128    1
   150   154   152   ar
   151   154   155   ar
   152    90    92   ar
   153    93    92   ar
   154   104   105    2
   155   121   120    1
   156   152   151   ar
   157   155   153   ar
   158   170   169    1
   159   170   171    2
   160   130   132   ar
   161   130   129   ar
   162   128   129    1
   163   169   168    1
   164   132   134   ar
   165   129   131   ar
   166   120   113   am
   167   151   153   ar
   168   151   150    1
   169   114   113    2
   170   146   147    1
   171   113   112    1
   172   147   150    1
   173   147   148    1
   174   166   165    2
   175   134   133   ar
   176   168   165   am
   177   131   133   ar
   178   165   164    1
   179   148   149    2
   180   112   111    1
   181   112   115    1
   182   115   116    1
   183   164   167    1
   184   164   163    1
   185   163   158   am
   186   116   117    1
   187   156   162    1
   188   156   157    1
   189   118   117    2
   190   158   159    2
   191   158   157    1
   192   162   161    1
   193   117   119   am
   194   157   160    1
   195   161   160    1
