@<TRIPOS>MOLECULE
tmp/3h98B00.pdb
 206 197 0 0 0
SMALL
GASTEIGER

@<TRIPOS>ATOM
      1  N        -41.2620    5.6480   -6.5610 N.3   190  PHE190     -0.1241
      2  CA       -40.3740    4.6470   -7.1740 C.3   190  PHE190      0.1605
      3  C        -41.1720    3.5360   -7.9190 C.2   190  PHE190      0.2264
      4  O        -40.6500    2.7010   -8.6040 O.2   190  PHE190     -0.2867
      5  CB       -39.3440    4.0670   -6.1400 C.3   190  PHE190      0.0534
      6  CG       -38.2260    5.0420   -5.7010 C.ar  190  PHE190     -0.0203
      7  CD1      -37.3270    5.6040   -6.6440 C.ar  190  PHE190     -0.0042
      8  CD2      -38.0090    5.3200   -4.3240 C.ar  190  PHE190     -0.0042
      9  CE1      -36.2910    6.4630   -6.2320 C.ar  190  PHE190     -0.0003
     10  CE2      -36.9760    6.1750   -3.9030 C.ar  190  PHE190     -0.0003
     11  CZ       -36.0630    6.7330   -4.8760 C.ar  190  PHE190     -0.0000
     12  N        -40.6390    6.6580  -16.0320 N.3   194  PRO194     -0.2116
     13  CA       -40.6680    8.1290  -16.2140 C.3   194  PRO194      0.1372
     14  C        -41.9780    8.6400  -16.7990 C.2   194  PRO194      0.2244
     15  O        -42.4230    9.7410  -16.4260 O.2   194  PRO194     -0.2868
     16  CB       -39.5340    8.3820  -17.2520 C.3   194  PRO194      0.0268
     17  CG       -38.5620    7.2640  -16.9490 C.3   194  PRO194      0.0207
     18  CD       -39.4050    6.0670  -16.6000 C.3   194  PRO194      0.0892
     19  N        -44.5780    8.7200  -14.2300 N.3   197  ARG197     -0.1245
     20  CA       -44.4060    9.7860  -13.2920 C.3   197  ARG197      0.1563
     21  C        -44.9600   11.0830  -13.9220 C.2   197  ARG197      0.2260
     22  O        -45.5260   11.9530  -13.2260 O.2   197  ARG197     -0.2867
     23  CB       -42.9470    9.9330  -12.9020 C.3   197  ARG197      0.0307
     24  CG       -42.6390   11.0940  -11.9640 C.3   197  ARG197      0.0489
     25  CD       -41.0940   11.3220  -11.8230 C.3   197  ARG197      0.2205
     26  NE       -40.7580   12.4630  -10.9350 N.pl3 197  ARG197     -0.0865
     27  CZ       -40.6650   12.3730   -9.6070 C.cat 197  ARG197      0.5346
     28  NH1      -40.8220   11.1690   -8.9860 N.pl3 197  ARG197      0.1354
     29  NH2      -40.3960   13.4660   -8.8730 N.pl3 197  ARG197      0.1354
     30  N        -29.7760   12.5630    4.9760 N.3   222  ASP222     -0.1239
     31  CA       -29.2620   11.5040    5.8570 C.3   222  ASP222      0.1674
     32  C        -28.8000   11.9310    7.2500 C.2   222  ASP222      0.2266
     33  O        -28.9870   11.1920    8.2120 O.2   222  ASP222     -0.2867
     34  CB       -28.1280   10.7050    5.1990 C.3   222  ASP222      0.1410
     35  CG       -28.6190    9.8980    3.9950 C.2   222  ASP222      0.3668
     36  OD1      -29.8390    9.9370    3.6800 O.co2 222  ASP222     -0.2456
     37  OD2      -27.7760    9.2540    3.3370 O.co2 222  ASP222     -0.2456
     38  N        -32.0030    2.2520    3.3010 N.3   284  THR284     -0.1203
     39  CA       -31.8020    3.7000    3.0810 C.3   284  THR284      0.1994
     40  C        -32.9660    4.3390    2.2560 C.2   284  THR284      0.2618
     41  O        -33.5550    5.3190    2.6960 O.2   284  THR284     -0.2717
     42  CB       -30.4640    3.9770    2.3380 C.3   284  THR284      0.1784
     43  OG1      -29.3470    3.6470    3.2000 O.3   284  THR284     -0.2211
     44  CG2      -30.3250    5.4690    1.9690 C.3   284  THR284      0.0376
     45  N        -33.2820    3.7660    1.1060 N.am  285  SER285     -0.1951
     46  CA       -34.3410    4.2580    0.2330 C.3   285  SER285      0.1924
     47  C        -35.7280    4.2020    0.9010 C.2   285  SER285      0.2314
     48  O        -36.3700    5.2090    1.0360 O.2   285  SER285     -0.2863
     49  CB       -34.3930    3.5460   -1.1230 C.3   285  SER285      0.2116
     50  OG       -35.4290    4.1760   -1.8890 O.3   285  SER285     -0.2180
     51  N        -35.6760    6.4970    4.1450 N.3   288  ASN288     -0.1240
     52  CA       -35.8020    7.9420    3.7910 C.3   288  ASN288      0.1653
     53  C        -37.1930    8.2890    3.2220 C.2   288  ASN288      0.2266
     54  O        -37.7550    9.3330    3.5820 O.2   288  ASN288     -0.2867
     55  CB       -34.7130    8.4630    2.8190 C.3   288  ASN288      0.1155
     56  CG       -33.3900    8.5170    3.4240 C.2   288  ASN288      0.2627
     57  OD1      -33.2430    8.4460    4.6450 O.2   288  ASN288     -0.2716
     58  ND2      -32.3800    8.6340    2.5720 N.am  288  ASN288     -0.0877
     59  N        -39.6110   10.4780   -3.3670 N.3   313  ASN313     -0.1225
     60  CA       -38.6480    9.4480   -3.7930 C.3   313  ASN313      0.1785
     61  C        -37.4760    9.5640   -2.8110 C.2   313  ASN313      0.2598
     62  O        -36.6880   10.4430   -2.9780 O.2   313  ASN313     -0.2718
     63  CB       -38.1410    9.7270   -5.2360 C.3   313  ASN313      0.1169
     64  CG       -39.1920    9.4950   -6.3420 C.2   313  ASN313      0.2627
     65  OD1      -40.1790   10.1890   -6.4340 O.2   313  ASN313     -0.2716
     66  ND2      -38.9370    8.5160   -7.2100 N.am  313  ASN313     -0.0877
     67  N        -37.3560    8.7170   -1.7780 N.am  314  GLY314     -0.1942
     68  CA       -36.3650    8.9170   -0.7080 C.3   314  GLY314      0.2014
     69  C        -36.4410   10.3240   -0.1120 C.2   314  GLY314      0.2639
     70  O        -37.5090   10.7490    0.3480 O.2   314  GLY314     -0.2714
     71  N        -35.3450   11.0720   -0.1860 N.am  315  ASP315     -0.1957
     72  CA       -35.2960   12.4380    0.3160 C.3   315  ASP315      0.1840
     73  C        -35.7660   13.4860   -0.6870 C.2   315  ASP315      0.2622
     74  O        -35.6450   14.7100   -0.4030 O.2   315  ASP315     -0.2715
     75  CB       -33.8650   12.7570    0.7730 C.3   315  ASP315      0.1450
     76  CG       -32.8020   12.6630   -0.3890 C.2   315  ASP315      0.3671
     77  OD1      -33.1590   12.2630   -1.5270 O.co2 315  ASP315     -0.2456
     78  OD2      -31.6100   12.9590   -0.1340 O.co2 315  ASP315     -0.2456
     79  N        -36.2350   13.0620   -1.8720 N.am  316  ASP316     -0.1971
     80  CA       -36.7410   14.0110   -2.8560 C.3   316  ASP316      0.1709
     81  C        -38.2660   14.2230   -2.7190 C.2   316  ASP316      0.2293
     82  O        -38.9860   13.2800   -2.8720 O.2   316  ASP316     -0.2864
     83  CB       -36.4750   13.4930   -4.2710 C.3   316  ASP316      0.1436
     84  CG       -36.6620   14.5620   -5.2900 C.2   316  ASP316      0.3671
     85  OD1      -37.8350   14.8860   -5.6010 O.co2 316  ASP316     -0.2456
     86  OD2      -35.6430   15.0900   -5.7970 O.co2 316  ASP316     -0.2456
     87  N        -36.7090   15.1300   -8.4060 N.3   363  CYS363     -0.1221
     88  CA       -35.7750   14.0670   -8.8770 C.3   363  CYS363      0.1808
     89  C        -34.9740   14.5460  -10.0710 C.2   363  CYS363      0.2602
     90  O        -34.8520   13.8610  -11.1070 O.2   363  CYS363     -0.2717
     91  CB       -36.4950   12.7720   -9.2350 C.3   363  CYS363      0.0970
     92  SG       -37.2360   11.9490   -7.7550 S.3   363  CYS363     -0.0800
     93  N        -34.5320   15.7860   -9.9470 N.am  364  SER364     -0.1938
     94  CA       -33.6850   16.4230  -10.9750 C.3   364  SER364      0.2055
     95  C        -34.3100   16.6500  -12.3520 C.2   364  SER364      0.2643
     96  O        -33.5820   16.9610  -13.3380 O.2   364  SER364     -0.2714
     97  CB       -32.3720   15.6320  -11.1200 C.3   364  SER364      0.2130
     98  OG       -31.6880   15.7030   -9.8900 O.3   364  SER364     -0.2179
     99  N        -35.6270   16.5040  -12.4240 N.am  365  SER365     -0.1949
    100  CA       -36.3010   16.3990  -13.6960 C.3   365  SER365      0.1924
    101  C        -37.5070   17.3150  -13.7230 C.2   365  SER365      0.2314
    102  O        -37.9470   17.7660  -12.6780 O.2   365  SER365     -0.2863
    103  CB       -36.7680   14.9790  -13.9400 C.3   365  SER365      0.2116
    104  OG       -35.6780   14.0800  -13.8420 O.3   365  SER365     -0.2180
    105  N        -40.6790   13.4260  -19.6810 N.3   381  LEU381     -0.1245
    106  CA       -39.8070   13.8900  -18.6280 C.3   381  LEU381      0.1561
    107  C        -38.4010   14.1970  -19.1530 C.2   381  LEU381      0.2260
    108  O        -37.8350   13.4180  -19.8750 O.2   381  LEU381     -0.2867
    109  CB       -39.7620   12.8440  -17.5050 C.3   381  LEU381      0.0270
    110  CG       -39.2390   13.4150  -16.2080 C.3   381  LEU381      0.0019
    111  CD1      -40.4110   14.1680  -15.4630 C.3   381  LEU381      0.0001
    112  CD2      -38.6980   12.3190  -15.3740 C.3   381  LEU381      0.0001
    113  N        -34.5420   16.7270  -18.2580 N.3   383  ARG383     -0.1245
    114  CA       -33.7600   17.3880  -17.2340 C.3   383  ARG383      0.1563
    115  C        -32.6880   18.2230  -17.9100 C.2   383  ARG383      0.2260
    116  O        -32.4120   18.0510  -19.0900 O.2   383  ARG383     -0.2867
    117  CB       -33.0970   16.3620  -16.2640 C.3   383  ARG383      0.0307
    118  CG       -32.0960   15.3540  -16.9360 C.3   383  ARG383      0.0489
    119  CD       -31.2050   14.6800  -15.8870 C.3   383  ARG383      0.2205
    120  NE       -30.2110   15.6110  -15.3360 N.pl3 383  ARG383     -0.0865
    121  CZ       -29.7060   15.6020  -14.1120 C.cat 383  ARG383      0.5346
    122  NH1      -30.0310   14.6860  -13.2360 N.pl3 383  ARG383      0.1354
    123  NH2      -28.8260   16.5150  -13.7880 N.pl3 383  ARG383      0.1354
    124  N        -28.0270    4.2860  -18.5670 N.3   407  GLY407     -0.1210
    125  CA       -29.1730    4.6120  -17.6880 C.3   407  GLY407      0.1956
    126  C        -29.8600    5.8880  -18.1780 C.2   407  GLY407      0.2611
    127  O        -31.0510    5.9420  -18.2210 O.2   407  GLY407     -0.2717
    128  N        -29.0930    6.9090  -18.5760 N.am  408  ASN408     -0.1974
    129  CA       -29.7090    8.1080  -19.1590 C.3   408  ASN408      0.1688
    130  C        -30.4270    7.8590  -20.4680 C.2   408  ASN408      0.2292
    131  O        -31.5060    8.3560  -20.6110 O.2   408  ASN408     -0.2864
    132  CB       -28.7260    9.2470  -19.2640 C.3   408  ASN408      0.1181
    133  CG       -28.4140    9.7840  -17.9420 C.2   408  ASN408      0.2629
    134  OD1      -29.3120    9.8490  -17.0670 O.2   408  ASN408     -0.2716
    135  ND2      -27.1610   10.1360  -17.7240 N.am  408  ASN408     -0.0877
    136  N        -33.9070    6.1460  -19.4210 N.3   411  MET411     -0.1230
    137  CA       -34.8300    6.9160  -18.6130 C.3   411  MET411      0.1702
    138  C        -35.2580    8.1850  -19.3510 C.2   411  MET411      0.2592
    139  O        -36.3530    8.6840  -19.0990 O.2   411  MET411     -0.2718
    140  CB       -34.2120    7.2410  -17.2690 C.3   411  MET411      0.0401
    141  CG       -33.9960    6.0210  -16.3380 C.3   411  MET411      0.0596
    142  SD       -35.5550    5.2130  -15.8730 S.3   411  MET411     -0.1393
    143  CE       -35.7580    6.0480  -14.3280 C.3   411  MET411      0.0692
    144  N        -34.3500    8.7360  -20.1900 N.am  412  TYR412     -0.1976
    145  CA       -34.6160    9.9850  -20.8980 C.3   412  TYR412      0.1639
    146  C        -34.6760    9.7870  -22.4230 C.2   412  TYR412      0.2290
    147  O        -34.4300   10.6980  -23.1870 O.2   412  TYR412     -0.2864
    148  CB       -33.6290   11.0650  -20.5230 C.3   412  TYR412      0.0560
    149  CG       -33.6690   11.4960  -19.0850 C.ar  412  TYR412     -0.0198
    150  CD1      -34.7400   12.3130  -18.6000 C.ar  412  TYR412     -0.0009
    151  CD2      -32.7120   11.0200  -18.1700 C.ar  412  TYR412     -0.0009
    152  CE1      -34.7750   12.7170  -17.2320 C.ar  412  TYR412      0.0417
    153  CE2      -32.7340   11.3740  -16.7920 C.ar  412  TYR412      0.0417
    154  CZ       -33.7960   12.2300  -16.3550 C.ar  412  TYR412      0.1957
    155  OH       -33.8380   12.6380  -15.0860 O.3   412  TYR412     -0.2866
    156  N        -27.5120    1.7340  -13.4790 N.3   443  GLN443     -0.1231
    157  CA       -28.3880    1.8670  -12.3170 C.3   443  GLN443      0.1698
    158  C        -29.6390    2.6150  -12.5580 C.2   443  GLN443      0.2592
    159  O        -29.6030    3.7710  -13.0030 O.2   443  GLN443     -0.2718
    160  CB       -27.6570    2.4710  -11.1320 C.3   443  GLN443      0.0381
    161  CG       -26.4250    1.7350  -10.7450 C.3   443  GLN443      0.0905
    162  CD       -26.0250    2.0810   -9.3250 C.2   443  GLN443      0.2608
    163  OE1      -26.1720    3.2110   -8.8850 O.2   443  GLN443     -0.2717
    164  NE2      -25.5700    1.0860   -8.5890 N.am  443  GLN443     -0.0878
    165  N        -30.7350    1.9980  -12.1170 N.am  444  ILE444     -0.1966
    166  CA       -32.0580    2.5560  -12.2090 C.3   444  ILE444      0.1727
    167  C        -32.6850    2.3940  -10.8470 C.2   444  ILE444      0.2616
    168  O        -32.8330    1.2900  -10.3470 O.2   444  ILE444     -0.2715
    169  CB       -32.8320    1.8920  -13.3500 C.3   444  ILE444      0.0290
    170  CG1      -32.3040    2.4410  -14.7080 C.3   444  ILE444      0.0022
    171  CG2      -34.3520    2.0570  -13.2240 C.3   444  ILE444      0.0023
    172  CD1      -32.5970    1.5750  -15.8830 C.3   444  ILE444      0.0001
    173  N        -33.0560    3.5130  -10.2840 N.am  445  TYR445     -0.1960
    174  CA       -33.6100    3.6250   -8.9310 C.3   445  TYR445      0.1771
    175  C        -32.7590    2.8830   -7.9350 C.2   445  TYR445      0.2620
    176  O        -33.2920    2.1640   -7.0690 O.2   445  TYR445     -0.2715
    177  CB       -35.0600    3.1730   -8.8650 C.3   445  TYR445      0.0574
    178  CG       -36.0690    4.0160   -9.6050 C.ar  445  TYR445     -0.0198
    179  CD1      -35.8160    5.3780   -9.9070 C.ar  445  TYR445     -0.0009
    180  CD2      -37.3300    3.5200   -9.8700 C.ar  445  TYR445     -0.0009
    181  CE1      -36.7450    6.1420  -10.5350 C.ar  445  TYR445      0.0417
    182  CE2      -38.3190    4.3190  -10.4930 C.ar  445  TYR445      0.0417
    183  CZ       -38.0110    5.6310  -10.8230 C.ar  445  TYR445      0.1957
    184  OH       -38.9570    6.4170  -11.4690 O.3   445  TYR445     -0.2866
    185  N        -31.4330    3.0380   -8.0960 N.am  446  GLY446     -0.1954
    186  CA       -30.4130    2.5180   -7.1770 C.3   446  GLY446      0.1869
    187  C        -30.1080    1.0120   -7.3490 C.2   446  GLY446      0.2309
    188  O        -29.2050    0.5070   -6.7790 O.2   446  GLY446     -0.2863
    189  N        -33.7970    1.3700   -4.2870 N.3   551  TYR551     -0.1227
    190  CA       -32.8360    0.6170   -3.5300 C.3   551  TYR551      0.1736
    191  C        -31.5030    1.3370   -3.4430 C.2   551  TYR551      0.2596
    192  O        -30.4620    0.6820   -3.3320 O.2   551  TYR551     -0.2718
    193  CB       -32.6060   -0.7340   -4.2220 C.3   551  TYR551      0.0548
    194  CG       -33.8120   -1.5810   -4.3840 C.ar  551  TYR551     -0.0200
    195  CD1      -34.2960   -2.4180   -3.3190 C.ar  551  TYR551     -0.0009
    196  CD2      -34.5360   -1.5740   -5.5980 C.ar  551  TYR551     -0.0009
    197  CE1      -35.4010   -3.1700   -3.4580 C.ar  551  TYR551      0.0417
    198  CE2      -35.6920   -2.3750   -5.7380 C.ar  551  TYR551      0.0417
    199  CZ       -36.1200   -3.1510   -4.6390 C.ar  551  TYR551      0.1957
    200  OH       -37.2190   -3.9420   -4.7550 O.3   551  TYR551     -0.2866
    201  N        -31.5060    2.6790   -3.4580 N.am  552  SER552     -0.1952
    202  CA       -30.2600    3.4020   -3.3560 C.3   552  SER552      0.1924
    203  C        -29.3890    2.9970   -2.1610 C.2   552  SER552      0.2314
    204  O        -29.8320    3.0380   -0.9990 O.2   552  SER552     -0.2863
    205  CB       -30.4950    4.9150   -3.3230 C.3   552  SER552      0.2116
    206  OG       -29.2480    5.5390   -3.2230 O.3   552  SER552     -0.2180
@<TRIPOS>BOND
     1   147   146    2
     2   146   145    1
     3   145   148    1
     4   145   144    1
     5   131   130    2
     6   148   149    1
     7   130   129    1
     8   144   138   am
     9   108   107    2
    10   105   106    1
    11   136   137    1
    12   138   139    2
    13   138   137    1
    14   132   129    1
    15   132   133    1
    16   129   128    1
    17   107   106    1
    18   116   115    2
    19   149   150   ar
    20   149   151   ar
    21   106   109    1
    22   137   140    1
    23   150   152   ar
    24   128   126   am
    25   124   125    1
    26   113   114    1
    27   127   126    2
    28   126   125    1
    29   151   153   ar
    30   133   135   am
    31   133   134    2
    32   115   114    1
    33   109   110    1
    34   140   141    1
    35    16    17    1
    36    16    13    1
    37   114   117    1
    38   152   154   ar
    39    17    18    1
    40   118   117    1
    41   118   119    1
    42    14    15    2
    43    14    13    1
    44   153   154   ar
    45    18    12    1
    46   154   155    1
    47   141   142    1
    48    13    12    1
    49   110   111    1
    50   110   112    1
    51   119   120    1
    52   172   170    1
    53   142   143    1
    54   120   121    2
    55   170   169    1
    56    19    20    1
    57   121   123    1
    58   121   122    1
    59   103   104    1
    60   103   100    1
    61    21    20    1
    62    21    22    2
    63   101   100    1
    64   101   102    2
    65   100    99    1
    66   156   157    1
    67   169   171    1
    68   169   166    1
    69    96    95    2
    70    20    23    1
    71   159   158    2
    72    23    24    1
    73   158   157    1
    74   158   165   am
    75    99    95   am
    76    95    94    1
    77   157   160    1
    78   166   165    1
    79   166   167    1
    80    24    25    1
    81    25    26    1
    82   184   183    1
    83   160   161    1
    84    97    94    1
    85    97    98    1
    86    90    89    2
    87    94    93    1
    88    26    27    2
    89   167   168    2
    90   167   173   am
    91   183   181   ar
    92   183   182   ar
    93   161   162    1
    94   181   179   ar
    95   182   180   ar
    96   173   174    1
    97    89    93   am
    98    89    88    1
    99   179   178   ar
   100   180   178   ar
   101    27    28    1
   102    27    29    1
   103   178   177    1
   104   162   163    2
   105   162   164   am
   106    91    88    1
   107    91    92    1
   108   174   177    1
   109   174   175    1
   110    88    87    1
   111     4     3    2
   112   185   175   am
   113   185   186    1
   114   175   176    2
   115     3     2    1
   116   187   186    1
   117   187   188    2
   118    66    64   am
   119     2     1    1
   120     2     5    1
   121     7     9   ar
   122     7     6   ar
   123    65    64    2
   124    64    63    1
   125     9    11   ar
   126     5     6    1
   127    86    84   ar
   128   198   196   ar
   129   198   199   ar
   130     6     8   ar
   131    85    84   ar
   132   196   194   ar
   133    84    83    1
   134    63    60    1
   135    11    10   ar
   136   200   199    1
   137   199   197   ar
   138   194   193    1
   139   194   195   ar
   140     8    10   ar
   141   189   190    1
   142    83    80    1
   143   193   190    1
   144    60    59    1
   145    60    61    1
   146   190   191    1
   147   197   195   ar
   148   201   191   am
   149   201   202    1
   150   191   192    2
   151   202   205    1
   152   202   203    1
   153   205   206    1
   154    62    61    2
   155    82    81    2
   156    80    81    1
   157    80    79    1
   158    61    67   am
   159   203   204    2
   160    50    49    1
   161    79    73   am
   162    67    68    1
   163    77    76   ar
   164    49    46    1
   165    68    69    1
   166    73    74    2
   167    73    72    1
   168    76    78   ar
   169    76    75    1
   170    71    69   am
   171    71    72    1
   172    69    70    2
   173    46    47    1
   174    46    45    1
   175    72    75    1
   176    47    48    2
   177    45    40   am
   178    44    42    1
   179    40    41    2
   180    40    39    1
   181    42    39    1
   182    42    43    1
   183    58    56   am
   184    55    56    1
   185    55    52    1
   186    39    38    1
   187    53    54    2
   188    53    52    1
   189    37    35   ar
   190    56    57    2
   191    36    35   ar
   192    52    51    1
   193    35    34    1
   194    30    31    1
   195    34    31    1
   196    31    32    1
   197    32    33    2
