@<TRIPOS>MOLECULE
tmp/3h99A00.pdb
 106 103 0 0 0
SMALL
GASTEIGER

@<TRIPOS>ATOM
      1  N          8.7270    0.5450   24.4590 N.3     9  ALA9       -0.1231
      2  CA         9.5370    0.6560   23.2580 C.3     9  ALA9        0.1694
      3  C         10.2300   -0.6870   23.0490 C.2     9  ALA9        0.2593
      4  O         10.5160   -1.4080   24.0080 O.2     9  ALA9       -0.2718
      5  CB        10.5690    1.7610   23.4210 C.3     9  ALA9        0.0304
      6  N         10.4880   -1.0290   21.7940 N.am   10  SER10      -0.1939
      7  CA        11.1540   -2.2850   21.4720 C.3    10  SER10       0.2040
      8  C         12.6610   -2.1230   21.6320 C.2    10  SER10       0.2485
      9  O         13.2800   -1.3050   20.9530 O.2    10  SER10      -0.2729
     10  CB        10.8190   -2.7000   20.0400 C.3    10  SER10       0.2129
     11  OG         9.4270   -2.9160   19.8980 O.3    10  SER10      -0.2179
     12  N         13.2760   -2.9000   22.5360 N.am   11  PRO11      -0.2715
     13  CA        14.7240   -2.7930   22.7430 C.3    11  PRO11       0.1536
     14  C         15.5250   -3.2220   21.5190 C.2    11  PRO11       0.2598
     15  O         15.1630   -4.1790   20.8370 O.2    11  PRO11      -0.2715
     16  CB        14.9790   -3.7210   23.9330 C.3    11  PRO11       0.0310
     17  CG        13.6480   -3.7620   24.6440 C.3    11  PRO11       0.0237
     18  CD        12.6750   -3.8380   23.5000 C.3    11  PRO11       0.0939
     19  N         16.6110   -2.5140   21.2360 N.am   12  TYR12      -0.1974
     20  CA        17.4490   -2.8820   20.1050 C.3    12  TYR12       0.1639
     21  C         18.1010   -4.2360   20.3770 C.2    12  TYR12       0.2290
     22  O         18.5400   -4.5150   21.4930 O.2    12  TYR12      -0.2864
     23  CB        18.5040   -1.8010   19.8510 C.3    12  TYR12       0.0560
     24  CG        18.0250   -0.7350   18.8870 C.ar   12  TYR12      -0.0198
     25  CD1       18.2700    0.6160   19.1240 C.ar   12  TYR12      -0.0009
     26  CD2       17.3200   -1.0830   17.7360 C.ar   12  TYR12      -0.0009
     27  CE1       17.8170    1.5950   18.2340 C.ar   12  TYR12       0.0417
     28  CE2       16.8660   -0.1150   16.8430 C.ar   12  TYR12       0.0417
     29  CZ        17.1160    1.2190   17.0970 C.ar   12  TYR12       0.1957
     30  OH        16.6570    2.1710   16.2120 O.3    12  TYR12      -0.2866
     31  N         16.4570    0.7530   30.5090 N.3    21  HIS21      -0.1241
     32  CA        15.3550    0.0030   29.9180 C.3    21  HIS21       0.1621
     33  C         14.3890   -0.3970   31.0220 C.2    21  HIS21       0.2264
     34  O         13.1740   -0.2760   30.8810 O.2    21  HIS21      -0.2867
     35  CB        15.8310   -1.3030   29.2690 C.3    21  HIS21       0.0745
     36  CG        16.6550   -1.1250   28.0340 C.ar   21  HIS21       0.0817
     37  ND1       18.0240   -1.2870   28.0240 N.ar   21  HIS21      -0.2268
     38  CD2       16.2980   -0.8570   26.7560 C.ar   21  HIS21       0.1154
     39  CE1       18.4740   -1.1290   26.7920 C.ar   21  HIS21       0.1986
     40  NE2       17.4470   -0.8680   26.0040 N.ar   21  HIS21      -0.2212
     41  N         13.6830   -5.0260   18.5930 N.3    49  ASP49      -0.1239
     42  CA        13.8700   -4.2320   17.3740 C.3    49  ASP49       0.1674
     43  C         15.1370   -4.8390   16.7740 C.2    49  ASP49       0.2266
     44  O         16.2510   -4.4980   17.1770 O.2    49  ASP49      -0.2867
     45  CB        14.0750   -2.7650   17.7610 C.3    49  ASP49       0.1410
     46  CG        13.9410   -1.8210   16.5860 C.2    49  ASP49       0.3668
     47  OD1       13.9260   -0.5940   16.8160 O.co2  49  ASP49      -0.2456
     48  OD2       13.8560   -2.2940   15.4350 O.co2  49  ASP49      -0.2456
     49  N         13.4250    2.0710   11.3670 N.3   250  TRP250     -0.1241
     50  CA        12.4320    2.8330   12.1190 C.3   250  TRP250      0.1605
     51  C         11.0240    2.8110   11.5270 C.2   250  TRP250      0.2264
     52  O         10.0600    3.1180   12.2250 O.2   250  TRP250     -0.2867
     53  CB        12.8970    4.2790   12.3220 C.3   250  TRP250      0.0550
     54  CG        13.4600    4.5280   13.6960 C.ar  250  TRP250      0.0003
     55  CD1       14.7450    4.8690   14.0120 C.ar  250  TRP250      0.0946
     56  CD2       12.7450    4.4670   14.9370 C.ar  250  TRP250      0.0152
     57  NE1       14.8730    5.0260   15.3740 N.ar  250  TRP250     -0.2442
     58  CE2       13.6610    4.7860   15.9640 C.ar  250  TRP250      0.0810
     59  CE3       11.4180    4.1760   15.2790 C.ar  250  TRP250      0.0012
     60  CZ2       13.2890    4.8230   17.3130 C.ar  250  TRP250      0.0191
     61  CZ3       11.0490    4.2140   16.6210 C.ar  250  TRP250      0.0001
     62  CH2       11.9850    4.5360   17.6190 C.ar  250  TRP250      0.0015
     63  N          9.8370   -0.7530   12.8070 N.3   253  ALA253     -0.1231
     64  CA         9.9100   -0.9220   14.2570 C.3   253  ALA253      0.1679
     65  C          8.5730   -0.7810   14.9900 C.2   253  ALA253      0.2434
     66  O          8.1630   -1.6980   15.6990 O.2   253  ALA253     -0.2733
     67  CB        10.9480    0.0340   14.8500 C.3   253  ALA253      0.0304
     68  N          7.8790    0.3650   14.8490 N.am  254  PRO254     -0.2729
     69  CA         6.6010    0.4520   15.5670 C.3   254  PRO254      0.1401
     70  C          5.5550   -0.5080   15.0020 C.2   254  PRO254      0.2269
     71  O          4.6790   -0.9800   15.7270 O.2   254  PRO254     -0.2865
     72  CB         6.2110    1.9220   15.4140 C.3   254  PRO254      0.0296
     73  CG         6.8310    2.3100   14.1190 C.3   254  PRO254      0.0237
     74  CD         8.1880    1.6340   14.1660 C.3   254  PRO254      0.0939
     75  N          5.0600   -3.7070   16.7370 N.3   257  LEU257     -0.1245
     76  CA         4.2070   -3.8070   17.9200 C.3   257  LEU257      0.1561
     77  C          2.8720   -4.3860   17.4660 C.2   257  LEU257      0.2260
     78  O          2.2630   -5.2060   18.1540 O.2   257  LEU257     -0.2867
     79  CB         4.0130   -2.4280   18.5530 C.3   257  LEU257      0.0270
     80  CG         5.3080   -1.8110   19.0840 C.3   257  LEU257      0.0019
     81  CD1        5.0410   -0.4110   19.6140 C.3   257  LEU257      0.0001
     82  CD2        5.8820   -2.6990   20.1770 C.3   257  LEU257      0.0001
     83  N          7.0450    5.1020   26.5590 N.3   290  ILE290     -0.1245
     84  CA         8.2930    5.3590   25.8460 C.3   290  ILE290      0.1561
     85  C          9.1840    6.4000   26.5180 C.2   290  ILE290      0.2260
     86  O          8.7460    7.1160   27.4200 O.2   290  ILE290     -0.2867
     87  CB         7.9890    5.8500   24.4070 C.3   290  ILE290      0.0252
     88  CG1        7.2310    7.1820   24.4640 C.3   290  ILE290      0.0019
     89  CG2        7.1520    4.8140   23.6640 C.3   290  ILE290      0.0019
     90  CD1        6.9330    7.7960   23.1020 C.3   290  ILE290      0.0001
     91  N         12.6470    9.0260   21.8330 N.3   294  ILE294     -0.1245
     92  CA        11.9590    8.5100   20.6540 C.3   294  ILE294      0.1561
     93  C         10.5690    9.1040   20.4560 C.2   294  ILE294      0.2260
     94  O          9.7810    8.6060   19.6550 O.2   294  ILE294     -0.2867
     95  CB        11.8470    6.9600   20.6850 C.3   294  ILE294      0.0252
     96  CG1       11.0030    6.5000   21.8760 C.3   294  ILE294      0.0019
     97  CG2       13.2400    6.3450   20.7400 C.3   294  ILE294      0.0019
     98  CD1       10.7230    5.0050   21.8670 C.3   294  ILE294      0.0001
     99  N          7.2910    8.2230   17.7220 N.3   298  LEU298     -0.1245
    100  CA         6.0040    7.7200   18.1870 C.3   298  LEU298      0.1561
    101  C          4.8550    8.7240   18.2300 C.2   298  LEU298      0.2260
    102  O          3.6910    8.3210   18.2360 O.2   298  LEU298     -0.2867
    103  CB         6.1690    7.0640   19.5680 C.3   298  LEU298      0.0270
    104  CG         6.7180    5.6260   19.6460 C.3   298  LEU298      0.0019
    105  CD1        5.6750    4.6530   19.1180 C.3   298  LEU298      0.0001
    106  CD2        8.0180    5.4970   18.8610 C.3   298  LEU298      0.0001
@<TRIPOS>BOND
     1    49    50    1
     2    51    50    1
     3    51    52    2
     4    50    53    1
     5    53    54    1
     6    63    64    1
     7    54    55   ar
     8    54    56   ar
     9    55    57   ar
    10    73    74    1
    11    73    72    1
    12    74    68    1
    13    64    67    1
    14    64    65    1
    15    68    65   am
    16    68    69    1
    17    56    59   ar
    18    56    58   ar
    19    65    66    2
    20    70    69    1
    21    70    71    2
    22    59    61   ar
    23    57    58   ar
    24    72    69    1
    25    48    46   ar
    26    58    60   ar
    27    30    29    1
    28    46    47   ar
    29    46    45    1
    30    61    62   ar
    31    75    76    1
    32    43    44    2
    33    43    42    1
    34    28    29   ar
    35    28    26   ar
    36    29    27   ar
    37    60    62   ar
    38    42    45    1
    39    42    41    1
    40    77    76    1
    41    77    78    2
    42    99   100    1
    43    26    24   ar
    44    76    79    1
    45   100   101    1
    46   100   103    1
    47   101   102    2
    48    27    25   ar
    49    79    80    1
    50   106   104    1
    51    24    25   ar
    52    24    23    1
    53    80    81    1
    54    80    82    1
    55   105   104    1
    56   103   104    1
    57    94    93    2
    58    23    20    1
    59    11    10    1
    60    10     7    1
    61    20    21    1
    62    20    19    1
    63    21    22    2
    64    93    92    1
    65    92    95    1
    66    92    91    1
    67    95    97    1
    68    95    96    1
    69    15    14    2
    70     9     8    2
    71    19    14   am
    72     7     8    1
    73     7     6    1
    74    14    13    1
    75     8    12   am
    76     6     3   am
    77    98    96    1
    78    12    13    1
    79    12    18    1
    80    13    16    1
    81     3     2    1
    82     3     4    2
    83    90    88    1
    84     2     5    1
    85     2     1    1
    86    18    17    1
    87    89    87    1
    88    16    17    1
    89    87    88    1
    90    87    84    1
    91    84    85    1
    92    84    83    1
    93    40    38   ar
    94    40    39   ar
    95    85    86    2
    96    38    36   ar
    97    39    37   ar
    98    37    36   ar
    99    36    35    1
   100    35    32    1
   101    32    31    1
   102    32    33    1
   103    34    33    2
