@<TRIPOS>MOLECULE
tmp/3h9bA00.pdb
 129 126 0 0 0
SMALL
GASTEIGER

@<TRIPOS>ATOM
      1  N          2.0400   -1.1140   25.3620 N.3     7  THR7       -0.1203
      2  CA         3.3330   -1.5230   24.8280 C.3     7  THR7        0.1994
      3  C          4.4800   -0.7630   25.4700 C.2     7  THR7        0.2618
      4  O          4.2870    0.2570   26.1330 O.2     7  THR7       -0.2717
      5  CB         3.4460   -1.2530   23.3150 C.3     7  THR7        0.1784
      6  OG1        3.5760    0.1580   23.0970 O.3     7  THR7       -0.2211
      7  CG2        2.2140   -1.7500   22.5860 C.3     7  THR7        0.0376
      8  N          5.6770   -1.2980   25.2630 N.am    8  CYS8       -0.1955
      9  CA         6.9110   -0.6730   25.7120 C.3     8  CYS8        0.1843
     10  C          7.7470   -0.5780   24.4500 C.2     8  CYS8        0.2625
     11  O          7.5010   -1.3040   23.4840 O.2     8  CYS8       -0.2714
     12  CB         7.6480   -1.5360   26.7330 C.3     8  CYS8        0.0997
     13  SG         7.0300   -1.4050   28.4070 S.3     8  CYS8       -0.0797
     14  N          8.7260    0.3140   24.4460 N.am    9  ALA9       -0.1963
     15  CA         9.5860    0.4640   23.2850 C.3     9  ALA9        0.1728
     16  C         10.4420   -0.7880   23.1420 C.2     9  ALA9        0.2617
     17  O         11.0170   -1.2740   24.1150 O.2     9  ALA9       -0.2715
     18  CB        10.4690    1.6910   23.4390 C.3     9  ALA9        0.0334
     19  N         10.5120   -1.3100   21.9250 N.am   10  SER10      -0.1936
     20  CA        11.2930   -2.5060   21.6470 C.3    10  SER10       0.2040
     21  C         12.7890   -2.2460   21.7770 C.2    10  SER10       0.2485
     22  O         13.3310   -1.3500   21.1380 O.2    10  SER10      -0.2729
     23  CB        10.9860   -3.0060   20.2360 C.3    10  SER10       0.2129
     24  OG         9.6250   -3.3730   20.1160 O.3    10  SER10      -0.2179
     25  N         13.4790   -3.0290   22.6170 N.am   11  PRO11      -0.2715
     26  CA        14.9230   -2.8200   22.7720 C.3    11  PRO11       0.1536
     27  C         15.6720   -3.2980   21.5260 C.2    11  PRO11       0.2598
     28  O         15.2610   -4.2640   20.8880 O.2    11  PRO11      -0.2715
     29  CB        15.2690   -3.6700   23.9960 C.3    11  PRO11       0.0310
     30  CG        13.9610   -3.7810   24.7410 C.3    11  PRO11       0.0237
     31  CD        12.9690   -3.9650   23.6310 C.3    11  PRO11       0.0939
     32  N         16.7600   -2.6220   21.1730 N.am   12  TYR12      -0.1974
     33  CA        17.5420   -3.0380   20.0140 C.3    12  TYR12       0.1639
     34  C         18.2360   -4.3650   20.3100 C.2    12  TYR12       0.2290
     35  O         18.7030   -4.5970   21.4250 O.2    12  TYR12      -0.2864
     36  CB        18.5720   -1.9660   19.6510 C.3    12  TYR12       0.0560
     37  CG        18.0230   -0.8910   18.7400 C.ar   12  TYR12      -0.0198
     38  CD1       18.1880    0.4580   19.0420 C.ar   12  TYR12      -0.0009
     39  CD2       17.3500   -1.2260   17.5670 C.ar   12  TYR12      -0.0009
     40  CE1       17.6940    1.4500   18.1940 C.ar   12  TYR12       0.0417
     41  CE2       16.8530   -0.2430   16.7130 C.ar   12  TYR12       0.0417
     42  CZ        17.0290    1.0900   17.0330 C.ar   12  TYR12       0.1957
     43  OH        16.5410    2.0610   16.1870 O.3    12  TYR12      -0.2866
     44  N         16.4030    0.6880   30.3570 N.3    21  HIS21      -0.1241
     45  CA        15.3080   -0.0950   29.7960 C.3    21  HIS21       0.1621
     46  C         14.3670   -0.4910   30.9230 C.2    21  HIS21       0.2264
     47  O         13.1500   -0.4060   30.7880 O.2    21  HIS21      -0.2867
     48  CB        15.8030   -1.3980   29.1560 C.3    21  HIS21       0.0745
     49  CG        16.6490   -1.2140   27.9350 C.ar   21  HIS21       0.0817
     50  ND1       18.0230   -1.3130   27.9620 N.ar   21  HIS21      -0.2268
     51  CD2       16.3110   -0.9900   26.6430 C.ar   21  HIS21       0.1154
     52  CE1       18.4950   -1.1610   26.7360 C.ar   21  HIS21       0.1986
     53  NE2       17.4790   -0.9640   25.9180 N.ar   21  HIS21      -0.2212
     54  N         13.6710   -5.1590   18.6870 N.3    49  ASP49      -0.1239
     55  CA        13.8570   -4.3730   17.4630 C.3    49  ASP49       0.1674
     56  C         15.1160   -4.9710   16.8410 C.2    49  ASP49       0.2266
     57  O         16.2380   -4.6490   17.2440 O.2    49  ASP49      -0.2867
     58  CB        14.0530   -2.9010   17.8300 C.3    49  ASP49       0.1410
     59  CG        13.8920   -1.9770   16.6460 C.2    49  ASP49       0.3668
     60  OD1       13.8360   -0.7500   16.8610 O.co2  49  ASP49      -0.2456
     61  OD2       13.8240   -2.4720   15.5060 O.co2  49  ASP49      -0.2456
     62  N         13.3710    2.0280   11.4440 N.3   250  TRP250     -0.1241
     63  CA        12.3840    2.7950   12.1960 C.3   250  TRP250      0.1605
     64  C         10.9760    2.7800   11.6110 C.2   250  TRP250      0.2264
     65  O         10.0080    3.0790   12.3110 O.2   250  TRP250     -0.2867
     66  CB        12.8650    4.2350   12.3960 C.3   250  TRP250      0.0550
     67  CG        13.4220    4.4630   13.7700 C.ar  250  TRP250      0.0003
     68  CD1       14.7160    4.7560   14.0970 C.ar  250  TRP250      0.0946
     69  CD2       12.6960    4.4160   15.0030 C.ar  250  TRP250      0.0152
     70  NE1       14.8380    4.8970   15.4610 N.ar  250  TRP250     -0.2442
     71  CE2       13.6140    4.6940   16.0400 C.ar  250  TRP250      0.0810
     72  CE3       11.3560    4.1690   15.3330 C.ar  250  TRP250      0.0012
     73  CZ2       13.2340    4.7310   17.3870 C.ar  250  TRP250      0.0191
     74  CZ3       10.9770    4.2060   16.6710 C.ar  250  TRP250      0.0001
     75  CH2       11.9160    4.4870   17.6810 C.ar  250  TRP250      0.0015
     76  N          9.7770   -0.7850   12.9050 N.3   253  ALA253     -0.1231
     77  CA         9.8540   -0.9680   14.3530 C.3   253  ALA253      0.1679
     78  C          8.5230   -0.8260   15.0970 C.2   253  ALA253      0.2434
     79  O          8.1260   -1.7370   15.8190 O.2   253  ALA253     -0.2733
     80  CB        10.9060   -0.0250   14.9450 C.3   253  ALA253      0.0304
     81  N          7.8190    0.3150   14.9520 N.am  254  PRO254     -0.2729
     82  CA         6.5500    0.3960   15.6830 C.3   254  PRO254      0.1401
     83  C          5.5040   -0.5580   15.1100 C.2   254  PRO254      0.2269
     84  O          4.6290   -1.0350   15.8330 O.2   254  PRO254     -0.2865
     85  CB         6.1560    1.8670   15.5490 C.3   254  PRO254      0.0296
     86  CG         6.7690    2.2670   14.2500 C.3   254  PRO254      0.0237
     87  CD         8.1260    1.5930   14.2860 C.3   254  PRO254      0.0939
     88  N          4.9910   -3.7790   16.8110 N.3   257  LEU257     -0.1245
     89  CA         4.1160   -3.9200   17.9710 C.3   257  LEU257      0.1561
     90  C          2.7850   -4.4790   17.4830 C.2   257  LEU257      0.2260
     91  O          2.1590   -5.3030   18.1520 O.2   257  LEU257     -0.2867
     92  CB         3.9170   -2.5670   18.6570 C.3   257  LEU257      0.0270
     93  CG         5.1990   -2.0040   19.2740 C.3   257  LEU257      0.0019
     94  CD1        4.9630   -0.5770   19.7500 C.3   257  LEU257      0.0001
     95  CD2        5.6530   -2.9020   20.4210 C.3   257  LEU257      0.0001
     96  N          1.2230    3.6220   24.6000 N.3   288  HIS288     -0.1241
     97  CA         2.6340    3.3420   24.3940 C.3   288  HIS288      0.1621
     98  C          3.4760    3.9920   25.4860 C.2   288  HIS288      0.2264
     99  O          3.4150    5.2100   25.6760 O.2   288  HIS288     -0.2867
    100  CB         3.1180    3.8970   23.0450 C.3   288  HIS288      0.0745
    101  CG         2.3820    3.3670   21.8550 C.ar  288  HIS288      0.0817
    102  ND1        2.3560    2.0280   21.5270 N.ar  288  HIS288     -0.2268
    103  CD2        1.6880    4.0050   20.8820 C.ar  288  HIS288      0.1154
    104  CE1        1.6810    1.8650   20.4030 C.ar  288  HIS288      0.1986
    105  NE2        1.2650    3.0490   19.9900 N.ar  288  HIS288     -0.2212
    106  N          7.0080    5.0980   26.4690 N.3   290  ILE290     -0.1245
    107  CA         8.2500    5.3730   25.7470 C.3   290  ILE290      0.1561
    108  C          9.1370    6.4000   26.4450 C.2   290  ILE290      0.2260
    109  O          8.6950    7.1040   27.3550 O.2   290  ILE290     -0.2867
    110  CB         7.9460    5.9050   24.3230 C.3   290  ILE290      0.0252
    111  CG1        7.1730    7.2240   24.4210 C.3   290  ILE290      0.0019
    112  CG2        7.1270    4.8860   23.5390 C.3   290  ILE290      0.0019
    113  CD1        6.8640    7.8610   23.0740 C.3   290  ILE290      0.0001
    114  N         12.6120    9.0110   21.8400 N.3   294  ILE294     -0.1245
    115  CA        11.9140    8.5120   20.6600 C.3   294  ILE294      0.1561
    116  C         10.5300    9.1180   20.4590 C.2   294  ILE294      0.2260
    117  O          9.7440    8.6270   19.6490 O.2   294  ILE294     -0.2867
    118  CB        11.7840    6.9670   20.6820 C.3   294  ILE294      0.0252
    119  CG1       10.9320    6.5150   21.8700 C.3   294  ILE294      0.0019
    120  CG2       13.1690    6.3320   20.7450 C.3   294  ILE294      0.0019
    121  CD1       10.6110    5.0300   21.8360 C.3   294  ILE294      0.0001
    122  N          7.2160    8.2850   17.6740 N.3   298  LEU298     -0.1245
    123  CA         5.9090    7.8240   18.1210 C.3   298  LEU298      0.1561
    124  C          4.7890    8.8570   18.1770 C.2   298  LEU298      0.2260
    125  O          3.6180    8.4820   18.1800 O.2   298  LEU298     -0.2867
    126  CB         6.0370    7.1440   19.4900 C.3   298  LEU298      0.0270
    127  CG         6.5120    5.6840   19.5370 C.3   298  LEU298      0.0019
    128  CD1        5.4470    4.7780   18.9360 C.3   298  LEU298      0.0001
    129  CD2        7.8320    5.5300   18.7990 C.3   298  LEU298      0.0001
@<TRIPOS>BOND
     1    62    63    1
     2    64    63    1
     3    64    65    2
     4    63    66    1
     5    66    67    1
     6    76    77    1
     7    67    68   ar
     8    67    69   ar
     9    68    70   ar
    10    86    87    1
    11    86    85    1
    12    87    81    1
    13    77    80    1
    14    77    78    1
    15    81    78   am
    16    81    82    1
    17    69    72   ar
    18    69    71   ar
    19    78    79    2
    20    83    82    1
    21    83    84    2
    22    72    74   ar
    23    70    71   ar
    24    61    59   ar
    25    85    82    1
    26    71    73   ar
    27    43    42    1
    28    59    60   ar
    29    59    58    1
    30    74    75   ar
    31    41    42   ar
    32    41    39   ar
    33    88    89    1
    34    56    57    2
    35    56    55    1
    36    42    40   ar
    37    73    75   ar
    38    55    58    1
    39    55    54    1
    40    90    89    1
    41    90    91    2
    42    39    37   ar
    43   122   123    1
    44    89    92    1
    45   123   124    1
    46   123   126    1
    47   124   125    2
    48    40    38   ar
    49    92    93    1
    50    37    38   ar
    51    37    36    1
    52   129   127    1
    53   128   127    1
    54    93    94    1
    55    93    95    1
    56   126   127    1
    57   117   116    2
    58    36    33    1
    59   105   104   ar
    60   105   103   ar
    61    33    34    1
    62    33    32    1
    63    24    23    1
    64    23    20    1
    65    34    35    2
    66   104   102   ar
    67   116   115    1
    68   115   118    1
    69   115   114    1
    70   118   120    1
    71   118   119    1
    72   103   101   ar
    73    28    27    2
    74    22    21    2
    75    32    27   am
    76    27    26    1
    77   102   101   ar
    78    20    21    1
    79    20    19    1
    80    21    25   am
    81   121   119    1
    82   101   100    1
    83    19    16   am
    84     7     5    1
    85    25    26    1
    86    25    31    1
    87    26    29    1
    88   100    97    1
    89   113   111    1
    90     6     5    1
    91    16    15    1
    92    16    17    2
    93    15    18    1
    94    15    14    1
    95     5     2    1
    96    11    10    2
    97   112   110    1
    98    31    30    1
    99    29    30    1
   100   110   111    1
   101   110   107    1
   102    97    96    1
   103    97    98    1
   104    14    10   am
   105    10     9    1
   106     2     1    1
   107     2     3    1
   108     8     3   am
   109     8     9    1
   110     3     4    2
   111    98    99    2
   112     9    12    1
   113   107   108    1
   114   107   106    1
   115    53    51   ar
   116    53    52   ar
   117   108   109    2
   118    51    49   ar
   119    12    13    1
   120    52    50   ar
   121    49    50   ar
   122    49    48    1
   123    48    45    1
   124    45    44    1
   125    45    46    1
   126    47    46    2
