@<TRIPOS>MOLECULE
tmp/3h9fA00.pdb
 186 173 0 0 0
SMALL
GASTEIGER

@<TRIPOS>ATOM
      1  N          6.7860   21.1160   56.5260 N.3    15  LYS15      -0.1245
      2  CA         6.8680   19.6820   56.2480 C.3    15  LYS15       0.1561
      3  C          7.0570   19.4530   54.7520 C.2    15  LYS15       0.2260
      4  O          6.6470   20.2660   53.9250 O.2    15  LYS15      -0.2867
      5  CB         5.6060   18.9430   56.7970 C.3    15  LYS15       0.0271
      6  CG         4.4960   18.5400   55.7830 C.3    15  LYS15       0.0035
      7  CD         3.0400   18.7040   56.3310 C.3    15  LYS15       0.0206
      8  CE         2.0590   17.7140   55.6560 C.3    15  LYS15       0.1093
      9  NZ         0.6370   18.2210   55.4520 N.3    15  LYS15      -0.1314
     10  N          5.7890   17.7980   51.5990 N.3    17  ILE17      -0.1231
     11  CA         4.5030   17.3270   51.0810 C.3    17  ILE17       0.1692
     12  C          4.6840   16.2140   50.0860 C.2    17  ILE17       0.2592
     13  O          3.8760   15.2910   50.0230 O.2    17  ILE17      -0.2718
     14  CB         3.8270   18.4040   50.2350 C.3    17  ILE17       0.0266
     15  CG1        3.2500   19.5200   51.0860 C.3    17  ILE17       0.0019
     16  CG2        2.7320   17.8290   49.3990 C.3    17  ILE17       0.0020
     17  CD1        2.8630   20.7430   50.2450 C.3    17  ILE17       0.0001
     18  N          5.6940   16.3360   49.2360 N.am   18  GLY18      -0.1957
     19  CA         5.8770   15.3510   48.1690 C.3    18  GLY18       0.1869
     20  C          7.2050   15.4550   47.4630 C.2    18  GLY18       0.2309
     21  O          8.0170   16.3500   47.7560 O.2    18  GLY18      -0.2863
     22  N          8.6710   18.9560   47.2100 N.3    25  VAL25      -0.1245
     23  CA         7.7840   20.0910   47.5160 C.3    25  VAL25       0.1561
     24  C          7.5790   20.2380   49.0080 C.2    25  VAL25       0.2260
     25  O          7.3080   19.2540   49.6840 O.2    25  VAL25      -0.2867
     26  CB         6.4240   19.9040   46.9120 C.3    25  VAL25       0.0252
     27  CG1        5.5930   21.1360   47.1420 C.3    25  VAL25       0.0019
     28  CG2        6.5650   19.5980   45.4570 C.3    25  VAL25       0.0019
     29  N          5.9150   22.5720   52.4190 N.3    27  GLN27      -0.1245
     30  CA         4.9360   23.5130   52.9180 C.3    27  GLN27       0.1566
     31  C          5.7800   24.3710   53.8080 C.2    27  GLN27       0.2260
     32  O          6.5040   23.8390   54.6400 O.2    27  GLN27      -0.2867
     33  CB         3.8650   22.7880   53.7050 C.3    27  GLN27       0.0367
     34  CG         2.7070   23.6480   54.1280 C.3    27  GLN27       0.0905
     35  CD         1.7240   22.8820   54.9980 C.2    27  GLN27       0.2608
     36  OE1        2.1200   22.0600   55.8200 O.2    27  GLN27      -0.2717
     37  NE2        0.4450   23.1520   54.8240 N.am   27  GLN27      -0.0878
     38  N          4.0080   27.1200   49.4250 N.3    37  ALA37      -0.1245
     39  CA         4.7420   25.9100   49.0700 C.3    37  ALA37       0.1562
     40  C          5.9940   26.3420   48.3690 C.2    37  ALA37       0.2260
     41  O          6.0180   27.4020   47.7370 O.2    37  ALA37      -0.2867
     42  CB         3.9330   25.0260   48.1480 C.3    37  ALA37       0.0290
     43  N          8.8100   24.4320   45.7700 N.3    39  LYS39      -0.1245
     44  CA         9.3100   23.2860   45.0070 C.3    39  LYS39       0.1561
     45  C         10.7940   23.4620   44.7960 C.2    39  LYS39       0.2260
     46  O         11.2660   24.5260   44.4390 O.2    39  LYS39      -0.2867
     47  CB         8.6120   23.1990   43.6870 C.3    39  LYS39       0.0271
     48  CG         9.0220   22.0580   42.8300 C.3    39  LYS39       0.0035
     49  CD         8.0410   21.9440   41.6700 C.3    39  LYS39       0.0206
     50  CE         8.5250   20.9990   40.6130 C.3    39  LYS39       0.1093
     51  NZ         7.4600   20.7560   39.6020 N.3    39  LYS39      -0.1314
     52  N         -1.9490   26.6490   39.1010 N.3    72  ILE72      -0.1245
     53  CA        -1.2300   26.9540   40.3130 C.3    72  ILE72       0.1561
     54  C         -0.3710   28.1940   40.1110 C.2    72  ILE72       0.2260
     55  O          0.2950   28.2980   39.0970 O.2    72  ILE72      -0.2867
     56  CB        -0.3500   25.7700   40.6690 C.3    72  ILE72       0.0252
     57  CG1        0.2270   25.9420   42.0490 C.3    72  ILE72       0.0019
     58  CG2        0.7500   25.5870   39.6450 C.3    72  ILE72       0.0019
     59  CD1        0.6920   24.6370   42.6210 C.3    72  ILE72       0.0001
     60  N          5.3690   28.9990   45.6110 N.3    88  MET88      -0.1230
     61  CA         4.0800   28.7240   44.9800 C.3    88  MET88       0.1702
     62  C          2.9570   28.6770   45.9900 C.2    88  MET88       0.2592
     63  O          3.1790   28.6590   47.2020 O.2    88  MET88      -0.2718
     64  CB         4.1310   27.4110   44.2030 C.3    88  MET88       0.0401
     65  CG         5.1360   27.4100   43.0560 C.3    88  MET88       0.0596
     66  SD         5.5460   25.8100   42.2980 S.3    88  MET88      -0.1393
     67  CE         4.0490   25.5310   41.4290 C.3    88  MET88       0.0692
     68  N          1.7470   28.7140   45.4590 N.am   89  GLU89      -0.1966
     69  CA         0.5020   28.5750   46.2220 C.3    89  GLU89       0.1733
     70  C          0.5860   27.2020   46.8520 C.2    89  GLU89       0.2616
     71  O          1.1590   26.2850   46.2500 O.2    89  GLU89      -0.2715
     72  CB        -0.6710   28.5100   45.2390 C.3    89  GLU89       0.0429
     73  CG        -1.8730   29.3820   45.4640 C.3    89  GLU89       0.1163
     74  CD        -2.9340   29.1150   44.3920 C.2    89  GLU89       0.3649
     75  OE1       -4.1300   29.3820   44.6190 O.co2  89  GLU89      -0.2457
     76  OE2       -2.5630   28.6100   43.3220 O.co2  89  GLU89      -0.2457
     77  N         -0.0240   27.0350   48.0170 N.am   90  CYS90      -0.1954
     78  CA        -0.0880   25.7340   48.6480 C.3    90  CYS90       0.1843
     79  C         -1.5340   25.3780   48.8130 C.2    90  CYS90       0.2626
     80  O         -2.2410   26.0400   49.5510 O.2    90  CYS90      -0.2714
     81  CB         0.5840   25.7680   50.0160 C.3    90  CYS90       0.0997
     82  SG         0.7250   24.1330   50.7710 S.3    90  CYS90      -0.0797
     83  N         -1.9810   24.3330   48.1330 N.am   91  GLY91      -0.1940
     84  CA        -3.3570   23.8670   48.2910 C.3    91  GLY91       0.2014
     85  C         -3.5390   22.9870   49.5180 C.2    91  GLY91       0.2639
     86  O         -2.6210   22.8160   50.2980 O.2    91  GLY91      -0.2714
     87  N         -4.7340   22.4150   49.6480 N.am   92  ASN92      -0.1958
     88  CA        -5.1260   21.5720   50.7690 C.3    92  ASN92       0.1819
     89  C         -4.7190   20.1060   50.6010 C.2    92  ASN92       0.2621
     90  O         -4.3150   19.4420   51.5550 O.2    92  ASN92      -0.2715
     91  CB        -6.6490   21.6140   50.9190 C.3    92  ASN92       0.1195
     92  CG        -7.1820   23.0060   51.2290 C.2    92  ASN92       0.2630
     93  OD1       -7.1160   23.4770   52.3700 O.2    92  ASN92      -0.2716
     94  ND2       -7.7590   23.6450   50.2270 N.am   92  ASN92      -0.0877
     95  N         -4.8560   19.6140   49.3730 N.am   93  ILE93      -0.1963
     96  CA        -4.6960   18.2030   49.0380 C.3    93  ILE93       0.1727
     97  C         -4.8460   18.1240   47.5210 C.2    93  ILE93       0.2616
     98  O         -5.4840   18.9760   46.9280 O.2    93  ILE93      -0.2715
     99  CB        -5.8050   17.3610   49.7030 C.3    93  ILE93       0.0290
    100  CG1       -5.5430   15.8610   49.5450 C.3    93  ILE93       0.0022
    101  CG2       -7.1880   17.7360   49.1200 C.3    93  ILE93       0.0023
    102  CD1       -6.4690   14.9600   50.4630 C.3    93  ILE93       0.0001
    103  N         -4.2650   17.1160   46.8950 N.am   94  ASP94      -0.1971
    104  CA        -4.4290   16.9150   45.4780 C.3    94  ASP94       0.1709
    105  C         -5.6880   16.1290   45.2650 C.2    94  ASP94       0.2293
    106  O         -6.1680   15.4710   46.1670 O.2    94  ASP94      -0.2864
    107  CB        -3.2620   16.1140   44.8950 C.3    94  ASP94       0.1436
    108  CG        -3.2040   14.7020   45.4100 C.2    94  ASP94       0.3671
    109  OD1       -2.8130   14.5070   46.5820 O.co2  94  ASP94      -0.2456
    110  OD2       -3.5420   13.7840   44.6440 O.co2  94  ASP94      -0.2456
    111  N         -5.4910   12.1140   45.9370 N.3    97  SER97      -0.1217
    112  CA        -5.5160   11.7330   47.3580 C.3    97  SER97       0.1889
    113  C         -6.9260   11.9210   47.8910 C.2    97  SER97       0.2288
    114  O         -7.4520   11.0830   48.6540 O.2    97  SER97      -0.2866
    115  CB        -4.5750   12.5850   48.1870 C.3    97  SER97       0.2089
    116  OG        -3.2370   12.4940   47.7440 O.3    97  SER97      -0.2183
    117  N         -9.8660    9.2270   49.4950 N.3   101  LYS101     -0.1245
    118  CA       -10.3410    9.3920   50.8870 C.3   101  LYS101      0.1561
    119  C        -11.8680    9.5350   50.9720 C.2   101  LYS101      0.2260
    120  O        -12.4480    9.3590   52.0450 O.2   101  LYS101     -0.2867
    121  CB        -9.6780   10.6140   51.5780 C.3   101  LYS101      0.0271
    122  CG        -8.2550   10.3480   52.0470 C.3   101  LYS101      0.0035
    123  CD        -7.7120   11.5670   52.7840 C.3   101  LYS101      0.0206
    124  CE        -6.2760   11.3830   53.2480 C.3   101  LYS101      0.1093
    125  NZ        -5.3440   11.2300   52.1020 N.3   101  LYS101     -0.1314
    126  N         -4.0740   13.2960   39.7770 N.3   137  ALA137     -0.1245
    127  CA        -2.8920   13.9080   40.4200 C.3   137  ALA137      0.1562
    128  C         -2.5510   15.2930   39.8470 C.2   137  ALA137      0.2260
    129  O         -1.8920   16.0820   40.4950 O.2   137  ALA137     -0.2867
    130  CB        -1.7170   13.0170   40.3030 C.3   137  ALA137      0.0290
    131  N         -5.1040   20.3270   42.0220 N.3   140  LEU140     -0.1245
    132  CA        -4.8690   20.6870   43.4010 C.3   140  LEU140      0.1561
    133  C         -6.0920   21.4270   43.8940 C.2   140  LEU140      0.2260
    134  O         -6.5390   22.3580   43.2480 O.2   140  LEU140     -0.2867
    135  CB        -3.6570   21.6040   43.4730 C.3   140  LEU140      0.0270
    136  CG        -3.2560   22.1020   44.8550 C.3   140  LEU140      0.0019
    137  CD1       -2.7130   20.9380   45.6430 C.3   140  LEU140      0.0001
    138  CD2       -2.2370   23.2850   44.7450 C.3   140  LEU140      0.0001
    139  N         -1.8480   21.4480   38.1010 N.3   149  ILE149     -0.1231
    140  CA        -0.4880   21.3700   38.6050 C.3   149  ILE149      0.1692
    141  C          0.2560   20.2540   37.9050 C.2   149  ILE149      0.2592
    142  O         -0.3580   19.3560   37.2810 O.2   149  ILE149     -0.2718
    143  CB        -0.4610   21.0330   40.1140 C.3   149  ILE149      0.0266
    144  CG1       -1.1760   19.7070   40.3970 C.3   149  ILE149      0.0019
    145  CG2       -1.0660   22.1450   40.9340 C.3   149  ILE149      0.0020
    146  CD1       -1.2720   19.3680   41.8770 C.3   149  ILE149      0.0001
    147  N          1.5810   20.2720   38.0470 N.am  150  ASP150     -0.1974
    148  CA         2.4210   19.1480   37.6260 C.3   150  ASP150      0.1709
    149  C          2.1040   18.7590   36.1860 C.2   150  ASP150      0.2293
    150  O          2.0280   17.5950   35.8540 O.2   150  ASP150     -0.2864
    151  CB         2.2100   17.9530   38.5790 C.3   150  ASP150      0.1436
    152  CG         2.7620   18.2080   40.0080 C.2   150  ASP150      0.3671
    153  OD1        3.7030   19.0450   40.1840 O.co2 150  ASP150     -0.2456
    154  OD2        2.2530   17.5440   40.9490 O.co2 150  ASP150     -0.2456
    155  N          5.5270   13.3970   40.0850 N.3   157  MET157     -0.1230
    156  CA         5.3290   13.9040   41.4650 C.3   157  MET157      0.1702
    157  C          4.4010   13.0070   42.2490 C.2   157  MET157      0.2592
    158  O          3.3080   12.7170   41.7720 O.2   157  MET157     -0.2718
    159  CB         4.7060   15.3070   41.4770 C.3   157  MET157      0.0401
    160  CG         5.6730   16.4480   41.7830 C.3   157  MET157      0.0596
    161  SD         6.5670   16.3290   43.3480 S.3   157  MET157     -0.1393
    162  CE         7.8770   17.4540   42.9690 C.3   157  MET157      0.0692
    163  N          4.8050   12.6180   43.4610 N.am  158  GLN158     -0.1966
    164  CA         3.9670   11.7760   44.3200 C.3   158  GLN158      0.1718
    165  C          4.0150   12.2200   45.7930 C.2   158  GLN158      0.2458
    166  O          5.0690   12.6230   46.2800 O.2   158  GLN158     -0.2730
    167  CB         4.3890   10.3110   44.1860 C.3   158  GLN158      0.0407
    168  CG         3.8200    9.5890   42.9350 C.3   158  GLN158      0.0908
    169  CD         4.3650    8.1540   42.7590 C.2   158  GLN158      0.2608
    170  OE1        5.4920    7.8240   43.1810 O.2   158  GLN158     -0.2717
    171  NE2        3.5620    7.3030   42.1220 N.am  158  GLN158     -0.0878
    172  N          2.8710   12.1550   46.5130 N.am  159  PRO159     -0.2716
    173  CA         2.8510   12.5540   47.9260 C.3   159  PRO159      0.1536
    174  C          3.7620   11.7190   48.7280 C.2   159  PRO159      0.2598
    175  O          4.0190   10.5950   48.3450 O.2   159  PRO159     -0.2715
    176  CB         1.4230   12.2630   48.3510 C.3   159  PRO159      0.0310
    177  CG         0.6480   12.4790   47.1170 C.3   159  PRO159      0.0237
    178  CD         1.5040   11.9220   46.0170 C.3   159  PRO159      0.0939
    179  N          4.2500   12.2600   49.8300 N.am  160  ASP160     -0.1972
    180  CA         5.1130   11.5290   50.7230 C.3   160  ASP160      0.1709
    181  C          4.3070   11.0280   51.9130 C.2   160  ASP160      0.2293
    182  O          3.2240   11.5200   52.2050 O.2   160  ASP160     -0.2864
    183  CB         6.2770   12.4200   51.1860 C.3   160  ASP160      0.1436
    184  CG         7.3760   12.5750   50.1170 C.2   160  ASP160      0.3671
    185  OD1        7.1800   12.1680   48.9480 O.co2 160  ASP160     -0.2456
    186  OD2        8.4550   13.0990   50.4570 O.co2 160  ASP160     -0.2456
@<TRIPOS>BOND
     1   150   149    2
     2   149   148    1
     3   142   141    2
     4   148   147    1
     5   148   151    1
     6   141   147   am
     7   141   140    1
     8   139   140    1
     9   151   152    1
    10   140   143    1
    11    55    54    2
    12    52    53    1
    13    51    50    1
    14    58    56    1
    15   126   127    1
    16   128   127    1
    17   128   129    2
    18   152   153   ar
    19   152   154   ar
    20   155   156    1
    21    54    53    1
    22   143   144    1
    23   143   145    1
    24   130   127    1
    25    53    56    1
    26   144   146    1
    27    50    49    1
    28    56    57    1
    29    67    66    1
    30   156   159    1
    31   156   157    1
    32   159   160    1
    33    49    48    1
    34   158   157    2
    35   160   161    1
    36   131   132    1
    37    57    59    1
    38   171   169   am
    39   157   163   am
    40    66    65    1
    41   169   168    1
    42   169   170    2
    43    48    47    1
    44   168   167    1
    45   162   161    1
    46    65    64    1
    47   134   133    2
    48    76    74   ar
    49   132   135    1
    50   132   133    1
    51   163   164    1
    52   135   136    1
    53    47    44    1
    54   167   164    1
    55    64    61    1
    56   164   165    1
    57    74    75   ar
    58    74    73    1
    59    46    45    2
    60   110   108   ar
    61   138   136    1
    62    45    44    1
    63   136   137    1
    64   107   108    1
    65   107   104    1
    66    61    60    1
    67    61    62    1
    68    44    43    1
    69    72    73    1
    70    72    69    1
    71   105   104    1
    72   105   106    2
    73   108   109   ar
    74    28    26    1
    75    68    62   am
    76    68    69    1
    77   104   103    1
    78   165   166    2
    79   165   172   am
    80   111   112    1
    81    62    63    2
    82   178   172    1
    83   178   177    1
    84    69    70    1
    85    71    70    2
    86   172   173    1
    87    70    77   am
    88   103    97   am
    89    26    27    1
    90    26    23    1
    91    98    97    2
    92   177   176    1
    93    22    23    1
    94   112   113    1
    95   112   115    1
    96    20    21    2
    97    20    19    1
    98    23    24    1
    99    97    96    1
   100    41    40    2
   101   116   115    1
   102   113   114    2
   103   173   176    1
   104   173   174    1
   105    77    78    1
   106    83    84    1
   107    83    79   am
   108    42    39    1
   109    19    18    1
   110    84    85    1
   111   175   174    2
   112    40    39    1
   113    78    79    1
   114    78    81    1
   115   174   179   am
   116    79    80    2
   117   185   184   ar
   118    24    25    2
   119    96    95    1
   120    96    99    1
   121    39    38    1
   122   101    99    1
   123    18    12   am
   124    95    89   am
   125    16    14    1
   126   117   118    1
   127    85    87   am
   128    85    86    2
   129   100    99    1
   130   100   102    1
   131    87    88    1
   132   179   180    1
   133    81    82    1
   134    13    12    2
   135    12    11    1
   136   184   186   ar
   137   184   183    1
   138    94    92   am
   139    14    11    1
   140    14    15    1
   141    17    15    1
   142    89    88    1
   143    89    90    2
   144   180   183    1
   145   180   181    1
   146    88    91    1
   147   118   119    1
   148   118   121    1
   149    91    92    1
   150   119   120    2
   151    11    10    1
   152    92    93    2
   153   121   122    1
   154   181   182    2
   155   122   123    1
   156   125   124    1
   157    29    30    1
   158   123   124    1
   159    30    33    1
   160    30    31    1
   161    33    34    1
   162    31    32    2
   163     4     3    2
   164    34    35    1
   165     3     2    1
   166    37    35   am
   167    35    36    2
   168     9     8    1
   169     8     7    1
   170     6     7    1
   171     6     5    1
   172     2     1    1
   173     2     5    1
