@<TRIPOS>MOLECULE
tmp/3h9gA01.pdb
 75 71 0 0 0
SMALL
GASTEIGER

@<TRIPOS>ATOM
      1  N         -3.7260   23.4350   -4.7760 N.3    10  LYS10      -0.1231
      2  CA        -2.5520   24.2750   -4.7680 C.3    10  LYS10       0.1693
      3  C         -2.1970   24.5720   -6.2160 C.2    10  LYS10       0.2592
      4  O         -2.6170   23.8680   -7.1350 O.2    10  LYS10      -0.2718
      5  CB        -1.3880   23.6330   -4.0030 C.3    10  LYS10       0.0285
      6  CG        -1.1570   22.1350   -4.2820 C.3    10  LYS10       0.0035
      7  CD         0.0030   21.6070   -3.4460 C.3    10  LYS10       0.0206
      8  CE         0.1580   20.1010   -3.5820 C.3    10  LYS10       0.1093
      9  NZ         1.4860   19.6460   -3.0480 N.3    10  LYS10      -0.1314
     10  N         -1.4730   25.6570   -6.4190 N.am   11  ILE11      -0.1966
     11  CA        -1.1330   26.0960   -7.7620 C.3    11  ILE11       0.1727
     12  C          0.3300   26.4950   -7.7500 C.2    11  ILE11       0.2616
     13  O          0.9040   26.7100   -6.6800 O.2    11  ILE11      -0.2715
     14  CB        -2.0370   27.2800   -8.2590 C.3    11  ILE11       0.0290
     15  CG1       -1.6350   28.6150   -7.6200 C.3    11  ILE11       0.0022
     16  CG2       -3.5250   26.9730   -8.0650 C.3    11  ILE11       0.0023
     17  CD1       -2.1350   28.8240   -6.2160 C.3    11  ILE11       0.0001
     18  N          0.9420   26.5790   -8.9260 N.am   12  ALA12      -0.1977
     19  CA         2.3380   26.9940   -8.9950 C.3    12  ALA12       0.1597
     20  C          2.6970   27.4790  -10.3750 C.2    12  ALA12       0.2287
     21  O          2.2420   26.9110  -11.3750 O.2    12  ALA12      -0.2864
     22  CB         3.2650   25.8530   -8.5740 C.3    12  ALA12       0.0319
     23  N          5.0120   27.6570  -13.4390 N.3    14  TYR14      -0.1241
     24  CA         5.7200   26.5400  -14.0290 C.3    14  TYR14       0.1605
     25  C          5.6150   26.6750  -15.5370 C.2    14  TYR14       0.2264
     26  O          4.5350   26.9800  -16.0630 O.2    14  TYR14      -0.2867
     27  CB         5.0670   25.2350  -13.5630 C.3    14  TYR14       0.0534
     28  CG         5.7590   23.9650  -13.9900 C.ar   14  TYR14      -0.0201
     29  CD1        6.8970   23.5140  -13.3260 C.ar   14  TYR14      -0.0009
     30  CD2        5.2550   23.1940  -15.0430 C.ar   14  TYR14      -0.0009
     31  CE1        7.5320   22.3320  -13.7080 C.ar   14  TYR14       0.0417
     32  CE2        5.8790   22.0100  -15.4280 C.ar   14  TYR14       0.0417
     33  CZ         7.0160   21.5890  -14.7530 C.ar   14  TYR14       0.1957
     34  OH         7.6430   20.4220  -15.1190 O.3    14  TYR14      -0.2866
     35  N          0.8080   25.3030  -12.9120 N.3    19  LEU19      -0.1245
     36  CA         0.0680   24.1080  -12.5040 C.3    19  LEU19       0.1561
     37  C         -1.1510   24.4690  -11.6620 C.2    19  LEU19       0.2260
     38  O         -1.1260   25.4530  -10.9250 O.2    19  LEU19      -0.2867
     39  CB         0.9850   23.1660  -11.7180 C.3    19  LEU19       0.0270
     40  CG         2.2670   22.7220  -12.4340 C.3    19  LEU19       0.0019
     41  CD1        3.3030   22.3350  -11.4140 C.3    19  LEU19       0.0001
     42  CD2        2.0020   21.5850  -13.4250 C.3    19  LEU19       0.0001
     43  N         -3.7110   22.4550   -8.9580 N.3    21  GLY21      -0.1210
     44  CA        -4.0770   21.2660   -8.2030 C.3    21  GLY21       0.1956
     45  C         -2.9010   20.3290   -7.9590 C.2    21  GLY21       0.2612
     46  O         -1.8650   20.4200   -8.6160 O.2    21  GLY21      -0.2717
     47  N         -3.0730   19.4280   -7.0000 N.am   22  GLY22      -0.1942
     48  CA        -2.0310   18.4750   -6.6450 C.3    22  GLY22       0.2014
     49  C         -2.5620   17.0560   -6.7180 C.2    22  GLY22       0.2639
     50  O         -3.7260   16.7960   -6.3980 O.2    22  GLY22      -0.2714
     51  N         -1.7060   16.1340   -7.1360 N.am   23  GLY23      -0.1954
     52  CA        -2.0890   14.7320   -7.2210 C.3    23  GLY23       0.1869
     53  C         -2.5070   14.3880   -8.6300 C.2    23  GLY23       0.2309
     54  O         -2.0580   15.0130   -9.5890 O.2    23  GLY23      -0.2863
     55  N         -3.7610   17.1330  -11.0630 N.3    26  GLU26      -0.1245
     56  CA        -2.8310   18.1970  -11.4460 C.3    26  GLU26       0.1567
     57  C         -2.8460   18.4970  -12.9450 C.2    26  GLU26       0.2260
     58  O         -2.6100   17.6040  -13.7610 O.2    26  GLU26      -0.2867
     59  CB        -1.4040   17.8430  -11.0250 C.3    26  GLU26       0.0388
     60  CG        -0.3620   18.8490  -11.4530 C.3    26  GLU26       0.1160
     61  CD         1.0420   18.3120  -11.3200 C.2    26  GLU26       0.3649
     62  OE1        1.6220   18.4340  -10.2220 O.co2  26  GLU26      -0.2457
     63  OE2        1.5660   17.7670  -12.3100 O.co2  26  GLU26      -0.2457
     64  N         -1.4100   21.1410  -16.0790 N.3    28  TYR28      -0.1241
     65  CA        -0.4900   22.1690  -16.5350 C.3    28  TYR28       0.1605
     66  C         -1.1680   22.9540  -17.6420 C.2    28  TYR28       0.2264
     67  O         -1.4340   22.4180  -18.7190 O.2    28  TYR28      -0.2867
     68  CB         0.8370   21.5640  -17.0210 C.3    28  TYR28       0.0534
     69  CG         1.7250   22.5370  -17.7770 C.ar   28  TYR28      -0.0201
     70  CD1        2.2850   23.6520  -17.1390 C.ar   28  TYR28      -0.0009
     71  CD2        2.0070   22.3410  -19.1260 C.ar   28  TYR28      -0.0009
     72  CE1        3.1010   24.5500  -17.8350 C.ar   28  TYR28       0.0417
     73  CE2        2.8200   23.2250  -19.8300 C.ar   28  TYR28       0.0417
     74  CZ         3.3630   24.3290  -19.1830 C.ar   28  TYR28       0.1957
     75  OH         4.1670   25.2070  -19.8890 O.3    28  TYR28      -0.2866
@<TRIPOS>BOND
     1    75    74    1
     2    73    74   ar
     3    73    71   ar
     4    74    72   ar
     5    71    69   ar
     6    67    66    2
     7    72    70   ar
     8    69    70   ar
     9    69    68    1
    10    66    65    1
    11    68    65    1
    12    65    64    1
    13    26    25    2
    14    25    24    1
    15    32    30   ar
    16    32    33   ar
    17    34    33    1
    18    30    28   ar
    19    33    31   ar
    20    24    27    1
    21    24    23    1
    22    28    27    1
    23    28    29   ar
    24    58    57    2
    25    31    29   ar
    26    42    40    1
    27    57    56    1
    28    35    36    1
    29    36    39    1
    30    36    37    1
    31    40    39    1
    32    40    41    1
    33    63    61   ar
    34    37    38    2
    35    60    61    1
    36    60    59    1
    37    56    55    1
    38    56    59    1
    39    21    20    2
    40    61    62   ar
    41    20    19    1
    42    54    53    2
    43    19    18    1
    44    19    22    1
    45    43    44    1
    46    18    12   am
    47    53    52    1
    48    46    45    2
    49    14    16    1
    50    14    11    1
    51    14    15    1
    52    44    45    1
    53    45    47   am
    54    11    12    1
    55    11    10    1
    56    12    13    2
    57    15    17    1
    58    52    51    1
    59    51    49   am
    60     4     3    2
    61    47    48    1
    62    49    48    1
    63    49    50    2
    64    10     3   am
    65     3     2    1
    66     1     2    1
    67     2     5    1
    68     6     5    1
    69     6     7    1
    70     8     7    1
    71     8     9    1
