@<TRIPOS>MOLECULE
tmp/3h9gC00.pdb
 92 87 0 0 0
SMALL
GASTEIGER

@<TRIPOS>ATOM
      1  N         20.4110   19.9890   36.9490 N.3   239  VAL239     -0.1245
      2  CA        19.4670   21.0960   36.9120 C.3   239  VAL239      0.1561
      3  C         18.3100   20.6830   37.7920 C.2   239  VAL239      0.2260
      4  O         17.4140   19.9590   37.3490 O.2   239  VAL239     -0.2867
      5  CB        18.9500   21.4300   35.4830 C.3   239  VAL239      0.0252
      6  CG1       18.0970   22.6990   35.5370 C.3   239  VAL239      0.0019
      7  CG2       20.1110   21.6840   34.5250 C.3   239  VAL239      0.0019
      8  N         17.1460   16.9700   37.8130 N.3   242  ILE242     -0.1245
      9  CA        17.7240   16.2290   36.6740 C.3   242  ILE242      0.1561
     10  C         19.2480   16.1740   36.7620 C.2   242  ILE242      0.2260
     11  O         19.9120   17.2050   36.8200 O.2   242  ILE242     -0.2867
     12  CB        17.3260   16.8330   35.2940 C.3   242  ILE242      0.0252
     13  CG1       15.8000   16.9370   35.1440 C.3   242  ILE242      0.0019
     14  CG2       17.9260   16.0140   34.1470 C.3   242  ILE242      0.0019
     15  CD1       15.3620   17.6900   33.8850 C.3   242  ILE242      0.0001
     16  N         22.8920   15.5780   35.1890 N.3   244  VAL244     -0.1245
     17  CA        23.4850   15.8800   33.8860 C.3   244  VAL244      0.1561
     18  C         24.9560   15.4820   33.8560 C.2   244  VAL244      0.2260
     19  O         25.7060   15.7720   34.7870 O.2   244  VAL244     -0.2867
     20  CB        23.3570   17.3900   33.4920 C.3   244  VAL244      0.0252
     21  CG1       23.9550   17.6370   32.0980 C.3   244  VAL244      0.0019
     22  CG2       21.9020   17.8550   33.5090 C.3   244  VAL244      0.0019
     23  N         22.1300   24.1960   22.4850 N.3   262  VAL262     -0.1231
     24  CA        21.0380   23.5520   23.2270 C.3   262  VAL262      0.1692
     25  C         20.8680   24.0630   24.6530 C.2   262  VAL262      0.2591
     26  O         19.8210   23.8490   25.2770 O.2   262  VAL262     -0.2718
     27  CB        21.1360   21.9970   23.2320 C.3   262  VAL262      0.0266
     28  CG1       20.3110   21.4110   22.0930 C.3   262  VAL262      0.0020
     29  CG2       22.5890   21.5280   23.1880 C.3   262  VAL262      0.0020
     30  N         21.8890   24.7420   25.1640 N.am  263  VAL263     -0.1980
     31  CA        21.8330   25.2830   26.5170 C.3   263  VAL263      0.1595
     32  C         21.9410   26.8080   26.5010 C.2   263  VAL263      0.2287
     33  O         20.9670   27.5040   26.1940 O.2   263  VAL263     -0.2864
     34  CB        22.9240   24.6630   27.4210 C.3   263  VAL263      0.0276
     35  CG1       22.6180   24.9320   28.8930 C.3   263  VAL263      0.0022
     36  CG2       23.0310   23.1610   27.1680 C.3   263  VAL263      0.0022
     37  N         25.1720   15.6170   25.5420 N.3   319  ARG319     -0.1231
     38  CA        24.8660   16.0410   26.8980 C.3   319  ARG319      0.1694
     39  C         23.7180   15.1830   27.3930 C.2   319  ARG319      0.2592
     40  O         22.6240   15.2620   26.8460 O.2   319  ARG319     -0.2718
     41  CB        24.4480   17.5090   26.9220 C.3   319  ARG319      0.0321
     42  CG        24.3630   18.1080   28.3250 C.3   319  ARG319      0.0489
     43  CD        24.3920   19.6300   28.1990 C.3   319  ARG319      0.2205
     44  NE        24.1920   20.3200   29.4690 N.pl3 319  ARG319     -0.0865
     45  CZ        23.0150   20.7770   29.8900 C.cat 319  ARG319      0.5346
     46  NH1       21.9330   20.6050   29.1520 N.pl3 319  ARG319      0.1354
     47  NH2       22.9180   21.4100   31.0510 N.pl3 319  ARG319      0.1354
     48  N         23.9490   14.3850   28.4320 N.am  320  ILE320     -0.1966
     49  CA        22.9280   13.4310   28.9100 C.3   320  ILE320      0.1727
     50  C         22.2510   13.8720   30.2120 C.2   320  ILE320      0.2616
     51  O         22.9170   14.2300   31.1880 O.2   320  ILE320     -0.2715
     52  CB        23.5150   12.0230   29.0730 C.3   320  ILE320      0.0290
     53  CG1       24.3500   11.6560   27.8250 C.3   320  ILE320      0.0022
     54  CG2       22.4180   11.0170   29.4190 C.3   320  ILE320      0.0023
     55  CD1       25.0570   10.3220   27.8980 C.3   320  ILE320      0.0001
     56  N         20.9230   13.8580   30.2050 N.am  321  GLY321     -0.1955
     57  CA        20.1400   14.1750   31.3820 C.3   321  GLY321      0.1869
     58  C         19.3300   12.9830   31.8350 C.2   321  GLY321      0.2309
     59  O         18.6880   12.3230   31.0210 O.2   321  GLY321     -0.2863
     60  N         16.3000   11.9860   34.4610 N.3   323  TRP323     -0.1241
     61  CA        15.2270   12.4750   35.3180 C.3   323  TRP323      0.1605
     62  C         15.1510   11.6640   36.6060 C.2   323  TRP323      0.2264
     63  O         15.3990   10.4590   36.6060 O.2   323  TRP323     -0.2867
     64  CB        13.9010   12.4080   34.5700 C.3   323  TRP323      0.0550
     65  CG        13.6160   13.6050   33.7130 C.ar  323  TRP323      0.0003
     66  CD1       12.5720   14.4760   33.8600 C.ar  323  TRP323      0.0946
     67  CD2       14.3660   14.0650   32.5660 C.ar  323  TRP323      0.0152
     68  NE1       12.6310   15.4520   32.8910 N.ar  323  TRP323     -0.2442
     69  CE2       13.7230   15.2290   32.0890 C.ar  323  TRP323      0.0810
     70  CE3       15.5250   13.6150   31.9100 C.ar  323  TRP323      0.0012
     71  CZ2       14.1880   15.9460   30.9780 C.ar  323  TRP323      0.0191
     72  CZ3       15.9930   14.3360   30.8050 C.ar  323  TRP323      0.0001
     73  CH2       15.3190   15.4810   30.3490 C.ar  323  TRP323      0.0015
     74  N         17.3980   11.4640   28.5080 N.3   330  HIS330     -0.1241
     75  CA        17.3450   12.2220   27.2690 C.3   330  HIS330      0.1621
     76  C         18.7340   12.7970   27.0080 C.2   330  HIS330      0.2264
     77  O         19.4090   13.2570   27.9310 O.2   330  HIS330     -0.2867
     78  CB        16.2820   13.3270   27.3860 C.3   330  HIS330      0.0745
     79  CG        16.2490   14.2770   26.2310 C.ar  330  HIS330      0.0817
     80  ND1       16.7260   15.5710   26.3170 N.ar  330  HIS330     -0.2268
     81  CD2       15.7930   14.1280   24.9640 C.ar  330  HIS330      0.1154
     82  CE1       16.5650   16.1770   25.1510 C.ar  330  HIS330      0.1986
     83  NE2       16.0050   15.3220   24.3120 N.ar  330  HIS330     -0.2212
     84  N         21.1150   15.4820   24.5440 N.3   332  GLN332     -0.1245
     85  CA        21.1960   16.5750   23.5830 C.3   332  GLN332      0.1566
     86  C         22.4030   16.3970   22.6720 C.2   332  GLN332      0.2260
     87  O         23.5110   16.1830   23.1500 O.2   332  GLN332     -0.2867
     88  CB        21.2720   17.9250   24.3070 C.3   332  GLN332      0.0367
     89  CG        20.0490   18.2260   25.1990 C.3   332  GLN332      0.0905
     90  CD        20.2980   19.3550   26.1810 C.2   332  GLN332      0.2608
     91  OE1       21.3820   19.4630   26.7450 O.2   332  GLN332     -0.2717
     92  NE2       19.2930   20.2020   26.3880 N.am  332  GLN332     -0.0878
@<TRIPOS>BOND
     1    28    27    1
     2    23    24    1
     3    86    87    2
     4    86    85    1
     5    29    27    1
     6    24    27    1
     7    24    25    1
     8    85    88    1
     9    85    84    1
    10    88    89    1
    11    83    81   ar
    12    83    82   ar
    13    25    30   am
    14    25    26    2
    15    81    79   ar
    16    82    80   ar
    17    30    31    1
    18    89    90    1
    19    37    38    1
    20    90    92   am
    21    90    91    2
    22    33    32    2
    23    79    80   ar
    24    79    78    1
    25    32    31    1
    26    31    34    1
    27    40    39    2
    28    38    41    1
    29    38    39    1
    30    41    42    1
    31    76    75    1
    32    76    77    2
    33    36    34    1
    34    75    78    1
    35    75    74    1
    36    39    48   am
    37    34    35    1
    38    53    55    1
    39    53    52    1
    40    43    42    1
    41    43    44    1
    42    48    49    1
    43    49    52    1
    44    49    50    1
    45    52    54    1
    46    46    45    1
    47    44    45    2
    48    45    47    1
    49    56    50   am
    50    56    57    1
    51    50    51    2
    52    73    72   ar
    53    73    71   ar
    54    72    70   ar
    55    71    69   ar
    56    59    58    2
    57    57    58    1
    58    70    67   ar
    59    69    67   ar
    60    69    68   ar
    61    21    20    1
    62    67    65   ar
    63    68    66   ar
    64    20    22    1
    65    20    17    1
    66    65    66   ar
    67    65    64    1
    68    18    17    1
    69    18    19    2
    70    15    13    1
    71    17    16    1
    72    14    12    1
    73    60    61    1
    74     7     5    1
    75    64    61    1
    76    13    12    1
    77    12     9    1
    78    61    62    1
    79     5     6    1
    80     5     2    1
    81    63    62    2
    82     9    10    1
    83     9     8    1
    84    10    11    2
    85     2     1    1
    86     2     3    1
    87     4     3    2
