@<TRIPOS>MOLECULE
tmp/3h9gA00.pdb
 234 225 0 0 0
SMALL
GASTEIGER

@<TRIPOS>ATOM
      1  N         -1.4560   -9.0310    6.0420 N.3   124  ILE124     -0.1245
      2  CA        -2.3950   -8.2510    5.2440 C.3   124  ILE124      0.1561
      3  C         -3.6050   -7.8330    6.0790 C.2   124  ILE124      0.2260
      4  O         -3.9310   -6.6500    6.1150 O.2   124  ILE124     -0.2867
      5  CB        -2.8440   -8.9790    3.9530 C.3   124  ILE124      0.0252
      6  CG1       -1.6390   -9.2940    3.0620 C.3   124  ILE124      0.0019
      7  CG2       -3.8980   -8.1420    3.1830 C.3   124  ILE124      0.0019
      8  CD1       -1.0490   -8.1030    2.3550 C.3   124  ILE124      0.0001
      9  N         -7.0690  -12.8000    2.4650 N.3   210  SER210     -0.1202
     10  CA        -5.6020  -12.8310    2.4290 C.3   210  SER210      0.2020
     11  C         -4.9460  -14.0650    3.0570 C.2   210  SER210      0.2619
     12  O         -3.7170  -14.1710    3.0830 O.2   210  SER210     -0.2717
     13  CB        -5.0210  -11.5600    3.0300 C.3   210  SER210      0.2103
     14  OG        -5.2900  -11.4810    4.4090 O.3   210  SER210     -0.2182
     15  N         -5.7510  -14.9950    3.5580 N.am  211  ALA211     -0.1965
     16  CA        -5.2200  -16.2740    4.0260 C.3   211  ALA211      0.1728
     17  C         -4.7030  -17.0880    2.8360 C.2   211  ALA211      0.2616
     18  O         -5.3310  -17.1120    1.7730 O.2   211  ALA211     -0.2715
     19  CB        -6.2850  -17.0510    4.7970 C.3   211  ALA211      0.0334
     20  N         -3.5600  -17.7460    3.0150 N.am  212  ASP212     -0.1971
     21  CA        -2.9230  -18.5020    1.9370 C.3   212  ASP212      0.1709
     22  C         -2.9020  -20.0150    2.1970 C.2   212  ASP212      0.2293
     23  O         -2.0570  -20.7310    1.6540 O.2   212  ASP212     -0.2864
     24  CB        -1.4960  -17.9790    1.6990 C.3   212  ASP212      0.1436
     25  CG        -0.6270  -18.0150    2.9630 C.2   212  ASP212      0.3671
     26  OD1       -0.7060  -18.9950    3.7420 O.co2 212  ASP212     -0.2456
     27  OD2        0.1540  -17.0590    3.1680 O.co2 212  ASP212     -0.2456
     28  N         -3.2260  -23.8810   -0.4640 N.3   215  PHE215     -0.1227
     29  CA        -2.6900  -23.1680   -1.6180 C.3   215  PHE215      0.1736
     30  C         -3.7650  -22.8160   -2.6530 C.2   215  PHE215      0.2595
     31  O         -3.5850  -21.8930   -3.4550 O.2   215  PHE215     -0.2718
     32  CB        -1.5890  -24.0060   -2.2760 C.3   215  PHE215      0.0547
     33  CG        -2.1100  -25.0240   -3.2500 C.ar  215  PHE215     -0.0202
     34  CD1       -2.8940  -26.0970   -2.8090 C.ar  215  PHE215     -0.0042
     35  CD2       -1.8390  -24.9020   -4.6130 C.ar  215  PHE215     -0.0042
     36  CE1       -3.3970  -27.0350   -3.7150 C.ar  215  PHE215     -0.0003
     37  CE2       -2.3380  -25.8390   -5.5280 C.ar  215  PHE215     -0.0003
     38  CZ        -3.1160  -26.9090   -5.0740 C.ar  215  PHE215     -0.0000
     39  N         -4.8690  -23.5630   -2.6520 N.am  216  ASN216     -0.1974
     40  CA        -5.9780  -23.2930   -3.5690 C.3   216  ASN216      0.1688
     41  C         -7.1270  -22.6050   -2.8350 C.2   216  ASN216      0.2292
     42  O         -8.2940  -22.7050   -3.2250 O.2   216  ASN216     -0.2864
     43  CB        -6.4310  -24.5780   -4.2930 C.3   216  ASN216      0.1181
     44  CG        -7.0800  -25.5980   -3.3580 C.2   216  ASN216      0.2629
     45  OD1       -6.8120  -25.6280   -2.1520 O.2   216  ASN216     -0.2716
     46  ND2       -7.9420  -26.4440   -3.9220 N.am  216  ASN216     -0.0877
     47  N         -7.8880  -19.4370   -2.6220 N.3   218  ILE218     -0.1231
     48  CA        -8.5760  -18.4130   -3.4100 C.3   218  ILE218      0.1692
     49  C         -9.5210  -19.0540   -4.4350 C.2   218  ILE218      0.2592
     50  O        -10.5280  -18.4570   -4.8130 O.2   218  ILE218     -0.2718
     51  CB        -7.5860  -17.3590   -4.0280 C.3   218  ILE218      0.0266
     52  CG1       -8.3290  -16.1740   -4.6770 C.3   218  ILE218      0.0019
     53  CG2       -6.6330  -18.0100   -5.0120 C.3   218  ILE218      0.0020
     54  CD1       -9.2640  -15.3770   -3.7360 C.3   218  ILE218      0.0001
     55  N         -9.2150  -20.2840   -4.8450 N.am  219  ASN219     -0.1974
     56  CA       -10.0720  -21.0150   -5.7830 C.3   219  ASN219      0.1688
     57  C        -11.3620  -21.4510   -5.1010 C.2   219  ASN219      0.2292
     58  O        -12.4420  -21.3920   -5.6880 O.2   219  ASN219     -0.2864
     59  CB        -9.3390  -22.2150   -6.3910 C.3   219  ASN219      0.1181
     60  CG        -8.0610  -21.8190   -7.1150 C.2   219  ASN219      0.2629
     61  OD1       -6.9560  -22.0010   -6.5930 O.2   219  ASN219     -0.2716
     62  ND2       -8.2050  -21.2610   -8.3170 N.am  219  ASN219     -0.0877
     63  N         -9.0050  -10.0530   -3.1240 N.3   234  ASN234     -0.1225
     64  CA        -7.7890  -10.7940   -2.7930 C.3   234  ASN234      0.1785
     65  C         -6.5870   -9.8440   -2.6870 C.2   234  ASN234      0.2597
     66  O         -6.4930   -8.8550   -3.4110 O.2   234  ASN234     -0.2718
     67  CB        -7.5560  -11.8990   -3.8420 C.3   234  ASN234      0.1169
     68  CG        -6.5460  -12.9570   -3.4060 C.2   234  ASN234      0.2627
     69  OD1       -5.9120  -13.5790   -4.2530 O.2   234  ASN234     -0.2716
     70  ND2       -6.4200  -13.1900   -2.1080 N.am  234  ASN234     -0.0877
     71  N         -5.6920  -10.1290   -1.7500 N.am  235  ALA235     -0.1966
     72  CA        -4.4870   -9.3500   -1.5640 C.3   235  ALA235      0.1728
     73  C         -3.4380  -10.2180   -0.9140 C.2   235  ALA235      0.2617
     74  O         -3.7440  -11.0470   -0.0490 O.2   235  ALA235     -0.2715
     75  CB        -4.7500   -8.1160   -0.7000 C.3   235  ALA235      0.0334
     76  N         -2.1990  -10.0280   -1.3320 N.am  236  GLY236     -0.1940
     77  CA        -1.0880  -10.7540   -0.7450 C.3   236  GLY236      0.2014
     78  C          0.1920  -10.3310   -1.4130 C.2   236  GLY236      0.2639
     79  O          0.4260   -9.1430   -1.6310 O.2   236  GLY236     -0.2714
     80  N          1.0120  -11.3170   -1.7400 N.am  237  TYR237     -0.1959
     81  CA         2.3110  -11.0960   -2.3420 C.3   237  TYR237      0.1771
     82  C          2.8240  -12.4250   -2.9000 C.2   237  TYR237      0.2619
     83  O          2.3820  -13.5070   -2.5020 O.2   237  TYR237     -0.2715
     84  CB         3.2960  -10.5230   -1.3130 C.3   237  TYR237      0.0574
     85  CG         3.2180  -11.2260    0.0230 C.ar  237  TYR237     -0.0198
     86  CD1        3.8670  -12.4470    0.2210 C.ar  237  TYR237     -0.0009
     87  CD2        2.4880  -10.6830    1.0820 C.ar  237  TYR237     -0.0009
     88  CE1        3.7890  -13.1150    1.4290 C.ar  237  TYR237      0.0417
     89  CE2        2.4050  -11.3540    2.3130 C.ar  237  TYR237      0.0417
     90  CZ         3.0590  -12.5730    2.4640 C.ar  237  TYR237      0.1957
     91  OH         3.0050  -13.2590    3.6510 O.3   237  TYR237     -0.2866
     92  N          3.7330  -12.3250   -3.8580 N.am  238  VAL238     -0.1977
     93  CA         4.4630  -13.4670   -4.3750 C.3   238  VAL238      0.1596
     94  C          5.9100  -13.0730   -4.1650 C.2   238  VAL238      0.2287
     95  O          6.5160  -12.4730   -5.0460 O.2   238  VAL238     -0.2864
     96  CB         4.1520  -13.7350   -5.8850 C.3   238  VAL238      0.0276
     97  CG1        2.7630  -14.2560   -6.0470 C.3   238  VAL238      0.0022
     98  CG2        4.2810  -12.4620   -6.7180 C.3   238  VAL238      0.0022
     99  N          6.9090   -9.1330   -4.8620 N.3   241  ILE241     -0.1245
    100  CA         5.8460   -8.4270   -5.5770 C.3   241  ILE241      0.1561
    101  C          4.5730   -8.3870   -4.7240 C.2   241  ILE241      0.2260
    102  O          4.0420   -9.4200   -4.3220 O.2   241  ILE241     -0.2867
    103  CB         5.5580   -9.0400   -6.9550 C.3   241  ILE241      0.0252
    104  CG1        6.8160   -9.0030   -7.8380 C.3   241  ILE241      0.0019
    105  CG2        4.3510   -8.3570   -7.6310 C.3   241  ILE241      0.0019
    106  CD1        6.7090   -9.8360   -9.1190 C.3   241  ILE241      0.0001
    107  N          0.6960   -7.8510   -4.2360 N.3   243  VAL243     -0.1245
    108  CA        -0.4320   -8.2030   -5.0980 C.3   243  VAL243      0.1561
    109  C         -1.7670   -7.8640   -4.4400 C.2   243  VAL243      0.2260
    110  O         -1.9870   -8.1480   -3.2570 O.2   243  VAL243     -0.2867
    111  CB        -0.4130   -9.7060   -5.5160 C.3   243  VAL243      0.0252
    112  CG1       -1.6570  -10.0530   -6.3100 C.3   243  VAL243      0.0019
    113  CG2        0.8150  -10.0170   -6.3630 C.3   243  VAL243      0.0019
    114  N        -12.1820  -15.0950  -10.4590 N.3   256  TYR256     -0.1241
    115  CA       -10.7790  -15.5060  -10.4340 C.3   256  TYR256      0.1605
    116  C        -10.4600  -16.4760  -11.5750 C.2   256  TYR256      0.2264
    117  O         -9.3980  -16.3950  -12.1870 O.2   256  TYR256     -0.2867
    118  CB       -10.4530  -16.1380   -9.0800 C.3   256  TYR256      0.0534
    119  CG        -8.9780  -16.2150   -8.7540 C.ar  256  TYR256     -0.0201
    120  CD1       -8.2680  -15.0760   -8.3620 C.ar  256  TYR256     -0.0009
    121  CD2       -8.2950  -17.4320   -8.8160 C.ar  256  TYR256     -0.0009
    122  CE1       -6.9160  -15.1430   -8.0600 C.ar  256  TYR256      0.0417
    123  CE2       -6.9430  -17.5100   -8.5120 C.ar  256  TYR256      0.0417
    124  CZ        -6.2600  -16.3600   -8.1350 C.ar  256  TYR256      0.1957
    125  OH        -4.9210  -16.4310   -7.8250 O.3   256  TYR256     -0.2866
    126  N         -5.2310  -16.9260  -15.4070 N.3   261  VAL261     -0.1231
    127  CA        -3.9860  -16.1440  -15.4950 C.3   261  VAL261      0.1692
    128  C         -2.8260  -16.7370  -14.6830 C.2   261  VAL261      0.2592
    129  O         -1.6610  -16.5770  -15.0530 O.2   261  VAL261     -0.2718
    130  CB        -4.1950  -14.6550  -15.0870 C.3   261  VAL261      0.0266
    131  CG1       -3.1350  -13.7890  -15.7290 C.3   261  VAL261      0.0020
    132  CG2       -5.5620  -14.1570  -15.5150 C.3   261  VAL261      0.0020
    133  N         -3.1530  -17.4100  -13.5800 N.am  262  VAL262     -0.1966
    134  CA        -2.1530  -18.0460  -12.7140 C.3   262  VAL262      0.1727
    135  C         -2.0390  -19.5520  -12.9860 C.2   262  VAL262      0.2616
    136  O         -3.0440  -20.2250  -13.2340 O.2   262  VAL262     -0.2715
    137  CB        -2.4290  -17.7870  -11.1950 C.3   262  VAL262      0.0290
    138  CG1       -2.0310  -16.3780  -10.7990 C.3   262  VAL262      0.0023
    139  CG2       -3.8890  -18.0610  -10.8320 C.3   262  VAL262      0.0023
    140  N         -0.8090  -20.0640  -12.9370 N.am  263  ALA263     -0.1977
    141  CA        -0.5290  -21.4850  -13.1600 C.3   263  ALA263      0.1597
    142  C         -0.7200  -22.3090  -11.8850 C.2   263  ALA263      0.2287
    143  O         -0.3760  -21.8510  -10.7930 O.2   263  ALA263     -0.2864
    144  CB         0.8880  -21.6670  -13.6960 C.3   263  ALA263      0.0319
    145  N          0.3230  -24.8060   -9.2850 N.3   265  LEU265     -0.1245
    146  CA         1.6320  -25.2390   -8.7740 C.3   265  LEU265      0.1561
    147  C          1.9280  -26.7250   -8.9970 C.2   265  LEU265      0.2260
    148  O          2.8070  -27.0850   -9.7860 O.2   265  LEU265     -0.2867
    149  CB         1.7730  -24.9040   -7.2780 C.3   265  LEU265      0.0270
    150  CG         2.0130  -23.4700   -6.7970 C.3   265  LEU265      0.0019
    151  CD1        2.1840  -23.4600   -5.2870 C.3   265  LEU265      0.0001
    152  CD2        3.2260  -22.8310   -7.4650 C.3   265  LEU265      0.0001
    153  N          7.4310  -27.5390   -4.2030 N.3   281  ASN281     -0.1240
    154  CA         6.3450  -26.6270   -3.8360 C.3   281  ASN281      0.1653
    155  C          5.8190  -26.7750   -2.4100 C.2   281  ASN281      0.2266
    156  O          5.4300  -25.7820   -1.7880 O.2   281  ASN281     -0.2867
    157  CB         5.1980  -26.6910   -4.8420 C.3   281  ASN281      0.1155
    158  CG         5.5480  -26.0480   -6.1480 C.2   281  ASN281      0.2627
    159  OD1        6.4470  -25.2130   -6.2120 O.2   281  ASN281     -0.2716
    160  ND2        4.8500  -26.4280   -7.2040 N.am  281  ASN281     -0.0877
    161  N          7.4840  -24.6550    0.1360 N.3   284  PHE284     -0.1241
    162  CA         7.5100  -23.2160   -0.1510 C.3   284  PHE284      0.1605
    163  C          7.1650  -22.3910    1.0740 C.2   284  PHE284      0.2264
    164  O          6.1700  -22.6570    1.7410 O.2   284  PHE284     -0.2867
    165  CB         6.5770  -22.8510   -1.3090 C.3   284  PHE284      0.0534
    166  CG         6.4900  -21.3680   -1.5730 C.ar  284  PHE284     -0.0203
    167  CD1        7.5170  -20.7000   -2.2310 C.ar  284  PHE284     -0.0042
    168  CD2        5.3890  -20.6370   -1.1440 C.ar  284  PHE284     -0.0042
    169  CE1        7.4410  -19.3180   -2.4650 C.ar  284  PHE284     -0.0003
    170  CE2        5.3060  -19.2650   -1.3810 C.ar  284  PHE284     -0.0003
    171  CZ         6.3240  -18.6070   -2.0400 C.ar  284  PHE284     -0.0000
    172  N          7.0460  -18.1350    1.7810 N.3   286  PRO286     -0.2116
    173  CA         7.1790  -16.8310    1.1020 C.3   286  PRO286      0.1372
    174  C          8.2570  -15.9630    1.7210 C.2   286  PRO286      0.2244
    175  O          8.4170  -15.9610    2.9420 O.2   286  PRO286     -0.2868
    176  CB         5.8130  -16.1670    1.3220 C.3   286  PRO286      0.0268
    177  CG         4.8830  -17.2840    1.7220 C.3   286  PRO286      0.0207
    178  CD         5.7250  -18.2920    2.4230 C.3   286  PRO286      0.0892
    179  N         -5.9700   -8.2050  -11.5610 N.3   320  ARG320     -0.1231
    180  CA        -5.0920   -8.6180  -10.4790 C.3   320  ARG320      0.1694
    181  C         -3.7980   -7.8160  -10.6520 C.2   320  ARG320      0.2592
    182  O         -3.0840   -7.9840  -11.6510 O.2   320  ARG320     -0.2718
    183  CB        -4.8370  -10.1240  -10.5650 C.3   320  ARG320      0.0321
    184  CG        -4.0660  -10.7280   -9.3990 C.3   320  ARG320      0.0489
    185  CD        -4.0230  -12.2570   -9.5510 C.3   320  ARG320      0.2205
    186  NE        -3.2050  -12.9350   -8.5450 N.pl3 320  ARG320     -0.0865
    187  CZ        -1.9520  -13.3380   -8.7330 C.cat 320  ARG320      0.5346
    188  NH1       -1.3480  -13.1230   -9.8940 N.pl3 320  ARG320      0.1354
    189  NH2       -1.3010  -13.9590   -7.7500 N.pl3 320  ARG320      0.1354
    190  N         -3.5120   -6.9350   -9.6980 N.am  321  ILE321     -0.1966
    191  CA        -2.4360   -5.9410   -9.8660 C.3   321  ILE321      0.1727
    192  C         -1.1910   -6.2990   -9.0620 C.2   321  ILE321      0.2616
    193  O         -1.2710   -6.6350   -7.8800 O.2   321  ILE321     -0.2715
    194  CB        -2.9190   -4.4970   -9.5240 C.3   321  ILE321      0.0290
    195  CG1       -4.2030   -4.1830  -10.2960 C.3   321  ILE321      0.0022
    196  CG2       -1.8230   -3.4420   -9.8160 C.3   321  ILE321      0.0023
    197  CD1       -4.9970   -3.0300   -9.7480 C.3   321  ILE321      0.0001
    198  N         -0.0400   -6.2280   -9.7180 N.am  322  GLY322     -0.1955
    199  CA         1.2270   -6.4560   -9.0500 C.3   322  GLY322      0.1869
    200  C          2.0960   -5.2100   -9.0320 C.2   322  GLY322      0.2309
    201  O          2.1720   -4.4940  -10.0310 O.2   322  GLY322     -0.2863
    202  N          6.0610   -4.1930   -8.0880 N.3   324  TRP324     -0.1241
    203  CA         7.4100   -4.6880   -7.8060 C.3   324  TRP324      0.1605
    204  C          8.0780   -3.8910   -6.6870 C.2   324  TRP324      0.2264
    205  O          7.7470   -2.7200   -6.4610 O.2   324  TRP324     -0.2867
    206  CB         8.2610   -4.5860   -9.0630 C.3   324  TRP324      0.0550
    207  CG         8.1850   -5.7470  -10.0270 C.ar  324  TRP324      0.0003
    208  CD1        9.2470   -6.5080  -10.4770 C.ar  324  TRP324      0.0946
    209  CD2        7.0160   -6.2710  -10.6880 C.ar  324  TRP324      0.0152
    210  NE1        8.8110   -7.4530  -11.3740 N.ar  324  TRP324     -0.2442
    211  CE2        7.4520   -7.3450  -11.5190 C.ar  324  TRP324      0.0810
    212  CE3        5.6540   -5.9360  -10.6730 C.ar  324  TRP324      0.0012
    213  CZ2        6.5700   -8.1010  -12.3020 C.ar  324  TRP324      0.0191
    214  CZ3        4.7700   -6.6840  -11.4670 C.ar  324  TRP324      0.0001
    215  CH2        5.2380   -7.7500  -12.2740 C.ar  324  TRP324      0.0015
    216  N          2.1640   -3.9250  -12.7760 N.3   331  HIS331     -0.1241
    217  CA         1.5380   -4.7300  -13.8290 C.3   331  HIS331      0.1621
    218  C          0.1660   -5.2470  -13.3970 C.2   331  HIS331      0.2264
    219  O          0.0180   -5.7890  -12.2980 O.2   331  HIS331     -0.2867
    220  CB         2.4370   -5.9130  -14.2030 C.3   331  HIS331      0.0745
    221  CG         1.8940   -6.7660  -15.3110 C.ar  331  HIS331      0.0817
    222  ND1        1.1970   -7.9380  -15.0800 N.ar  331  HIS331     -0.2268
    223  CD2        1.9480   -6.6200  -16.6560 C.ar  331  HIS331      0.1154
    224  CE1        0.8440   -8.4700  -16.2380 C.ar  331  HIS331      0.1986
    225  NE2        1.2890   -7.6910  -17.2090 N.ar  331  HIS331     -0.2212
    226  N         -2.9260   -7.9330  -14.3640 N.3   333  GLN333     -0.1245
    227  CA        -3.3790   -9.0870  -15.1330 C.3   333  GLN333      0.1566
    228  C         -4.8840   -9.0010  -15.3640 C.2   333  GLN333      0.2260
    229  O         -5.6490   -8.8290  -14.4130 O.2   333  GLN333     -0.2867
    230  CB        -3.0680  -10.3780  -14.3920 C.3   333  GLN333      0.0367
    231  CG        -1.6050  -10.7190  -14.2520 C.3   333  GLN333      0.0905
    232  CD        -1.3960  -11.9690  -13.4050 C.2   333  GLN333      0.2608
    233  OE1       -1.9900  -12.1150  -12.3340 O.2   333  GLN333     -0.2717
    234  NE2       -0.5510  -12.8800  -13.8870 N.am  333  GLN333     -0.0878
@<TRIPOS>BOND
     1   225   223   ar
     2   225   224   ar
     3   223   221   ar
     4   224   222   ar
     5   131   130    1
     6   132   130    1
     7   127   126    1
     8   127   130    1
     9   127   128    1
    10   228   227    1
    11   228   229    2
    12   221   222   ar
    13   221   220    1
    14   227   230    1
    15   227   226    1
    16   129   128    2
    17   128   133   am
    18   230   231    1
    19   231   232    1
    20   220   217    1
    21   234   232   am
    22   217   218    1
    23   217   216    1
    24   144   141    1
    25   133   134    1
    26   232   233    2
    27   218   219    2
    28   136   135    2
    29   141   140    1
    30   141   142    1
    31   135   140   am
    32   135   134    1
    33   134   137    1
    34   213   215   ar
    35   213   211   ar
    36   215   214   ar
    37   117   116    2
    38   142   143    2
    39   182   181    2
    40   116   115    1
    41   179   180    1
    42   211   210   ar
    43   211   209   ar
    44   214   212   ar
    45   210   208   ar
    46   137   139    1
    47   137   138    1
    48   209   212   ar
    49   209   207   ar
    50   181   180    1
    51   181   190   am
    52   183   180    1
    53   183   184    1
    54   208   207   ar
    55   114   115    1
    56   115   118    1
    57   195   197    1
    58   195   194    1
    59   201   200    2
    60   207   206    1
    61   188   187    1
    62   191   190    1
    63   191   194    1
    64   191   192    1
    65   196   194    1
    66   148   147    2
    67   198   192   am
    68   198   199    1
    69   185   184    1
    70   185   186    1
    71   145   146    1
    72   106   104    1
    73   118   119    1
    74   206   203    1
    75   192   193    2
    76   199   200    1
    77   147   146    1
    78   121   119   ar
    79   121   123   ar
    80   146   149    1
    81   119   120   ar
    82   187   186    2
    83   187   189    1
    84   123   124   ar
    85   120   122   ar
    86    62    60   am
    87   124   122   ar
    88   124   125    1
    89   202   203    1
    90   104   103    1
    91   203   204    1
    92   105   103    1
    93   152   150    1
    94   149   150    1
    95   160   158   am
    96    60    61    2
    97    60    59    1
    98   103   100    1
    99   150   151    1
   100    98    96    1
   101   204   205    2
   102    59    56    1
   103   113   111    1
   104   112   111    1
   105   159   158    2
   106   158   157    1
   107    97    96    1
   108    96    93    1
   109    56    57    1
   110    56    55    1
   111    58    57    2
   112   100    99    1
   113   100   101    1
   114    37    38   ar
   115    37    35   ar
   116   111   108    1
   117   108   109    1
   118   108   107    1
   119    38    36   ar
   120    95    94    2
   121    53    51    1
   122    55    49   am
   123   157   154    1
   124    50    49    2
   125   101   102    2
   126    52    51    1
   127    52    54    1
   128    35    33   ar
   129   109   110    2
   130    49    48    1
   131    93    94    1
   132    93    92    1
   133    43    40    1
   134    43    44    1
   135    69    68    2
   136   153   154    1
   137    51    48    1
   138    46    44   am
   139    92    82   am
   140    67    68    1
   141    67    64    1
   142   154   155    1
   143    36    34   ar
   144    40    41    1
   145    40    39    1
   146    31    30    2
   147    66    65    2
   148    48    47    1
   149    68    70   am
   150    44    45    2
   151    33    34   ar
   152    33    32    1
   153    42    41    2
   154    63    64    1
   155    82    83    2
   156    82    81    1
   157    64    65    1
   158    65    71   am
   159    30    39   am
   160    30    29    1
   161   169   167   ar
   162   169   171   ar
   163   155   156    2
   164    81    80    1
   165    81    84    1
   166    32    29    1
   167   167   166   ar
   168   171   170   ar
   169    71    72    1
   170    80    78   am
   171    79    78    2
   172    29    28    1
   173   166   165    1
   174   166   168   ar
   175    72    73    1
   176    72    75    1
   177    78    77    1
   178   170   168   ar
   179    76    73   am
   180    76    77    1
   181    84    85    1
   182   165   162    1
   183    73    74    2
   184   162   161    1
   185   162   163    1
   186    85    86   ar
   187    85    87   ar
   188    86    88   ar
   189   163   164    2
   190    87    89   ar
   191   173   176    1
   192   173   174    1
   193   173   172    1
   194   176   177    1
   195    88    90   ar
   196    23    22    2
   197    24    21    1
   198    24    25    1
   199   174   175    2
   200   177   178    1
   201    18    17    2
   202   172   178    1
   203    21    22    1
   204    21    20    1
   205    89    90   ar
   206     8     6    1
   207    10     9    1
   208    10    13    1
   209    10    11    1
   210    90    91    1
   211    17    20   am
   212    17    16    1
   213    25    27   ar
   214    25    26   ar
   215    13    14    1
   216    11    12    2
   217    11    15   am
   218     6     5    1
   219     7     5    1
   220    15    16    1
   221     5     2    1
   222    16    19    1
   223     2     1    1
   224     2     3    1
   225     3     4    2
