@<TRIPOS>MOLECULE
tmp/3h9jA01.pdb
 182 173 0 0 0
SMALL
GASTEIGER

@<TRIPOS>ATOM
      1  N        -10.9630  -12.2850    6.2690 N.3   121  LEU121     -0.1231
      2  CA       -10.6500  -13.7180    6.2280 C.3   121  LEU121      0.1693
      3  C         -9.1410  -13.8820    6.1150 C.2   121  LEU121      0.2593
      4  O         -8.5760  -13.7380    5.0300 O.2   121  LEU121     -0.2718
      5  CB       -11.3860  -14.4050    5.0590 C.3   121  LEU121      0.0284
      6  CG       -11.4590  -15.9410    5.0060 C.3   121  LEU121      0.0019
      7  CD1      -11.9400  -16.5310    6.3150 C.3   121  LEU121      0.0001
      8  CD2      -12.3530  -16.4120    3.8700 C.3   121  LEU121      0.0001
      9  N         -8.4860  -14.1630    7.2390 N.am  122  GLY122     -0.1942
     10  CA        -7.0240  -14.1240    7.3030 C.3   122  GLY122      0.2014
     11  C         -6.5790  -12.9140    8.0940 C.2   122  GLY122      0.2639
     12  O         -6.7700  -11.7760    7.6580 O.2   122  GLY122     -0.2714
     13  N         -6.0140  -13.1570    9.2760 N.am  123  CYS123     -0.1953
     14  CA        -5.6100  -12.0790   10.1840 C.3   123  CYS123      0.1843
     15  C         -4.0980  -11.9760   10.3830 C.2   123  CYS123      0.2626
     16  O         -3.6270  -11.5430   11.4370 O.2   123  CYS123     -0.2714
     17  CB        -6.3340  -12.1990   11.5360 C.3   123  CYS123      0.0997
     18  SG        -8.1440  -11.9320   11.4340 S.3   123  CYS123     -0.0797
     19  N         -3.3410  -12.3590    9.3610 N.am  124  GLY124     -0.1940
     20  CA        -1.9010  -12.2050    9.3920 C.3   124  GLY124      0.2014
     21  C         -1.5140  -10.8060    8.9720 C.2   124  GLY124      0.2639
     22  O         -2.2170   -9.8440    9.2940 O.2   124  GLY124     -0.2714
     23  N         -0.3950  -10.6980    8.2530 N.am  125  GLY125     -0.1939
     24  CA         0.1890   -9.4120    7.8480 C.3   125  GLY125      0.2014
     25  C         -0.7400   -8.5210    7.0450 C.2   125  GLY125      0.2638
     26  O         -0.8200   -7.3280    7.2950 O.2   125  GLY125     -0.2714
     27  N         -1.4370   -9.0980    6.0720 N.am  126  ILE126     -0.1977
     28  CA        -2.3850   -8.3370    5.2530 C.3   126  ILE126      0.1596
     29  C         -3.6240   -7.9010    6.0450 C.2   126  ILE126      0.2287
     30  O         -4.0060   -6.7380    5.9980 O.2   126  ILE126     -0.2864
     31  CB        -2.8020   -9.1250    3.9910 C.3   126  ILE126      0.0276
     32  CG1       -1.5810   -9.3880    3.0850 C.3   126  ILE126      0.0022
     33  CG2       -3.9610   -8.4190    3.2450 C.3   126  ILE126      0.0022
     34  CD1       -1.1050   -8.1780    2.2820 C.3   126  ILE126      0.0001
     35  N        -11.6260  -13.2520   11.0700 N.3   145  ILE145     -0.1231
     36  CA       -11.6380  -14.7100   10.9670 C.3   145  ILE145      0.1692
     37  C        -10.2260  -15.2650   10.8110 C.2   145  ILE145      0.2592
     38  O         -9.4710  -14.8290    9.9380 O.2   145  ILE145     -0.2718
     39  CB       -12.5950  -15.1930    9.8550 C.3   145  ILE145      0.0266
     40  CG1      -13.9950  -14.5970   10.1010 C.3   145  ILE145      0.0019
     41  CG2      -12.6240  -16.7300    9.7940 C.3   145  ILE145      0.0020
     42  CD1      -14.9580  -14.6810    8.9390 C.3   145  ILE145      0.0001
     43  N         -9.8910  -16.2060   11.6950 N.am  146  ASP146     -0.1974
     44  CA        -8.5560  -16.7920   11.8360 C.3   146  ASP146      0.1709
     45  C         -8.5900  -17.7620   13.0220 C.2   146  ASP146      0.2293
     46  O         -9.2990  -17.5160   14.0030 O.2   146  ASP146     -0.2864
     47  CB        -7.5140  -15.7000   12.1100 C.3   146  ASP146      0.1436
     48  CG        -6.1130  -16.1010   11.6920 C.2   146  ASP146      0.3671
     49  OD1       -5.6040  -17.1290   12.1840 O.co2 146  ASP146     -0.2456
     50  OD2       -5.5050  -15.3710   10.8830 O.co2 146  ASP146     -0.2456
     51  N         -5.3690  -19.2640   14.0250 N.3   148  ASP148     -0.1239
     52  CA        -3.9870  -19.2520   14.5220 C.3   148  ASP148      0.1674
     53  C         -3.7310  -18.3540   15.7410 C.2   148  ASP148      0.2266
     54  O         -4.5160  -17.4730   16.0540 O.2   148  ASP148     -0.2867
     55  CB        -3.0180  -18.8740   13.4010 C.3   148  ASP148      0.1410
     56  CG        -2.8050  -19.9960   12.4040 C.2   148  ASP148      0.3668
     57  OD1       -3.7690  -20.3710   11.6860 O.co2 148  ASP148     -0.2456
     58  OD2       -1.6540  -20.4870   12.3260 O.co2 148  ASP148     -0.2456
     59  N          5.8030  -12.8850   13.8050 N.3   154  ASN154     -0.1240
     60  CA         4.6880  -12.1320   13.2220 C.3   154  ASN154      0.1653
     61  C          4.9550  -10.6430   13.3200 C.2   154  ASN154      0.2266
     62  O          4.4310   -9.8480   12.5220 O.2   154  ASN154     -0.2867
     63  CB         3.3810  -12.4270   13.9750 C.3   154  ASN154      0.1155
     64  CG         2.9030  -13.8770   13.8310 C.2   154  ASN154      0.2627
     65  OD1        2.0130  -14.3060   14.5680 O.2   154  ASN154     -0.2716
     66  ND2        3.4790  -14.6280   12.8840 N.am  154  ASN154     -0.0877
     67  N          5.5200   -7.8720   10.3370 N.3   157  ARG157     -0.1231
     68  CA         4.5010   -7.3200    9.4390 C.3   157  ARG157      0.1694
     69  C          3.2260   -6.9120   10.1880 C.2   157  ARG157      0.2591
     70  O          2.5450   -5.9540    9.8050 O.2   157  ARG157     -0.2718
     71  CB         4.0820   -8.3730    8.3990 C.3   157  ARG157      0.0321
     72  CG         5.0870   -8.7370    7.3270 C.3   157  ARG157      0.0489
     73  CD         5.7730  -10.0610    7.6180 C.3   157  ARG157      0.2205
     74  NE         4.8650  -11.1950    7.8320 N.pl3 157  ARG157     -0.0865
     75  CZ         5.1310  -12.2020    8.6690 C.cat 157  ARG157      0.5346
     76  NH1        6.2550  -12.2110    9.3740 N.pl3 157  ARG157      0.1354
     77  NH2        4.2770  -13.2040    8.8170 N.pl3 157  ARG157      0.1354
     78  N          2.9050   -7.6780   11.2340 N.am  158  GLN158     -0.1979
     79  CA         1.6140   -7.6340   11.9270 C.3   158  GLN158      0.1601
     80  C          1.6170   -6.5490   12.9960 C.2   158  GLN158      0.2287
     81  O          1.8590   -6.7920   14.1740 O.2   158  GLN158     -0.2864
     82  CB         1.2390   -9.0410   12.4310 C.3   158  GLN158      0.0394
     83  CG         0.9750   -9.9990   11.2390 C.3   158  GLN158      0.0908
     84  CD         1.0080  -11.4970   11.5540 C.2   158  GLN158      0.2608
     85  OE1        0.4020  -11.9650   12.5200 O.2   158  GLN158     -0.2717
     86  NE2        1.7000  -12.2590   10.7060 N.am  158  GLN158     -0.0878
     87  N         -4.9380  -14.3470   17.3100 N.3   170  LYS170     -0.1245
     88  CA        -4.7780  -13.1550   16.4750 C.3   170  LYS170      0.1561
     89  C         -6.0370  -12.2920   16.5030 C.2   170  LYS170      0.2260
     90  O         -5.9580  -11.0910   16.7430 O.2   170  LYS170     -0.2867
     91  CB        -4.4120  -13.5340   15.0320 C.3   170  LYS170      0.0271
     92  CG        -3.0650  -14.2420   14.9180 C.3   170  LYS170      0.0035
     93  CD        -2.6630  -14.4780   13.4810 C.3   170  LYS170      0.0206
     94  CE        -1.4110  -15.3320   13.4060 C.3   170  LYS170      0.1093
     95  NZ        -0.8870  -15.3810   12.0180 N.3   170  LYS170     -0.1314
     96  N        -12.0860  -19.9550   13.2320 N.3   192  LEU192     -0.1231
     97  CA       -12.2990  -20.8690   12.1220 C.3   192  LEU192      0.1693
     98  C        -11.0250  -21.0590   11.3180 C.2   192  LEU192      0.2592
     99  O        -10.3250  -20.0920   10.9900 O.2   192  LEU192     -0.2718
    100  CB       -13.4070  -20.3330   11.2080 C.3   192  LEU192      0.0284
    101  CG       -13.9120  -21.1650   10.0250 C.3   192  LEU192      0.0019
    102  CD1      -14.9710  -22.1520   10.4770 C.3   192  LEU192      0.0001
    103  CD2      -14.4760  -20.2520    8.9660 C.3   192  LEU192      0.0001
    104  N        -10.7150  -22.3140   11.0180 N.am  193  ASN193     -0.1960
    105  CA        -9.7090  -22.6090   10.0080 C.3   193  ASN193      0.1819
    106  C        -10.3490  -23.3680    8.8560 C.2   193  ASN193      0.2621
    107  O        -11.0570  -24.3520    9.0650 O.2   193  ASN193     -0.2715
    108  CB        -8.4990  -23.3580   10.5840 C.3   193  ASN193      0.1195
    109  CG        -7.1910  -22.9950    9.8650 C.2   193  ASN193      0.2630
    110  OD1       -6.7590  -23.7080    8.9610 O.2   193  ASN193     -0.2716
    111  ND2       -6.5690  -21.8740   10.2610 N.am  193  ASN193     -0.0877
    112  N        -10.1100  -22.8830    7.6420 N.am  194  ILE194     -0.1977
    113  CA       -10.7460  -23.4330    6.4480 C.3   194  ILE194      0.1596
    114  C         -9.9660  -24.6330    5.9000 C.2   194  ILE194      0.2287
    115  O         -8.9540  -24.4890    5.2000 O.2   194  ILE194     -0.2864
    116  CB       -11.0350  -22.3250    5.4000 C.3   194  ILE194      0.0276
    117  CG1      -11.9990  -21.3020    6.0170 C.3   194  ILE194      0.0022
    118  CG2      -11.6280  -22.9240    4.1250 C.3   194  ILE194      0.0022
    119  CD1      -11.9910  -19.9580    5.3680 C.3   194  ILE194      0.0001
    120  N         -7.0160  -12.8320    2.5470 N.3   212  SER212     -0.1202
    121  CA        -5.5600  -12.9650    2.4800 C.3   212  SER212      0.2020
    122  C         -5.0090  -14.3160    2.9830 C.2   212  SER212      0.2619
    123  O         -3.8270  -14.6250    2.7870 O.2   212  SER212     -0.2717
    124  CB        -4.8660  -11.7810    3.1490 C.3   212  SER212      0.2103
    125  OG        -5.3010  -11.6090    4.4770 O.3   212  SER212     -0.2182
    126  N         -5.8540  -15.1230    3.6080 N.am  213  ALA213     -0.1965
    127  CA        -5.4610  -16.4930    3.9500 C.3   213  ALA213      0.1728
    128  C         -5.0260  -17.2100    2.6700 C.2   213  ALA213      0.2616
    129  O         -5.6920  -17.0890    1.6350 O.2   213  ALA213     -0.2715
    130  CB        -6.6190  -17.2330    4.6380 C.3   213  ALA213      0.0334
    131  N         -3.8970  -17.9150    2.7140 N.am  214  ASP214     -0.1957
    132  CA        -3.3670  -18.5560    1.5020 C.3   214  ASP214      0.1840
    133  C         -3.0110  -20.0280    1.7080 C.2   214  ASP214      0.2622
    134  O         -2.1970  -20.5890    0.9620 O.2   214  ASP214     -0.2715
    135  CB        -2.1590  -17.7570    0.9400 C.3   214  ASP214      0.1450
    136  CG        -1.8000  -18.0980   -0.4870 C.2   214  ASP214      0.3671
    137  OD1       -2.4610  -18.8790   -1.1520 O.co2 214  ASP214     -0.2456
    138  OD2       -0.8880  -17.4670   -1.0290 O.co2 214  ASP214     -0.2456
    139  N         -3.6340  -20.6480    2.7100 N.am  215  HIS215     -0.1973
    140  CA        -3.4660  -22.0780    2.9760 C.3   215  HIS215      0.1656
    141  C         -4.8070  -22.8260    3.0970 C.2   215  HIS215      0.2291
    142  O         -5.6840  -22.3860    3.8340 O.2   215  HIS215     -0.2864
    143  CB        -2.6200  -22.2820    4.2310 C.3   215  HIS215      0.0771
    144  CG        -1.1480  -22.1810    3.9860 C.ar  215  HIS215      0.0820
    145  ND1       -0.5150  -20.9820    3.7270 N.ar  215  HIS215     -0.2267
    146  CD2       -0.1820  -23.1300    3.9570 C.ar  215  HIS215      0.1154
    147  CE1        0.7750  -21.1990    3.5460 C.ar  215  HIS215      0.1986
    148  NE2        1.0040  -22.4940    3.6780 N.ar  215  HIS215     -0.2212
    149  N         -7.0850  -22.5190   -1.6340 N.3   219  LEU219     -0.1245
    150  CA        -8.0300  -21.8180   -0.7600 C.3   219  LEU219      0.1561
    151  C         -8.8200  -20.7470   -1.5070 C.2   219  LEU219      0.2260
    152  O        -10.0370  -20.6340   -1.3580 O.2   219  LEU219     -0.2867
    153  CB        -7.2990  -21.1910    0.4380 C.3   219  LEU219      0.0270
    154  CG        -8.1200  -20.3090    1.3960 C.3   219  LEU219      0.0019
    155  CD1       -9.2830  -21.0510    2.0270 C.3   219  LEU219      0.0001
    156  CD2       -7.2390  -19.7630    2.4720 C.3   219  LEU219      0.0001
    157  N          0.9850  -11.3880   -1.6950 N.3   239  TYR239     -0.1241
    158  CA         2.2800  -11.2110   -2.2990 C.3   239  TYR239      0.1605
    159  C          2.7680  -12.5410   -2.8340 C.2   239  TYR239      0.2264
    160  O          2.3670  -13.6140   -2.3490 O.2   239  TYR239     -0.2867
    161  CB         3.3000  -10.6750   -1.2800 C.3   239  TYR239      0.0534
    162  CG         3.1140  -11.2420    0.1020 C.ar  239  TYR239     -0.0201
    163  CD1        3.6790  -12.4670    0.4580 C.ar  239  TYR239     -0.0009
    164  CD2        2.3410  -10.5650    1.0510 C.ar  239  TYR239     -0.0009
    165  CE1        3.4850  -13.0020    1.7290 C.ar  239  TYR239      0.0417
    166  CE2        2.1450  -11.0870    2.3200 C.ar  239  TYR239      0.0417
    167  CZ         2.7210  -12.3070    2.6520 C.ar  239  TYR239      0.1957
    168  OH         2.5240  -12.8260    3.9160 O.3   239  TYR239     -0.2866
    169  N          7.0380  -17.9580    1.6040 N.3   279  PRO279     -0.2116
    170  CA         7.3050  -16.7240    0.8830 C.3   279  PRO279      0.1372
    171  C          8.4070  -15.9250    1.5660 C.2   279  PRO279      0.2244
    172  O          8.5110  -15.9410    2.7950 O.2   279  PRO279     -0.2868
    173  CB         5.9660  -15.9660    0.9700 C.3   279  PRO279      0.0268
    174  CG         4.9600  -16.9750    1.4200 C.3   279  PRO279      0.0207
    175  CD         5.7210  -17.9240    2.2680 C.3   279  PRO279      0.0892
    176  N          8.7770  -13.1170    2.9070 N.3   281  THR281     -0.1218
    177  CA         7.9600  -12.0230    3.4490 C.3   281  THR281      0.1862
    178  C          8.8320  -10.8080    3.7360 C.2   281  THR281      0.2287
    179  O          9.9880  -10.9340    4.1570 O.2   281  THR281     -0.2866
    180  CB         7.2370  -12.4130    4.7710 C.3   281  THR281      0.1770
    181  OG1        8.2140  -12.8300    5.7440 O.3   281  THR281     -0.2211
    182  CG2        6.2490  -13.5410    4.5440 C.3   281  THR281      0.0375
@<TRIPOS>BOND
     1   159   160    2
     2   159   158    1
     3   158   157    1
     4   158   161    1
     5   149   150    1
     6   151   152    2
     7   151   150    1
     8   161   162    1
     9   137   136   ar
    10   138   136   ar
    11   150   153    1
    12   136   135    1
    13   162   163   ar
    14   162   164   ar
    15   153   154    1
    16   163   165   ar
    17   170   173    1
    18   170   171    1
    19   170   169    1
    20   135   132    1
    21   134   133    2
    22   173   174    1
    23   164   166   ar
    24   154   155    1
    25   154   156    1
    26   174   175    1
    27   132   133    1
    28   132   131    1
    29   171   172    2
    30   169   175    1
    31   129   128    2
    32   133   139   am
    33   165   167   ar
    34    34    32    1
    35   166   167   ar
    36   121   120    1
    37   121   122    1
    38   121   124    1
    39   167   168    1
    40   128   131   am
    41   128   127    1
    42   139   140    1
    43   123   122    2
    44   176   177    1
    45   140   141    1
    46   140   143    1
    47   122   126   am
    48    32    31    1
    49   141   142    2
    50   124   125    1
    51    33    31    1
    52   177   178    1
    53   177   180    1
    54   147   148   ar
    55   147   145   ar
    56   126   127    1
    57   148   146   ar
    58   145   144   ar
    59   178   179    2
    60     8     6    1
    61   127   130    1
    62   146   144   ar
    63   144   143    1
    64    31    28    1
    65   118   116    1
    66   182   180    1
    67   180   181    1
    68     6     5    1
    69     6     7    1
    70     4     3    2
    71     5     2    1
    72   115   114    2
    73    28    29    1
    74    28    27    1
    75   119   117    1
    76   116   117    1
    77   116   113    1
    78   114   113    1
    79    30    29    2
    80    27    25   am
    81     3     2    1
    82     3     9   am
    83     2     1    1
    84   113   112    1
    85    25    26    2
    86    25    24    1
    87     9    10    1
    88    10    11    1
    89    72    73    1
    90    72    71    1
    91    73    74    1
    92   112   106   am
    93    12    11    2
    94    74    75    2
    95    24    23    1
    96    11    13   am
    97    23    21   am
    98    71    68    1
    99    75    77    1
   100    75    76    1
   101   106   107    2
   102   106   105    1
   103    42    40    1
   104   110   109    2
   105   103   101    1
   106    21    22    2
   107    21    20    1
   108    13    14    1
   109    19    20    1
   110    19    15   am
   111    68    69    1
   112    68    67    1
   113    41    39    1
   114    70    69    2
   115    39    40    1
   116    39    36    1
   117   109   111   am
   118   109   108    1
   119    38    37    2
   120   105   108    1
   121   105   104    1
   122   101   102    1
   123   101   100    1
   124    14    15    1
   125    14    17    1
   126    69    78   am
   127    15    16    2
   128    86    84   am
   129    37    36    1
   130    37    43   am
   131    50    48   ar
   132    36    35    1
   133    99    98    2
   134   104    98   am
   135   100    97    1
   136    78    79    1
   137    83    84    1
   138    83    82    1
   139    98    97    1
   140    18    17    1
   141    84    85    2
   142    57    56   ar
   143    48    47    1
   144    48    49   ar
   145    43    44    1
   146    44    47    1
   147    44    45    1
   148    79    82    1
   149    79    80    1
   150    95    94    1
   151    97    96    1
   152    58    56   ar
   153    56    55    1
   154    62    61    2
   155    66    64   am
   156    80    81    2
   157    45    46    2
   158    60    61    1
   159    60    59    1
   160    60    63    1
   161    55    52    1
   162    94    93    1
   163    93    92    1
   164    64    63    1
   165    64    65    2
   166    51    52    1
   167    52    53    1
   168    92    91    1
   169    91    88    1
   170    53    54    2
   171    88    89    1
   172    88    87    1
   173    89    90    2
