@<TRIPOS>MOLECULE
tmp/3h9jD01.pdb
 106 99 0 0 0
SMALL
GASTEIGER

@<TRIPOS>ATOM
      1  N         27.1300   -3.7540   52.1640 N.3   121  GLY121     -0.1210
      2  CA        28.1200   -3.8070   51.1020 C.3   121  GLY121      0.1956
      3  C         28.1420   -2.4930   50.3570 C.2   121  GLY121      0.2612
      4  O         27.9490   -1.4370   50.9630 O.2   121  GLY121     -0.2717
      5  N         28.3710   -2.5590   49.0490 N.am  122  GLY122     -0.1942
      6  CA        28.4450   -1.3590   48.2060 C.3   122  GLY122      0.2014
      7  C         27.1780   -0.5080   48.1890 C.2   122  GLY122      0.2638
      8  O         27.2480    0.7230   48.3050 O.2   122  GLY122     -0.2714
      9  N         26.0310   -1.1760   48.0380 N.am  123  ILE123     -0.1977
     10  CA        24.7220   -0.5360   48.0020 C.3   123  ILE123      0.1596
     11  C         24.3410    0.0250   49.3720 C.2   123  ILE123      0.2287
     12  O         23.9950    1.1990   49.4850 O.2   123  ILE123     -0.2864
     13  CB        23.6190   -1.5140   47.4930 C.3   123  ILE123      0.0276
     14  CG1       23.9070   -2.0070   46.0650 C.3   123  ILE123      0.0022
     15  CG2       22.1880   -0.9030   47.6510 C.3   123  ILE123      0.0022
     16  CD1       23.7240   -0.9810   44.9910 C.3   123  ILE123      0.0001
     17  N         29.7370   -9.4780   57.5970 N.3   145  ASP145     -0.1239
     18  CA        31.0050   -9.4810   56.8640 C.3   145  ASP145      0.1674
     19  C         32.0180   -8.5090   57.4590 C.2   145  ASP145      0.2266
     20  O         31.6460   -7.5340   58.1230 O.2   145  ASP145     -0.2867
     21  CB        30.7840   -9.1340   55.3830 C.3   145  ASP145      0.1410
     22  CG        31.1230  -10.2900   54.4330 C.2   145  ASP145      0.3668
     23  OD1       30.8180  -11.4630   54.7610 O.co2 145  ASP145     -0.2456
     24  OD2       31.6910  -10.0190   53.3430 O.co2 145  ASP145     -0.2456
     25  N         37.0460   -4.0590   48.9240 N.3   151  ASN151     -0.1240
     26  CA        35.8090   -3.2900   49.1840 C.3   151  ASN151      0.1653
     27  C         35.8820   -1.8170   48.7820 C.2   151  ASN151      0.2266
     28  O         34.8630   -1.2220   48.4360 O.2   151  ASN151     -0.2867
     29  CB        35.4120   -3.3500   50.6700 C.3   151  ASN151      0.1155
     30  CG        34.9810   -4.7500   51.1280 C.2   151  ASN151      0.2627
     31  OD1       34.9320   -5.6990   50.3370 O.2   151  ASN151     -0.2716
     32  ND2       34.6650   -4.8750   52.4170 N.am  151  ASN151     -0.0877
     33  N         34.0700    0.5380   45.9690 N.3   154  ARG154     -0.1231
     34  CA        32.6660    0.9710   46.0180 C.3   154  ARG154      0.1694
     35  C         32.2190    1.4500   47.3970 C.2   154  ARG154      0.2591
     36  O         31.3130    2.2760   47.5200 O.2   154  ARG154     -0.2718
     37  CB        31.7460   -0.1850   45.6000 C.3   154  ARG154      0.0321
     38  CG        32.0360   -0.7740   44.2250 C.3   154  ARG154      0.0489
     39  CD        31.9790   -2.2980   44.2690 C.3   154  ARG154      0.2205
     40  NE        33.0080   -2.8460   45.1640 N.pl3 154  ARG154     -0.0865
     41  CZ        32.8530   -3.9130   45.9450 C.cat 154  ARG154      0.5346
     42  NH1       31.6980   -4.5810   45.9770 N.pl3 154  ARG154      0.1354
     43  NH2       33.8590   -4.3100   46.7090 N.pl3 154  ARG154      0.1354
     44  N         32.8400    0.9130   48.4360 N.am  155  GLN155     -0.1979
     45  CA        32.3090    1.0460   49.7860 C.3   155  GLN155      0.1601
     46  C         32.8530    2.2910   50.4560 C.2   155  GLN155      0.2287
     47  O         33.8110    2.2680   51.2420 O.2   155  GLN155     -0.2864
     48  CB        32.4900   -0.2610   50.5500 C.3   155  GLN155      0.0394
     49  CG        31.6230   -1.3470   49.8900 C.3   155  GLN155      0.0908
     50  CD        32.0120   -2.7790   50.2050 C.2   155  GLN155      0.2608
     51  OE1       32.2210   -3.1410   51.3610 O.2   155  GLN155     -0.2717
     52  NE2       32.0780   -3.6120   49.1680 N.am  155  GLN155     -0.0878
     53  N         31.9020   -4.5760   58.9180 N.3   167  LYS167     -0.1245
     54  CA        31.3480   -3.5680   57.9900 C.3   167  LYS167      0.1561
     55  C         30.3860   -2.6410   58.7240 C.2   167  LYS167      0.2260
     56  O         30.4880   -1.4230   58.6340 O.2   167  LYS167     -0.2867
     57  CB        30.6290   -4.2170   56.8120 C.3   167  LYS167      0.0271
     58  CG        31.5440   -4.8750   55.7990 C.3   167  LYS167      0.0035
     59  CD        30.7520   -5.2650   54.5750 C.3   167  LYS167      0.0206
     60  CE        31.6050   -6.0160   53.5870 C.3   167  LYS167      0.1093
     61  NZ        30.7880   -6.4350   52.4140 N.3   167  LYS167     -0.1314
     62  N         19.8750   -5.3790   49.8990 N.3   209  SER209     -0.1202
     63  CA        20.9690   -5.4260   48.9260 C.3   209  SER209      0.2020
     64  C         21.8720   -6.6520   49.1090 C.2   209  SER209      0.2619
     65  O         22.8140   -6.8660   48.3370 O.2   209  SER209     -0.2717
     66  CB        21.8000   -4.1520   49.0400 C.3   209  SER209      0.2103
     67  OG        21.9650   -3.7960   50.4040 O.3   209  SER209     -0.2182
     68  N         21.5830   -7.4570   50.1300 N.am  210  ALA210     -0.1965
     69  CA        22.3040   -8.7180   50.3430 C.3   210  ALA210      0.1728
     70  C         22.0070   -9.7090   49.1970 C.2   210  ALA210      0.2616
     71  O         20.8450   -9.9110   48.8210 O.2   210  ALA210     -0.2715
     72  CB        21.9510   -9.3030   51.6930 C.3   210  ALA210      0.0334
     73  N         23.0650  -10.3060   48.6480 N.am  211  ASP211     -0.1971
     74  CA        23.0080  -11.0290   47.3680 C.3   211  ASP211      0.1709
     75  C         23.1210  -12.5590   47.4600 C.2   211  ASP211      0.2293
     76  O         22.8620  -13.2590   46.4750 O.2   211  ASP211     -0.2864
     77  CB        24.1160  -10.5150   46.4400 C.3   211  ASP211      0.1436
     78  CG        25.5120  -10.7190   47.0290 C.2   211  ASP211      0.3671
     79  OD1       25.9670   -9.8510   47.8160 O.co2 211  ASP211     -0.2456
     80  OD2       26.1480  -11.7530   46.7110 O.co2 211  ASP211     -0.2456
     81  N         22.6770   -4.8500   41.1270 N.3   236  TYR236     -0.1241
     82  CA        23.1840   -4.7520   39.7660 C.3   236  TYR236      0.1605
     83  C         23.3200   -6.1470   39.1630 C.2   236  TYR236      0.2264
     84  O         23.4790   -7.1350   39.8820 O.2   236  TYR236     -0.2867
     85  CB        24.5460   -4.0320   39.7230 C.3   236  TYR236      0.0534
     86  CG        25.4700   -4.4700   40.8200 C.ar  236  TYR236     -0.0201
     87  CD1       25.5250   -3.7740   42.0230 C.ar  236  TYR236     -0.0009
     88  CD2       26.2680   -5.6140   40.6760 C.ar  236  TYR236     -0.0009
     89  CE1       26.3600   -4.1960   43.0610 C.ar  236  TYR236      0.0417
     90  CE2       27.1000   -6.0490   41.7030 C.ar  236  TYR236      0.0417
     91  CZ        27.1380   -5.3320   42.8940 C.ar  236  TYR236      0.1957
     92  OH        27.9720   -5.7430   43.9180 O.3   236  TYR236     -0.2866
     93  N         30.2640  -10.9460   40.4080 N.3   275  PRO275     -0.2116
     94  CA        29.7910   -9.8700   39.5290 C.3   275  PRO275      0.1372
     95  C         30.9500   -9.0500   38.9650 C.2   275  PRO275      0.2244
     96  O         31.9690   -8.8650   39.6490 O.2   275  PRO275     -0.2868
     97  CB        28.9360   -8.9920   40.4580 C.3   275  PRO275      0.0268
     98  CG        28.7710   -9.7520   41.7230 C.3   275  PRO275      0.0207
     99  CD        29.8940  -10.7170   41.8170 C.3   275  PRO275      0.0892
    100  N         31.7780   -5.9940   38.9760 N.3   277  THR277     -0.1218
    101  CA        31.3750   -4.7680   39.6660 C.3   277  THR277      0.1862
    102  C         32.1870   -3.5440   39.2320 C.2   277  THR277      0.2287
    103  O         33.2980   -3.6560   38.7070 O.2   277  THR277     -0.2866
    104  CB        31.4630   -4.8680   41.2100 C.3   277  THR277      0.1770
    105  OG1       32.8300   -4.7400   41.6180 O.3   277  THR277     -0.2211
    106  CG2       30.8810   -6.1680   41.7360 C.3   277  THR277      0.0375
@<TRIPOS>BOND
     1   103   102    2
     2    95    94    1
     3    95    96    2
     4   100   101    1
     5    83    82    1
     6    83    84    2
     7   102   101    1
     8    94    93    1
     9    94    97    1
    10   101   104    1
    11    85    82    1
    12    85    86    1
    13    82    81    1
    14    93    99    1
    15    97    98    1
    16    88    86   ar
    17    88    90   ar
    18    86    87   ar
    19   104   105    1
    20   104   106    1
    21    90    91   ar
    22    98    99    1
    23    87    89   ar
    24    91    89   ar
    25    91    92    1
    26    38    39    1
    27    38    37    1
    28    39    40    1
    29    16    14    1
    30    40    41    2
    31    37    34    1
    32    41    42    1
    33    41    43    1
    34    33    34    1
    35    34    35    1
    36    14    13    1
    37    77    78    1
    38    77    74    1
    39    76    75    2
    40    80    78   ar
    41    78    79   ar
    42    74    75    1
    43    74    73    1
    44    35    36    2
    45    35    44   am
    46    13    15    1
    47    13    10    1
    48    10     9    1
    49    10    11    1
    50     9     7   am
    51     7     6    1
    52     7     8    2
    53     6     5    1
    54    65    64    2
    55    44    45    1
    56    28    27    2
    57    73    70   am
    58    27    26    1
    59    71    70    2
    60    25    26    1
    61    63    66    1
    62    63    64    1
    63    63    62    1
    64    66    67    1
    65     5     3   am
    66    64    68   am
    67    52    50   am
    68    26    29    1
    69    70    69    1
    70    11    12    2
    71    45    46    1
    72    45    48    1
    73    49    50    1
    74    49    48    1
    75    68    69    1
    76    50    51    2
    77    31    30    2
    78    69    72    1
    79     3     4    2
    80     3     2    1
    81    46    47    2
    82    29    30    1
    83     2     1    1
    84    30    32   am
    85    61    60    1
    86    24    22   ar
    87    60    59    1
    88    22    23   ar
    89    22    21    1
    90    59    58    1
    91    21    18    1
    92    58    57    1
    93    57    54    1
    94    18    19    1
    95    18    17    1
    96    19    20    2
    97    54    55    1
    98    54    53    1
    99    56    55    2
