@<TRIPOS>MOLECULE
tmp/3h9jC02.pdb
 110 107 0 0 0
SMALL
GASTEIGER

@<TRIPOS>ATOM
      1  N         36.0950   27.4370   47.9160 N.3   148  ASP148     -0.1239
      2  CA        35.0560   27.4760   48.9440 C.3   148  ASP148      0.1674
      3  C         35.4200   26.6570   50.1840 C.2   148  ASP148      0.2266
      4  O         36.2910   25.7790   50.1510 O.2   148  ASP148     -0.2867
      5  CB        33.7060   27.0360   48.3690 C.3   148  ASP148      0.1410
      6  CG        32.5160   27.4770   49.2300 C.2   148  ASP148      0.3668
      7  OD1       32.6640   28.3960   50.0830 O.co2 148  ASP148     -0.2456
      8  OD2       31.4190   26.8910   49.0460 O.co2 148  ASP148     -0.2456
      9  N         30.3030   24.0260   54.5110 N.3   151  GLU151     -0.1245
     10  CA        29.1800   24.4870   55.3200 C.3   151  GLU151      0.1567
     11  C         28.3230   23.2750   55.6710 C.2   151  GLU151      0.2260
     12  O         28.3660   22.2660   54.9610 O.2   151  GLU151     -0.2867
     13  CB        28.3600   25.5160   54.5430 C.3   151  GLU151      0.0388
     14  CG        29.1330   26.7830   54.2200 C.3   151  GLU151      0.1160
     15  CD        28.2770   27.8610   53.5810 C.2   151  GLU151      0.3649
     16  OE1       27.9270   27.7210   52.3880 O.co2 151  GLU151     -0.2457
     17  OE2       27.9720   28.8670   54.2720 O.co2 151  GLU151     -0.2457
     18  N         25.2330   22.6440   55.3710 N.3   153  THR153     -0.1218
     19  CA        24.2860   22.2930   54.3050 C.3   153  THR153      0.1862
     20  C         24.9160   21.3880   53.2420 C.2   153  THR153      0.2287
     21  O         24.2030   20.7040   52.5120 O.2   153  THR153     -0.2866
     22  CB        23.6880   23.5420   53.6060 C.3   153  THR153      0.1770
     23  OG1       24.7450   24.4160   53.1930 O.3   153  THR153     -0.2211
     24  CG2       22.7380   24.2900   54.5400 C.3   153  THR153      0.0375
     25  N         39.4490   30.3380   42.2830 N.3   193  ASN193     -0.1225
     26  CA        38.1120   30.5430   41.7350 C.3   193  ASN193      0.1785
     27  C         38.2370   31.1520   40.3520 C.2   193  ASN193      0.2597
     28  O         38.9360   32.1540   40.1630 O.2   193  ASN193     -0.2718
     29  CB        37.2530   31.4510   42.6290 C.3   193  ASN193      0.1169
     30  CG        35.7590   31.1850   42.4640 C.2   193  ASN193      0.2627
     31  OD1       35.2280   30.2020   43.0010 O.2   193  ASN193     -0.2716
     32  ND2       35.0730   32.0580   41.7220 N.am  193  ASN193     -0.0877
     33  N         37.5740   30.5340   39.3800 N.am  194  ILE194     -0.1966
     34  CA        37.5470   31.0810   38.0350 C.3   194  ILE194      0.1727
     35  C         36.5960   32.2750   38.0130 C.2   194  ILE194      0.2616
     36  O         35.3760   32.1350   37.9480 O.2   194  ILE194     -0.2715
     37  CB        37.1570   30.0260   36.9590 C.3   194  ILE194      0.0290
     38  CG1       37.8940   28.6950   37.1830 C.3   194  ILE194      0.0022
     39  CG2       37.3830   30.5850   35.5430 C.3   194  ILE194      0.0023
     40  CD1       39.4080   28.7720   37.1500 C.3   194  ILE194      0.0001
     41  N         37.1720   33.4580   38.0870 N.am  195  ASN195     -0.1972
     42  CA        36.3740   34.6690   38.1010 C.3   195  ASN195      0.1688
     43  C         36.1210   35.1600   36.6960 C.2   195  ASN195      0.2292
     44  O         35.0740   35.7340   36.4180 O.2   195  ASN195     -0.2864
     45  CB        37.0570   35.7270   38.9550 C.3   195  ASN195      0.1181
     46  CG        37.2140   35.2800   40.3980 C.2   195  ASN195      0.2629
     47  OD1       36.2850   34.7160   40.9950 O.2   195  ASN195     -0.2716
     48  ND2       38.3930   35.5180   40.9640 N.am  195  ASN195     -0.0877
     49  N         29.3450   28.4190   38.7480 N.3   215  HIS215     -0.1227
     50  CA        29.2820   29.8740   38.8960 C.3   215  HIS215      0.1737
     51  C         30.4370   30.5520   38.1340 C.2   215  HIS215      0.2438
     52  O         31.5930   30.1850   38.3240 O.2   215  HIS215     -0.2733
     53  CB        29.3570   30.2690   40.3730 C.3   215  HIS215      0.0758
     54  CG        28.1500   29.9050   41.1830 C.ar  215  HIS215      0.0818
     55  ND1       26.8570   30.0570   40.7220 N.ar  215  HIS215     -0.2268
     56  CD2       28.0430   29.4420   42.4520 C.ar  215  HIS215      0.1154
     57  CE1       26.0100   29.6830   41.6650 C.ar  215  HIS215      0.1986
     58  NE2       26.7030   29.3050   42.7230 N.ar  215  HIS215     -0.2212
     59  N         30.1260   31.5290   37.2600 N.am  216  PRO216     -0.2729
     60  CA        28.7810   31.9840   36.8970 C.3   216  PRO216      0.1401
     61  C         28.1620   31.1470   35.7660 C.2   216  PRO216      0.2269
     62  O         28.7070   30.0980   35.4110 O.2   216  PRO216     -0.2865
     63  CB        29.0070   33.4370   36.4580 C.3   216  PRO216      0.0296
     64  CG        30.4470   33.4870   35.9900 C.3   216  PRO216      0.0237
     65  CD        31.1750   32.2790   36.5400 C.3   216  PRO216      0.0939
     66  N         17.3700   35.5880   39.1870 N.3   279  ASN279     -0.1225
     67  CA        18.4440   34.6310   38.9460 C.3   279  ASN279      0.1785
     68  C         19.6070   34.7210   39.9540 C.2   279  ASN279      0.2598
     69  O         20.2920   33.7240   40.2090 O.2   279  ASN279     -0.2718
     70  CB        18.9260   34.7000   37.4730 C.3   279  ASN279      0.1169
     71  CG        17.8480   34.1980   36.4700 C.2   279  ASN279      0.2627
     72  OD1       17.2000   33.1750   36.6960 O.2   279  ASN279     -0.2716
     73  ND2       17.6490   34.9370   35.3830 N.am  279  ASN279     -0.0877
     74  N         19.8250   35.9080   40.5220 N.am  280  SER280     -0.1938
     75  CA        20.8010   36.0810   41.5980 C.3   280  SER280      0.2055
     76  C         20.3920   35.3440   42.8980 C.2   280  SER280      0.2643
     77  O         21.2380   34.7710   43.5870 O.2   280  SER280     -0.2714
     78  CB        21.0390   37.5660   41.8650 C.3   280  SER280      0.2130
     79  OG        20.1020   38.1050   42.7720 O.3   280  SER280     -0.2179
     80  N         19.0940   35.3550   43.2210 N.am  281  ARG281     -0.1963
     81  CA        18.5780   34.5830   44.3470 C.3   281  ARG281      0.1729
     82  C         18.5740   33.0590   44.0950 C.2   281  ARG281      0.2616
     83  O         18.3750   32.2730   45.0180 O.2   281  ARG281     -0.2715
     84  CB        17.1850   35.0880   44.7780 C.3   281  ARG281      0.0348
     85  CG        17.2550   36.1430   45.8800 C.3   281  ARG281      0.0492
     86  CD        16.0050   36.2020   46.7580 C.3   281  ARG281      0.2205
     87  NE        15.9770   35.3260   47.9430 N.pl3 281  ARG281     -0.0865
     88  CZ        17.0220   34.9450   48.6890 C.cat 281  ARG281      0.5346
     89  NH1       18.2680   35.3520   48.4230 N.pl3 281  ARG281      0.1354
     90  NH2       16.8100   34.1480   49.7340 N.pl3 281  ARG281      0.1354
     91  N         18.8130   32.6410   42.8570 N.am  282  PHE282     -0.1960
     92  CA        18.7060   31.2230   42.5200 C.3   282  PHE282      0.1771
     93  C         19.6070   30.3120   43.3600 C.2   282  PHE282      0.2619
     94  O         20.8090   30.5600   43.5150 O.2   282  PHE282     -0.2715
     95  CB        18.9220   30.9650   41.0270 C.3   282  PHE282      0.0574
     96  CG        18.9810   29.4940   40.6680 C.ar  282  PHE282     -0.0200
     97  CD1       17.8260   28.7440   40.5700 C.ar  282  PHE282     -0.0042
     98  CD2       20.1980   28.8640   40.4530 C.ar  282  PHE282     -0.0042
     99  CE1       17.8730   27.3990   40.2530 C.ar  282  PHE282     -0.0003
    100  CE2       20.2540   27.5070   40.1260 C.ar  282  PHE282     -0.0003
    101  CZ        19.0840   26.7820   40.0240 C.ar  282  PHE282     -0.0000
    102  N         18.9940   29.2550   43.8820 N.am  283  LYS283     -0.1977
    103  CA        19.6740   28.1890   44.5860 C.3   283  LYS283      0.1596
    104  C         19.0340   26.8770   44.1090 C.2   283  LYS283      0.2287
    105  O         17.8180   26.7150   44.1850 O.2   283  LYS283     -0.2864
    106  CB        19.5190   28.3830   46.0950 C.3   283  LYS283      0.0298
    107  CG        20.2720   27.3980   46.9740 C.3   283  LYS283      0.0038
    108  CD        21.7900   27.5920   46.9330 C.3   283  LYS283      0.0206
    109  CE        22.2520   28.7530   47.8170 C.3   283  LYS283      0.1093
    110  NZ        23.6990   29.0560   47.5680 N.3   283  LYS283     -0.1314
@<TRIPOS>BOND
     1    73    71   am
     2    62    61    2
     3    39    37    1
     4    61    60    1
     5    64    63    1
     6    64    65    1
     7    44    43    2
     8    63    60    1
     9    71    72    2
    10    71    70    1
    11    65    59    1
    12    43    42    1
    13    60    59    1
    14    37    38    1
    15    37    34    1
    16    40    38    1
    17    59    51   am
    18    70    67    1
    19    36    35    2
    20    35    34    1
    21    35    41   am
    22    34    33    1
    23    41    42    1
    24    42    45    1
    25    51    52    2
    26    51    50    1
    27    49    50    1
    28    50    53    1
    29    67    66    1
    30    67    68    1
    31    45    46    1
    32    33    27   am
    33    68    69    2
    34    68    74   am
    35   101   100   ar
    36   101    99   ar
    37   100    98   ar
    38    28    27    2
    39    99    97   ar
    40    27    26    1
    41    53    54    1
    42    46    48   am
    43    46    47    2
    44    98    96   ar
    45    74    75    1
    46    97    96   ar
    47    96    95    1
    48    55    54   ar
    49    55    57   ar
    50    95    92    1
    51    54    56   ar
    52    75    78    1
    53    75    76    1
    54    57    58   ar
    55    32    30   am
    56    26    25    1
    57    26    29    1
    58    78    79    1
    59    56    58   ar
    60    30    29    1
    61    30    31    2
    62    92    91    1
    63    92    93    1
    64    91    82   am
    65    76    80   am
    66    76    77    2
    67    80    81    1
    68    93    94    2
    69    93   102   am
    70   102   103    1
    71    82    81    1
    72    82    83    2
    73   104   105    2
    74   104   103    1
    75    81    84    1
    76   103   106    1
    77    84    85    1
    78    85    86    1
    79   106   107    1
    80    86    87    1
    81   108   107    1
    82   108   109    1
    83   110   109    1
    84     1     2    1
    85    87    88    2
    86     5     2    1
    87     5     6    1
    88    89    88    1
    89    88    90    1
    90     2     3    1
    91     8     6   ar
    92     6     7   ar
    93     4     3    2
    94    16    15   ar
    95    21    20    2
    96    23    22    1
    97    20    19    1
    98    15    14    1
    99    15    17   ar
   100    22    19    1
   101    22    24    1
   102    14    13    1
   103    19    18    1
   104     9    10    1
   105    13    10    1
   106    12    11    2
   107    10    11    1
