@<TRIPOS>MOLECULE
tmp/3h9oA00.pdb
 173 160 0 0 0
SMALL
GASTEIGER

@<TRIPOS>ATOM
      1  N         38.3380  -13.8940   24.0340 N.3    12  LYS12      -0.1245
      2  CA        38.1390  -15.2940   23.7020 C.3    12  LYS12       0.1561
      3  C         39.0790  -15.7820   22.6140 C.2    12  LYS12       0.2260
      4  O         39.4950  -15.0300   21.7380 O.2    12  LYS12      -0.2867
      5  CB        36.7020  -15.5160   23.2410 C.3    12  LYS12       0.0271
      6  CG        36.4180  -14.9630   21.8610 C.3    12  LYS12       0.0035
      7  CD        35.1900  -15.6160   21.2620 C.3    12  LYS12       0.0206
      8  CE        33.9330  -14.8460   21.6210 C.3    12  LYS12       0.1093
      9  NZ        33.8060  -13.6130   20.7790 N.3    12  LYS12      -0.1314
     10  N         39.8060  -17.4760   19.2470 N.3    14  LEU14      -0.1231
     11  CA        39.0970  -17.5760   17.9730 C.3    14  LEU14       0.1693
     12  C         39.4400  -18.8780   17.2670 C.2    14  LEU14       0.2592
     13  O         38.6080  -19.4510   16.5690 O.2    14  LEU14      -0.2718
     14  CB        39.4470  -16.4010   17.0580 C.3    14  LEU14       0.0284
     15  CG        39.1000  -15.0370   17.6440 C.3    14  LEU14       0.0019
     16  CD1       39.6230  -13.9080   16.7640 C.3    14  LEU14       0.0001
     17  CD2       37.5940  -14.9300   17.8530 C.3    14  LEU14       0.0001
     18  N         40.6710  -19.3440   17.4440 N.am   15  GLY15      -0.1957
     19  CA        41.0940  -20.5670   16.7980 C.3    15  GLY15       0.1869
     20  C         42.3960  -21.1040   17.3530 C.2    15  GLY15       0.2309
     21  O         43.2160  -20.3530   17.9030 O.2    15  GLY15      -0.2863
     22  N         49.9910  -22.4360   16.8960 N.3    20  SER20      -0.1217
     23  CA        49.4620  -21.1020   17.1450 C.3    20  SER20       0.1889
     24  C         48.0780  -21.1220   17.7750 C.2    20  SER20       0.2288
     25  O         47.3500  -22.1060   17.6760 O.2    20  SER20      -0.2866
     26  CB        49.4300  -20.2850   15.8510 C.3    20  SER20       0.2089
     27  OG        48.3960  -20.7330   14.9850 O.3    20  SER20      -0.2183
     28  N         44.8340  -18.2110   17.9590 N.3    22  VAL22      -0.1245
     29  CA        44.3770  -16.8840   17.5840 C.3    22  VAL22       0.1561
     30  C         43.3900  -16.3690   18.6330 C.2    22  VAL22       0.2260
     31  O         42.3940  -17.0170   18.9320 O.2    22  VAL22      -0.2867
     32  CB        43.7740  -16.8580   16.1660 C.3    22  VAL22       0.0252
     33  CG1       43.3720  -15.4260   15.7770 C.3    22  VAL22       0.0019
     34  CG2       44.7710  -17.4130   15.1700 C.3    22  VAL22       0.0019
     35  N         42.5670   -9.5730   15.7530 N.3    35  ALA35      -0.1245
     36  CA        42.7400  -10.9940   15.9450 C.3    35  ALA35       0.1562
     37  C         44.2400  -11.2180   16.0560 C.2    35  ALA35       0.2260
     38  O         44.9500  -11.1660   15.0530 O.2    35  ALA35      -0.2867
     39  CB        42.1760  -11.7500   14.7750 C.3    35  ALA35       0.0290
     40  N         47.4040  -13.4290   16.5200 N.3    37  LYS37      -0.1245
     41  CA        47.9440  -14.7770   16.4150 C.3    37  LYS37       0.1561
     42  C         49.1420  -14.9240   17.3570 C.2    37  LYS37       0.2260
     43  O         50.1140  -14.1730   17.2600 O.2    37  LYS37      -0.2867
     44  CB        48.3680  -15.0550   14.9690 C.3    37  LYS37       0.0271
     45  CG        48.7490  -16.4900   14.6950 C.3    37  LYS37       0.0035
     46  CD        48.8600  -16.7450   13.2030 C.3    37  LYS37       0.0206
     47  CE        48.6060  -18.2170   12.8750 C.3    37  LYS37       0.1093
     48  NZ        48.7660  -18.5120   11.4190 N.3    37  LYS37      -0.1314
     49  N         55.5860  -16.7350    6.7350 N.3    56  GLU56      -0.1245
     50  CA        54.2010  -16.3130    6.9460 C.3    56  GLU56       0.1567
     51  C         54.1200  -14.8150    7.2470 C.2    56  GLU56       0.2260
     52  O         53.2470  -14.1100    6.7320 O.2    56  GLU56      -0.2867
     53  CB        53.5400  -17.1330    8.0610 C.3    56  GLU56       0.0388
     54  CG        52.2330  -16.5600    8.5940 C.3    56  GLU56       0.1160
     55  CD        51.6070  -17.4130    9.7110 C.2    56  GLU56       0.3649
     56  OE1       50.4370  -17.1470   10.0720 O.co2  56  GLU56      -0.2457
     57  OE2       52.2710  -18.3480   10.2240 O.co2  56  GLU56      -0.2457
     58  N         52.5990  -11.9120    4.6970 N.3    60  MET60      -0.1245
     59  CA        51.4940  -11.0790    5.1600 C.3    60  MET60       0.1570
     60  C         51.8200   -9.5800    5.0900 C.2    60  MET60       0.2261
     61  O         50.9370   -8.7560    4.8330 O.2    60  MET60      -0.2867
     62  CB        51.0380  -11.4860    6.5640 C.3    60  MET60       0.0387
     63  CG        50.1020  -12.6740    6.5720 C.3    60  MET60       0.0595
     64  SD        49.2670  -12.9290    8.1530 S.3    60  MET60      -0.1393
     65  CE        50.6660  -13.0900    9.2690 C.3    60  MET60       0.0692
     66  N         43.7750  -10.8610    4.8120 N.3    69  VAL69      -0.1245
     67  CA        44.1070  -10.3830    6.1540 C.3    69  VAL69       0.1561
     68  C         45.1370   -9.3320    5.9960 C.2    69  VAL69       0.2260
     69  O         45.8820   -9.3490    5.0260 O.2    69  VAL69      -0.2867
     70  CB        44.8150  -11.4310    7.0560 C.3    69  VAL69       0.0252
     71  CG1       43.8230  -12.1520    7.9400 C.3    69  VAL69       0.0019
     72  CG2       45.6820  -12.3860    6.2320 C.3    69  VAL69       0.0019
     73  N         46.4540   -9.1280   13.5360 N.3    85  LEU85      -0.1231
     74  CA        45.7530   -9.3580   12.2780 C.3    85  LEU85       0.1693
     75  C         44.3740   -8.7180   12.2720 C.2    85  LEU85       0.2593
     76  O         43.7910   -8.4690   13.3250 O.2    85  LEU85      -0.2718
     77  CB        45.5750  -10.8620   12.0520 C.3    85  LEU85       0.0284
     78  CG        46.8290  -11.7230   12.1530 C.3    85  LEU85       0.0019
     79  CD1       46.5250  -13.1570   11.7370 C.3    85  LEU85       0.0001
     80  CD2       47.9300  -11.1260   11.2900 C.3    85  LEU85       0.0001
     81  N         43.8370   -8.4630   11.0850 N.am   86  SER86      -0.1938
     82  CA        42.4790   -7.9400   10.9930 C.3    86  SER86       0.2055
     83  C         41.4930   -8.9450   11.5660 C.2    86  SER86       0.2643
     84  O         41.6620  -10.1550   11.3990 O.2    86  SER86      -0.2714
     85  CB        42.1130   -7.5790    9.5490 C.3    86  SER86       0.2130
     86  OG        42.6190   -8.5180    8.6210 O.3    86  SER86      -0.2179
     87  N         40.4750   -8.4380   12.2560 N.am   87  TYR87      -0.1959
     88  CA        39.4450   -9.2730   12.8760 C.3    87  TYR87       0.1771
     89  C         38.2360   -9.4580   11.9440 C.2    87  TYR87       0.2619
     90  O         37.5900   -8.4920   11.5440 O.2    87  TYR87      -0.2715
     91  CB        39.0190   -8.6830   14.2350 C.3    87  TYR87       0.0574
     92  CG        37.8130   -9.3580   14.8680 C.ar   87  TYR87      -0.0198
     93  CD1       37.7650  -10.7400   15.0170 C.ar   87  TYR87      -0.0009
     94  CD2       36.7290   -8.6090   15.3330 C.ar   87  TYR87      -0.0009
     95  CE1       36.6700  -11.3600   15.5960 C.ar   87  TYR87       0.0417
     96  CE2       35.6280   -9.2230   15.9180 C.ar   87  TYR87       0.0417
     97  CZ        35.6060  -10.6030   16.0460 C.ar   87  TYR87       0.1957
     98  OH        34.5230  -11.2380   16.6220 O.3    87  TYR87      -0.2866
     99  N         37.9550  -10.7090   11.5920 N.am   88  ALA88      -0.1963
    100  CA        36.8560  -11.0500   10.6950 C.3    88  ALA88       0.1728
    101  C         35.6080  -11.4140   11.4980 C.2    88  ALA88       0.2616
    102  O         35.4000  -12.5750   11.8620 O.2    88  ALA88      -0.2715
    103  CB        37.2630  -12.2090    9.7760 C.3    88  ALA88       0.0334
    104  N         34.7730  -10.4120   11.7490 N.am   89  LYS89      -0.1963
    105  CA        33.6650  -10.5270   12.6940 C.3    89  LYS89       0.1728
    106  C         32.7310  -11.7170   12.4530 C.2    89  LYS89       0.2616
    107  O         32.2350  -12.3180   13.4040 O.2    89  LYS89      -0.2715
    108  CB        32.8550   -9.2320   12.7280 C.3    89  LYS89       0.0311
    109  CG        31.7790   -9.2150   13.7980 C.3    89  LYS89       0.0038
    110  CD        30.7500   -8.1260   13.5240 C.3    89  LYS89       0.0206
    111  CE        29.7540   -8.0110   14.6680 C.3    89  LYS89       0.1093
    112  NZ        30.4330   -7.6650   15.9510 N.3    89  LYS89      -0.1314
    113  N         32.4890  -12.0590   11.1930 N.am   90  ASN90      -0.1958
    114  CA        31.5260  -13.1140   10.8890 C.3    90  ASN90       0.1819
    115  C         32.1120  -14.5150   10.6580 C.2    90  ASN90       0.2622
    116  O         31.3990  -15.4450   10.2900 O.2    90  ASN90      -0.2715
    117  CB        30.6060  -12.6740    9.7510 C.3    90  ASN90       0.1195
    118  CG        29.5850  -11.6480   10.2100 C.2    90  ASN90       0.2630
    119  OD1       28.8440  -11.8890   11.1630 O.2    90  ASN90      -0.2716
    120  ND2       29.5500  -10.4970    9.5470 N.am   90  ASN90      -0.0877
    121  N         33.4120  -14.6610   10.8890 N.am   91  GLY91      -0.1940
    122  CA        34.0320  -15.9720   10.9260 C.3    91  GLY91       0.2014
    123  C         34.1920  -16.7110    9.6090 C.2    91  GLY91       0.2638
    124  O         34.1980  -16.1180    8.5280 O.2    91  GLY91      -0.2714
    125  N         34.3190  -18.0300    9.7170 N.am   92  GLU92      -0.1977
    126  CA        34.5950  -18.8890    8.5770 C.3    92  GLU92       0.1602
    127  C         33.4340  -18.9690    7.6030 C.2    92  GLU92       0.2287
    128  O         32.2690  -18.9260    8.0000 O.2    92  GLU92      -0.2864
    129  CB        34.9550  -20.2970    9.0530 C.3    92  GLU92       0.0415
    130  CG        36.1070  -20.3420   10.0500 C.3    92  GLU92       0.1163
    131  CD        36.3560  -21.7370   10.5750 C.2    92  GLU92       0.3649
    132  OE1       35.6520  -22.6640   10.1310 O.co2  92  GLU92      -0.2457
    133  OE2       37.2540  -21.9120   11.4240 O.co2  92  GLU92      -0.2457
    134  N         31.1120  -22.0540    8.1480 N.3    95  LYS95      -0.1245
    135  CA        29.9600  -21.9000    9.0280 C.3    95  LYS95       0.1561
    136  C         28.6720  -21.5990    8.2550 C.2    95  LYS95       0.2260
    137  O         27.6130  -22.1550    8.5570 O.2    95  LYS95      -0.2867
    138  CB        30.2210  -20.8050   10.0660 C.3    95  LYS95       0.0271
    139  CG        28.9580  -20.1100   10.5760 C.3    95  LYS95       0.0035
    140  CD        29.2820  -18.8240   11.3420 C.3    95  LYS95       0.0206
    141  CE        28.1030  -17.8450   11.3310 C.3    95  LYS95       0.1093
    142  NZ        28.4850  -16.4790   11.8340 N.3    95  LYS95      -0.1314
    143  N         39.6130  -21.2530    5.8870 N.3   136  ASN136     -0.1240
    144  CA        40.5550  -20.1550    5.6770 C.3   136  ASN136      0.1653
    145  C         39.9600  -18.9140    5.0170 C.2   136  ASN136      0.2266
    146  O         40.6100  -17.8720    4.9400 O.2   136  ASN136     -0.2867
    147  CB        41.7080  -20.6390    4.7990 C.3   136  ASN136      0.1155
    148  CG        42.7440  -21.3720    5.5860 C.2   136  ASN136      0.2627
    149  OD1       42.8650  -21.1680    6.7980 O.2   136  ASN136     -0.2716
    150  ND2       43.5010  -22.2350    4.9200 N.am  136  ASN136     -0.0877
    151  N         37.4640  -16.2270    5.4360 N.3   138  LEU138     -0.1245
    152  CA        36.6580  -15.6170    6.4780 C.3   138  LEU138      0.1561
    153  C         35.7160  -14.5660    5.9190 C.2   138  LEU138      0.2260
    154  O         35.9100  -14.0640    4.8150 O.2   138  LEU138     -0.2867
    155  CB        37.5520  -14.9790    7.5350 C.3   138  LEU138      0.0270
    156  CG        38.6880  -15.8240    8.1060 C.3   138  LEU138      0.0019
    157  CD1       39.4680  -15.0080    9.1180 C.3   138  LEU138      0.0001
    158  CD2       38.1610  -17.1040    8.7250 C.3   138  LEU138      0.0001
    159  N         42.8100  -15.8420    4.9590 N.3   148  THR148     -0.1203
    160  CA        43.8660  -15.7970    5.9560 C.3   148  THR148      0.1994
    161  C         44.7150  -17.0820    5.9920 C.2   148  THR148      0.2617
    162  O         44.6270  -17.9270    5.0970 O.2   148  THR148     -0.2717
    163  CB        43.2790  -15.5130    7.3570 C.3   148  THR148      0.1784
    164  OG1       44.3450  -15.2600    8.2810 O.3   148  THR148     -0.2211
    165  CG2       42.4240  -16.6940    7.8370 C.3   148  THR148      0.0376
    166  N         45.5420  -17.2040    7.0280 N.am  149  ASP149     -0.1973
    167  CA        46.3680  -18.3910    7.2570 C.3   149  ASP149      0.1709
    168  C         47.4500  -18.6000    6.2060 C.2   149  ASP149      0.2293
    169  O         47.3040  -19.4300    5.2990 O.2   149  ASP149     -0.2864
    170  CB        45.5080  -19.6520    7.3710 C.3   149  ASP149      0.1436
    171  CG        46.2190  -20.7590    8.1110 C.2   149  ASP149      0.3671
    172  OD1       47.3830  -20.5330    8.5240 O.co2 149  ASP149     -0.2456
    173  OD2       45.6230  -21.8450    8.2850 O.co2 149  ASP149     -0.2456
@<TRIPOS>BOND
     1    58    59    1
     2   147   148    1
     3   147   144    1
     4    66    67    1
     5   154   153    2
     6    61    60    2
     7   150   148   am
     8   146   145    2
     9   159   160    1
    10   145   144    1
    11    69    68    2
    12    60    59    1
    13   162   161    2
    14    59    62    1
    15   169   168    2
    16   151   152    1
    17   148   149    2
    18   144   143    1
    19   153   152    1
    20   160   161    1
    21   160   163    1
    22   161   166   am
    23    68    67    1
    24    67    70    1
    25   168   167    1
    26    72    70    1
    27   152   155    1
    28    62    63    1
    29    63    64    1
    30    52    51    2
    31    49    50    1
    32    50    51    1
    33    50    53    1
    34   166   167    1
    35    70    71    1
    36   167   170    1
    37   163   165    1
    38   163   164    1
    39   170   171    1
    40   155   156    1
    41   127   128    2
    42   127   126    1
    43    53    54    1
    44   156   158    1
    45   156   157    1
    46   171   173   ar
    47   171   172   ar
    48   134   135    1
    49    64    65    1
    50   136   137    2
    51   136   135    1
    52   124   123    2
    53   126   129    1
    54   126   125    1
    55    54    55    1
    56    86    85    1
    57   135   138    1
    58   129   130    1
    59   120   118   am
    60    85    82    1
    61   123   125   am
    62   123   122    1
    63    55    56   ar
    64    55    57   ar
    65   117   118    1
    66   117   114    1
    67   103   100    1
    68   130   131    1
    69   138   139    1
    70   132   131   ar
    71   118   119    2
    72   116   115    2
    73   131   133   ar
    74   139   140    1
    75   115   114    1
    76   115   121   am
    77   100   101    1
    78   100    99    1
    79   114   113    1
    80   121   122    1
    81    82    81    1
    82    82    83    1
    83    81    75   am
    84   113   106   am
    85    80    78    1
    86   141   140    1
    87   141   142    1
    88    84    83    2
    89    48    47    1
    90   101   104   am
    91   101   102    2
    92    90    89    2
    93    83    87   am
    94    99    89   am
    95    79    78    1
    96   104   105    1
    97    89    88    1
    98    77    78    1
    99    77    74    1
   100    87    88    1
   101    75    74    1
   102    75    76    2
   103    74    73    1
   104   106   105    1
   105   106   107    2
   106   105   108    1
   107   108   109    1
   108    47    46    1
   109    88    91    1
   110    46    45    1
   111   110   109    1
   112   110   111    1
   113    91    92    1
   114   111   112    1
   115    45    44    1
   116    39    36    1
   117    92    93   ar
   118    92    94   ar
   119    44    41    1
   120    27    26    1
   121    93    95   ar
   122    38    37    2
   123    34    32    1
   124    94    96   ar
   125    95    97   ar
   126    35    36    1
   127    33    32    1
   128    26    23    1
   129    96    97   ar
   130    36    37    1
   131    97    98    1
   132    32    29    1
   133    41    40    1
   134    41    42    1
   135    13    12    2
   136    16    15    1
   137    19    20    1
   138    19    18    1
   139    22    23    1
   140    14    15    1
   141    14    11    1
   142    23    24    1
   143    43    42    2
   144    12    18   am
   145    12    11    1
   146    20    21    2
   147    29    28    1
   148    29    30    1
   149    15    17    1
   150    25    24    2
   151    11    10    1
   152    30    31    2
   153     9     8    1
   154     7     8    1
   155     7     6    1
   156     4     3    2
   157     6     5    1
   158     3     2    1
   159     5     2    1
   160     2     1    1
