@<TRIPOS>MOLECULE
tmp/3h9qA00.pdb
 161 155 0 0 0
SMALL
GASTEIGER

@<TRIPOS>ATOM
      1  N         -6.8690  -12.6540    2.6790 N.3   209  SER209     -0.1202
      2  CA        -5.4230  -12.4820    2.5970 C.3   209  SER209      0.2020
      3  C         -4.5620  -13.6470    3.0550 C.2   209  SER209      0.2619
      4  O         -3.3750  -13.6990    2.7170 O.2   209  SER209     -0.2717
      5  CB        -5.0050  -11.2300    3.3680 C.3   209  SER209      0.2103
      6  OG        -5.2920  -11.3470    4.7490 O.3   209  SER209     -0.2182
      7  N         -5.1330  -14.5660    3.8260 N.am  210  ALA210     -0.1965
      8  CA        -4.3620  -15.7130    4.2980 C.3   210  ALA210      0.1728
      9  C         -3.9240  -16.5360    3.0890 C.2   210  ALA210      0.2616
     10  O         -4.6650  -16.6620    2.1190 O.2   210  ALA210     -0.2715
     11  CB        -5.2010  -16.5610    5.2470 C.3   210  ALA210      0.0334
     12  N         -2.7180  -17.0910    3.1420 N.am  211  ASP211     -0.1971
     13  CA        -2.1930  -17.8820    2.0260 C.3   211  ASP211      0.1709
     14  C         -2.0140  -19.3700    2.3620 C.2   211  ASP211      0.2293
     15  O         -0.8930  -19.8800    2.3340 O.2   211  ASP211     -0.2864
     16  CB        -0.8510  -17.2920    1.5770 C.3   211  ASP211      0.1436
     17  CG         0.0110  -16.8390    2.7580 C.2   211  ASP211      0.3671
     18  OD1       -0.1580  -17.4000    3.8630 O.co2 211  ASP211     -0.2456
     19  OD2        0.8570  -15.9310    2.5850 O.co2 211  ASP211     -0.2456
     20  N         -2.6320  -23.9590   -0.7610 N.3   214  PHE214     -0.1241
     21  CA        -2.2570  -23.4150   -2.0650 C.3   214  PHE214      0.1605
     22  C         -3.4520  -22.8860   -2.8580 C.2   214  PHE214      0.2264
     23  O         -3.3900  -21.8040   -3.4480 O.2   214  PHE214     -0.2867
     24  CB        -1.5320  -24.4800   -2.8830 C.3   214  PHE214      0.0534
     25  CG        -0.1290  -24.7930   -2.4610 C.ar  214  PHE214     -0.0203
     26  CD1        0.7310  -23.8160   -1.9450 C.ar  214  PHE214     -0.0042
     27  CD2        0.3450  -26.1080   -2.6140 C.ar  214  PHE214     -0.0042
     28  CE1        2.0370  -24.1310   -1.6230 C.ar  214  PHE214     -0.0003
     29  CE2        1.6530  -26.4290   -2.2720 C.ar  214  PHE214     -0.0003
     30  CZ         2.5020  -25.4250   -1.7820 C.ar  214  PHE214     -0.0000
     31  N         -7.5770  -19.4490   -2.3160 N.3   217  ILE217     -0.1245
     32  CA        -8.1800  -18.3990   -3.1080 C.3   217  ILE217      0.1561
     33  C         -9.2450  -19.0080   -4.0200 C.2   217  ILE217      0.2260
     34  O        -10.3400  -18.4660   -4.1460 O.2   217  ILE217     -0.2867
     35  CB        -7.0960  -17.6640   -3.9370 C.3   217  ILE217      0.0252
     36  CG1       -7.7260  -16.5480   -4.7680 C.3   217  ILE217      0.0019
     37  CG2       -6.3610  -18.6550   -4.8190 C.3   217  ILE217      0.0019
     38  CD1       -8.4610  -15.5040   -3.9470 C.3   217  ILE217      0.0001
     39  N         -8.9350  -10.0700   -2.9960 N.3   233  ASN233     -0.1225
     40  CA        -7.7440  -10.8230   -2.6410 C.3   233  ASN233      0.1785
     41  C         -6.5220   -9.9080   -2.4950 C.2   233  ASN233      0.2597
     42  O         -6.3890   -8.9190   -3.2020 O.2   233  ASN233     -0.2718
     43  CB        -7.4780  -11.8640   -3.7310 C.3   233  ASN233      0.1169
     44  CG        -6.5970  -13.0040   -3.2590 C.2   233  ASN233      0.2627
     45  OD1       -6.2170  -13.8590   -4.0520 O.2   233  ASN233     -0.2716
     46  ND2       -6.2680  -13.0260   -1.9660 N.am  233  ASN233     -0.0877
     47  N         -5.6300  -10.2450   -1.5750 N.am  234  ALA234     -0.1966
     48  CA        -4.4140   -9.4660   -1.3630 C.3   234  ALA234      0.1728
     49  C         -3.2970  -10.3470   -0.8330 C.2   234  ALA234      0.2617
     50  O         -3.5500  -11.3650   -0.1750 O.2   234  ALA234     -0.2715
     51  CB        -4.6770   -8.3560   -0.3870 C.3   234  ALA234      0.0334
     52  N         -2.0580   -9.9590   -1.1030 N.am  235  GLY235     -0.1940
     53  CA        -0.9500  -10.7490   -0.6160 C.3   235  GLY235      0.2014
     54  C          0.3380  -10.3890   -1.2960 C.2   235  GLY235      0.2639
     55  O          0.6010   -9.2150   -1.5540 O.2   235  GLY235     -0.2714
     56  N          1.1420  -11.4000   -1.5840 N.am  236  TYR236     -0.1959
     57  CA         2.4120  -11.1830   -2.2460 C.3   236  TYR236      0.1771
     58  C          3.0610  -12.4730   -2.7310 C.2   236  TYR236      0.2619
     59  O          2.6670  -13.5800   -2.3560 O.2   236  TYR236     -0.2715
     60  CB         3.3660  -10.4720   -1.2840 C.3   236  TYR236      0.0574
     61  CG         3.3590  -11.0960    0.0830 C.ar  236  TYR236     -0.0198
     62  CD1        4.0030  -12.3070    0.3170 C.ar  236  TYR236     -0.0009
     63  CD2        2.6420  -10.5180    1.1270 C.ar  236  TYR236     -0.0009
     64  CE1        3.9310  -12.9270    1.5500 C.ar  236  TYR236      0.0417
     65  CE2        2.5630  -11.1380    2.3740 C.ar  236  TYR236      0.0417
     66  CZ         3.2120  -12.3420    2.5730 C.ar  236  TYR236      0.1957
     67  OH         3.1400  -12.9570    3.7940 O.3   236  TYR236     -0.2866
     68  N          4.0430  -12.3190   -3.6050 N.am  237  VAL237     -0.1977
     69  CA         4.8100  -13.4560   -4.0910 C.3   237  VAL237      0.1596
     70  C          6.2180  -12.9560   -3.8500 C.2   237  VAL237      0.2287
     71  O          6.8030  -12.2610   -4.6870 O.2   237  VAL237     -0.2864
     72  CB         4.6190  -13.7240   -5.5780 C.3   237  VAL237      0.0276
     73  CG1        5.3800  -14.9780   -5.9470 C.3   237  VAL237      0.0022
     74  CG2        3.1480  -13.8840   -5.9000 C.3   237  VAL237      0.0022
     75  N          7.0350   -9.1760   -4.5720 N.3   240  ILE240     -0.1245
     76  CA         5.9930   -8.4720   -5.3150 C.3   240  ILE240      0.1561
     77  C          4.7060   -8.3310   -4.5240 C.2   240  ILE240      0.2260
     78  O          4.0720   -9.3200   -4.1710 O.2   240  ILE240     -0.2867
     79  CB         5.6420   -9.1950   -6.6510 C.3   240  ILE240      0.0252
     80  CG1        6.8580   -9.2210   -7.5750 C.3   240  ILE240      0.0019
     81  CG2        4.4640   -8.5040   -7.3550 C.3   240  ILE240      0.0019
     82  CD1        6.6200  -10.0040   -8.8570 C.3   240  ILE240      0.0001
     83  N          0.9250   -7.7880   -4.1210 N.3   242  VAL242     -0.1245
     84  CA        -0.1490   -8.0640   -5.0450 C.3   242  VAL242      0.1561
     85  C         -1.4890   -7.8100   -4.4090 C.2   242  VAL242      0.2260
     86  O         -1.6940   -8.1540   -3.2530 O.2   242  VAL242     -0.2867
     87  CB        -0.1190   -9.5360   -5.5120 C.3   242  VAL242      0.0252
     88  CG1       -1.4950   -9.9320   -6.0550 C.3   242  VAL242      0.0019
     89  CG2        0.9560   -9.7320   -6.5790 C.3   242  VAL242      0.0019
     90  N         -5.8930   -7.6010   -5.5070 N.3   244  GLY244     -0.1225
     91  CA        -6.9030   -7.7730   -6.5230 C.3   244  GLY244      0.1811
     92  C         -6.8850   -9.2520   -6.8360 C.2   244  GLY244      0.2280
     93  O         -5.9730   -9.9480   -6.4020 O.2   244  GLY244     -0.2866
     94  N        -11.8740  -15.1120  -10.3420 N.3   255  TYR255     -0.1241
     95  CA       -10.4820  -15.5770  -10.3290 C.3   255  TYR255      0.1605
     96  C        -10.0950  -16.6150  -11.3920 C.2   255  TYR255      0.2264
     97  O         -9.0050  -16.5390  -11.9700 O.2   255  TYR255     -0.2867
     98  CB       -10.1500  -16.1390   -8.9340 C.3   255  TYR255      0.0534
     99  CG        -8.6730  -16.1840   -8.5830 C.ar  255  TYR255     -0.0201
    100  CD1       -8.0060  -15.0420   -8.1220 C.ar  255  TYR255     -0.0009
    101  CD2       -7.9470  -17.3760   -8.6860 C.ar  255  TYR255     -0.0009
    102  CE1       -6.6520  -15.0890   -7.7660 C.ar  255  TYR255      0.0417
    103  CE2       -6.5950  -17.4370   -8.3360 C.ar  255  TYR255      0.0417
    104  CZ        -5.9530  -16.2930   -7.8740 C.ar  255  TYR255      0.1957
    105  OH        -4.6250  -16.3600   -7.4970 O.3   255  TYR255     -0.2866
    106  N         -5.5470   -8.1380  -11.4170 N.3   311  ARG311     -0.1231
    107  CA        -4.6910   -8.6250  -10.3420 C.3   311  ARG311      0.1694
    108  C         -3.4480   -7.7670  -10.5140 C.2   311  ARG311      0.2592
    109  O         -2.6600   -7.9780  -11.4330 O.2   311  ARG311     -0.2718
    110  CB        -4.3570  -10.1080  -10.5250 C.3   311  ARG311      0.0321
    111  CG        -3.4880  -10.6810   -9.4070 C.3   311  ARG311      0.0489
    112  CD        -3.8250  -12.1430   -9.1080 C.3   311  ARG311      0.2205
    113  NE        -2.8320  -12.7350   -8.2170 N.pl3 311  ARG311     -0.0865
    114  CZ        -1.5910  -13.0330   -8.5920 C.cat 311  ARG311      0.5346
    115  NH1       -1.2020  -12.8070   -9.8430 N.pl3 311  ARG311      0.1354
    116  NH2       -0.7240  -13.5200   -7.7150 N.pl3 311  ARG311      0.1354
    117  N         -3.2880   -6.7910   -9.6290 N.am  312  ILE312     -0.1966
    118  CA        -2.1820   -5.8510   -9.7230 C.3   312  ILE312      0.1727
    119  C         -0.9590   -6.2250   -8.9050 C.2   312  ILE312      0.2616
    120  O         -1.0530   -6.7360   -7.7800 O.2   312  ILE312     -0.2715
    121  CB        -2.6730   -4.4310   -9.3450 C.3   312  ILE312      0.0290
    122  CG1       -3.9050   -4.0870  -10.1970 C.3   312  ILE312      0.0022
    123  CG2       -1.5760   -3.4140   -9.5900 C.3   312  ILE312      0.0023
    124  CD1       -4.8030   -3.0130   -9.6200 C.3   312  ILE312      0.0001
    125  N          0.2000   -5.9680   -9.4910 N.am  313  GLY313     -0.1955
    126  CA         1.4330   -6.2880   -8.8200 C.3   313  GLY313      0.1869
    127  C          2.4020   -5.1340   -8.8210 C.2   313  GLY313      0.2309
    128  O          2.6540   -4.5220   -9.8550 O.2   313  GLY313     -0.2863
    129  N          6.2730   -4.1850   -7.8270 N.3   315  TRP315     -0.1241
    130  CA         7.6050   -4.7180   -7.5290 C.3   315  TRP315      0.1605
    131  C          8.2940   -3.9030   -6.4430 C.2   315  TRP315      0.2264
    132  O          7.9650   -2.7370   -6.2370 O.2   315  TRP315     -0.2867
    133  CB         8.4930   -4.6830   -8.7800 C.3   315  TRP315      0.0550
    134  CG         8.4020   -5.8770   -9.6960 C.ar  315  TRP315      0.0003
    135  CD1        9.4280   -6.7020  -10.0570 C.ar  315  TRP315      0.0946
    136  CD2        7.2420   -6.3570  -10.3880 C.ar  315  TRP315      0.0152
    137  NE1        8.9850   -7.6620  -10.9310 N.ar  315  TRP315     -0.2442
    138  CE2        7.6470   -7.4770  -11.1530 C.ar  315  TRP315      0.0810
    139  CE3        5.9060   -5.9490  -10.4400 C.ar  315  TRP315      0.0012
    140  CZ2        6.7620   -8.1980  -11.9590 C.ar  315  TRP315      0.0191
    141  CZ3        5.0210   -6.6610  -11.2430 C.ar  315  TRP315      0.0001
    142  CH2        5.4550   -7.7770  -11.9930 C.ar  315  TRP315      0.0015
    143  N          2.3810   -3.7890  -12.5700 N.3   322  HIS322     -0.1241
    144  CA         1.8190   -4.4390  -13.7410 C.3   322  HIS322      0.1621
    145  C          0.5560   -5.1930  -13.3540 C.2   322  HIS322      0.2264
    146  O          0.4920   -5.7850  -12.2850 O.2   322  HIS322     -0.2867
    147  CB         2.8690   -5.3720  -14.3340 C.3   322  HIS322      0.0745
    148  CG         2.3780   -6.1910  -15.4810 C.ar  322  HIS322      0.0817
    149  ND1        1.6450   -7.3460  -15.3100 N.ar  322  HIS322     -0.2268
    150  CD2        2.4980   -6.0150  -16.8190 C.ar  322  HIS322      0.1154
    151  CE1        1.3340   -7.8460  -16.4930 C.ar  322  HIS322      0.1986
    152  NE2        1.8390   -7.0580  -17.4260 N.ar  322  HIS322     -0.2212
    153  N         -2.6200   -8.0410  -14.3620 N.3   324  GLN324     -0.1245
    154  CA        -3.0480   -9.1760  -15.1780 C.3   324  GLN324      0.1566
    155  C         -4.5350   -9.0080  -15.4360 C.2   324  GLN324      0.2260
    156  O         -5.2920   -8.6560  -14.5240 O.2   324  GLN324     -0.2867
    157  CB        -2.8700  -10.5170  -14.4520 C.3   324  GLN324      0.0367
    158  CG        -1.4610  -10.9430  -14.1180 C.3   324  GLN324      0.0905
    159  CD        -1.4300  -12.3340  -13.4890 C.2   324  GLN324      0.2608
    160  OE1       -2.1440  -12.6050  -12.5150 O.2   324  GLN324     -0.2717
    161  NE2       -0.6020  -13.2210  -14.0430 N.am  324  GLN324     -0.0878
@<TRIPOS>BOND
     1   152   150   ar
     2   152   151   ar
     3   150   148   ar
     4   151   149   ar
     5   148   149   ar
     6   148   147    1
     7   155   154    1
     8   155   156    2
     9   154   157    1
    10   154   153    1
    11   157   158    1
    12   147   144    1
    13   158   159    1
    14   161   159   am
    15   144   145    1
    16   144   143    1
    17   159   160    2
    18   145   146    2
    19   142   140   ar
    20   142   141   ar
    21    97    96    2
    22   140   138   ar
    23   109   108    2
    24   106   107    1
    25    96    95    1
    26   141   139   ar
    27   138   137   ar
    28   138   136   ar
    29   137   135   ar
    30   110   107    1
    31   110   111    1
    32   108   107    1
    33   108   117   am
    34   139   136   ar
    35   136   134   ar
    36    94    95    1
    37    95    98    1
    38   122   124    1
    39   122   121    1
    40   135   134   ar
    41   128   127    2
    42   115   114    1
    43   118   117    1
    44   118   121    1
    45   118   119    1
    46   134   133    1
    47   123   121    1
    48   125   119   am
    49   125   126    1
    50   111   112    1
    51   112   113    1
    52    98    99    1
    53   119   120    2
    54    82    80    1
    55   127   126    1
    56   133   130    1
    57   101    99   ar
    58   101   103   ar
    59   114   113    2
    60   114   116    1
    61    99   100   ar
    62   103   104   ar
    63   100   102   ar
    64   104   102   ar
    65   104   105    1
    66   129   130    1
    67    80    79    1
    68   130   131    1
    69    81    79    1
    70    92    91    1
    71    92    93    2
    72    79    76    1
    73    89    87    1
    74    91    90    1
    75   131   132    2
    76    88    87    1
    77    73    72    1
    78    74    72    1
    79    72    69    1
    80    87    84    1
    81    76    75    1
    82    76    77    1
    83    84    85    1
    84    84    83    1
    85    37    35    1
    86    36    38    1
    87    36    35    1
    88    71    70    2
    89    77    78    2
    90    85    86    2
    91    34    33    2
    92    69    70    1
    93    69    68    1
    94    45    44    2
    95    33    32    1
    96    35    32    1
    97    43    44    1
    98    43    40    1
    99    68    58   am
   100    23    22    2
   101    44    46   am
   102    42    41    2
   103    32    31    1
   104    39    40    1
   105    24    25    1
   106    24    21    1
   107    22    21    1
   108    58    59    2
   109    58    57    1
   110    40    41    1
   111    27    25   ar
   112    27    29   ar
   113    41    47   am
   114    25    26   ar
   115    29    30   ar
   116    57    56    1
   117    57    60    1
   118    21    20    1
   119    26    28   ar
   120    30    28   ar
   121    56    54   am
   122    47    48    1
   123    55    54    2
   124    48    49    1
   125    48    51    1
   126    54    53    1
   127    60    61    1
   128    52    49   am
   129    52    53    1
   130    49    50    2
   131    61    62   ar
   132    61    63   ar
   133    62    64   ar
   134    63    65   ar
   135    64    66   ar
   136    16    13    1
   137    16    17    1
   138    13    14    1
   139    13    12    1
   140    10     9    2
   141    15    14    2
   142    65    66   ar
   143    66    67    1
   144    19    17   ar
   145     2     1    1
   146     2     3    1
   147     2     5    1
   148     4     3    2
   149    17    18   ar
   150     3     7   am
   151     9    12   am
   152     9     8    1
   153     5     6    1
   154     7     8    1
   155     8    11    1
