@<TRIPOS>MOLECULE
tmp/3h9rA00.pdb
 167 159 0 0 0
SMALL
GASTEIGER

@<TRIPOS>ATOM
      1  N         16.0920   18.7060  165.1310 N.3    41  GLU41      -0.1231
      2  CA        15.5060   19.2020  163.8800 C.3    41  GLU41       0.1699
      3  C         15.6350   18.2470  162.7240 C.2    41  GLU41       0.2592
      4  O         16.6520   17.5830  162.5770 O.2    41  GLU41      -0.2718
      5  CB        16.0410   20.6000  163.5050 C.3    41  GLU41       0.0402
      6  CG        17.2300   20.6590  162.5850 C.3    41  GLU41       0.1161
      7  CD        17.6200   22.0970  162.1840 C.2    41  GLU41       0.3649
      8  OE1       16.7370   22.8650  161.7680 O.co2  41  GLU41      -0.2457
      9  OE2       18.8150   22.4410  162.2940 O.co2  41  GLU41      -0.2457
     10  N         14.5740   18.1600  161.9250 N.am   42  CYS42      -0.1956
     11  CA        14.5670   17.3090  160.7430 C.3    42  CYS42       0.1843
     12  C         15.3640   17.9310  159.5830 C.2    42  CYS42       0.2625
     13  O         15.0150   18.9990  159.1080 O.2    42  CYS42      -0.2714
     14  CB        13.1430   17.0440  160.2570 C.3    42  CYS42       0.0997
     15  SG        13.1380   15.9810  158.7470 S.3    42  CYS42      -0.0797
     16  N         16.4000   17.2390  159.1230 N.am   43  VAL43      -0.1963
     17  CA        17.2440   17.7820  158.0730 C.3    43  VAL43       0.1727
     18  C         17.1620   17.0310  156.7600 C.2    43  VAL43       0.2616
     19  O         17.7070   17.4790  155.7850 O.2    43  VAL43      -0.2715
     20  CB        18.7190   17.8860  158.5320 C.3    43  VAL43       0.0290
     21  CG1       18.8240   18.8140  159.7490 C.3    43  VAL43       0.0023
     22  CG2       19.2630   16.5670  158.8350 C.3    43  VAL43       0.0023
     23  N         16.4800   15.8970  156.7200 N.am   44  GLY44      -0.1955
     24  CA        16.2100   15.2370  155.4350 C.3    44  GLY44       0.1869
     25  C         14.9720   14.3710  155.4870 C.2    44  GLY44       0.2309
     26  O         14.5670   13.9170  156.5650 O.2    44  GLY44      -0.2863
     27  N         16.0800   11.9140  158.3320 N.3    51  VAL51      -0.1245
     28  CA        17.2470   12.1650  159.1500 C.3    51  VAL51       0.1561
     29  C         17.0360   13.3730  160.0360 C.2    51  VAL51       0.2260
     30  O         16.5870   14.4250  159.5580 O.2    51  VAL51      -0.2867
     31  CB        18.4900   12.4740  158.3180 C.3    51  VAL51       0.0252
     32  CG1       19.6880   12.6820  159.2580 C.3    51  VAL51       0.0019
     33  CG2       18.7820   11.3580  157.2810 C.3    51  VAL51       0.0019
     34  N         23.6440   12.6270  163.8480 N.3    62  ALA62      -0.1245
     35  CA        22.5740   12.4220  162.8740 C.3    62  ALA62       0.1562
     36  C         21.8340   11.1710  163.3000 C.2    62  ALA62       0.2260
     37  O         22.4370   10.1470  163.6200 O.2    62  ALA62      -0.2867
     38  CB        23.1100   12.2840  161.4320 C.3    62  ALA62       0.0290
     39  N         19.0250    8.6820  161.7020 N.3    64  LYS64      -0.1245
     40  CA        18.1370    8.2530  160.6210 C.3    64  LYS64       0.1561
     41  C         17.0690    7.3690  161.2470 C.2    64  LYS64       0.2260
     42  O         17.3630    6.4370  161.9450 O.2    64  LYS64      -0.2867
     43  CB        18.9050    7.4930  159.5360 C.3    64  LYS64       0.0271
     44  CG        18.0850    7.1860  158.2330 C.3    64  LYS64       0.0035
     45  CD        19.0150    6.6930  157.1150 C.3    64  LYS64       0.0206
     46  CE        18.2380    6.3810  155.8530 C.3    64  LYS64       0.1093
     47  NZ        19.0330    5.6900  154.7990 N.3    64  LYS64      -0.1314
     48  N         22.1410   -2.2270  157.1230 N.3    77  GLU77      -0.1245
     49  CA        23.1240   -1.2020  157.4320 C.3    77  GLU77       0.1567
     50  C         23.7370   -1.4190  158.8290 C.2    77  GLU77       0.2260
     51  O         24.9730   -1.3070  159.0260 O.2    77  GLU77      -0.2867
     52  CB        22.5510    0.2130  157.2720 C.3    77  GLU77       0.0388
     53  CG        23.6160    1.2450  156.9940 C.3    77  GLU77       0.1160
     54  CD        23.0960    2.6500  156.6910 C.2    77  GLU77       0.3649
     55  OE1       21.8730    2.9000  156.7310 O.co2  77  GLU77      -0.2457
     56  OE2       23.9490    3.5220  156.4230 O.co2  77  GLU77      -0.2457
     57  N         30.7920    7.4450  155.9040 N.3    92  LEU92      -0.1245
     58  CA        30.0850    8.0660  157.0210 C.3    92  LEU92       0.1561
     59  C         30.3560    7.2670  158.2820 C.2    92  LEU92       0.2260
     60  O         30.2090    6.0430  158.2750 O.2    92  LEU92      -0.2867
     61  CB        28.5990    8.0800  156.7330 C.3    92  LEU92       0.0270
     62  CG        27.6280    8.5920  157.7860 C.3    92  LEU92       0.0019
     63  CD1       27.8970   10.0530  158.1560 C.3    92  LEU92       0.0001
     64  CD2       26.1940    8.4260  157.3040 C.3    92  LEU92       0.0001
     65  N         19.3890    4.6240  163.2630 N.3   107  LEU107     -0.1245
     66  CA        20.7940    4.4790  162.9960 C.3   107  LEU107      0.1561
     67  C         21.3870    5.8400  163.2510 C.2   107  LEU107      0.2260
     68  O         20.9670    6.8220  162.6650 O.2   107  LEU107     -0.2867
     69  CB        21.0200    4.0790  161.5380 C.3   107  LEU107      0.0270
     70  CG        22.4470    3.7160  161.1160 C.3   107  LEU107      0.0019
     71  CD1       22.6420    2.1970  161.1360 C.3   107  LEU107      0.0001
     72  CD2       22.7000    4.2790  159.7050 C.3   107  LEU107      0.0001
     73  N         24.7550    8.2720  163.5030 N.3   109  THR109     -0.1203
     74  CA        26.0500    8.5010  162.9060 C.3   109  THR109      0.1994
     75  C         26.5900    9.8810  163.2370 C.2   109  THR109      0.2618
     76  O         25.9100   10.7130  163.8630 O.2   109  THR109     -0.2717
     77  CB        25.9910    8.3930  161.3430 C.3   109  THR109      0.1784
     78  OG1       25.5290    9.6310  160.7670 O.3   109  THR109     -0.2211
     79  CG2       25.0720    7.2510  160.9310 C.3   109  THR109      0.0376
     80  N         27.8370   10.1230  162.8180 N.am  110  HIS110     -0.1961
     81  CA        28.3860   11.4820  162.7970 C.3   110  HIS110      0.1787
     82  C         27.4350   12.3540  162.0120 C.2   110  HIS110      0.2620
     83  O         26.8140   11.8670  161.0550 O.2   110  HIS110     -0.2715
     84  CB        29.7380   11.5040  162.1090 C.3   110  HIS110      0.0785
     85  CG        30.4940   12.7790  162.2860 C.ar  110  HIS110      0.0821
     86  ND1       31.2710   13.0390  163.4010 N.ar  110  HIS110     -0.2267
     87  CD2       30.6230   13.8600  161.4750 C.ar  110  HIS110      0.1154
     88  CE1       31.8490   14.2180  163.2610 C.ar  110  HIS110      0.1986
     89  NE2       31.4600   14.7430  162.1060 N.ar  110  HIS110     -0.2212
     90  N         27.3190   13.6220  162.4270 N.am  111  TYR111     -0.1960
     91  CA        26.5040   14.6300  161.7570 C.3   111  TYR111      0.1771
     92  C         27.3570   15.5370  160.8970 C.2   111  TYR111      0.2620
     93  O         28.2920   16.1430  161.3920 O.2   111  TYR111     -0.2715
     94  CB        25.8480   15.5230  162.8070 C.3   111  TYR111      0.0574
     95  CG        24.9600   16.6240  162.2610 C.ar  111  TYR111     -0.0198
     96  CD1       23.7490   16.3150  161.6480 C.ar  111  TYR111     -0.0009
     97  CD2       25.3030   17.9790  162.3960 C.ar  111  TYR111     -0.0009
     98  CE1       22.9130   17.3000  161.1600 C.ar  111  TYR111      0.0417
     99  CE2       24.4670   18.9800  161.9110 C.ar  111  TYR111      0.0417
    100  CZ        23.2590   18.6130  161.3030 C.ar  111  TYR111      0.1957
    101  OH        22.3840   19.5560  160.8230 O.3   111  TYR111     -0.2866
    102  N         26.9840   15.6950  159.6320 N.am  112  HIS112     -0.1959
    103  CA        27.6740   16.6190  158.7330 C.3   112  HIS112      0.1787
    104  C         26.8310   17.8250  158.3920 C.2   112  HIS112      0.2620
    105  O         25.9270   17.7260  157.5550 O.2   112  HIS112     -0.2715
    106  CB        28.1270   15.8750  157.4710 C.3   112  HIS112      0.0785
    107  CG        29.1640   14.8330  157.7570 C.ar  112  HIS112      0.0821
    108  ND1       30.4620   15.1500  158.1050 N.ar  112  HIS112     -0.2267
    109  CD2       29.0850   13.4770  157.7790 C.ar  112  HIS112      0.1154
    110  CE1       31.1390   14.0330  158.3060 C.ar  112  HIS112      0.1986
    111  NE2       30.3250   13.0050  158.1200 N.ar  112  HIS112     -0.2212
    112  N         27.1400   18.9720  158.9980 N.am  113  GLU113     -0.1963
    113  CA        26.2630   20.1160  158.8660 C.3   113  GLU113      0.1733
    114  C         26.1970   20.7200  157.4520 C.2   113  GLU113      0.2616
    115  O         25.2500   21.4470  157.1320 O.2   113  GLU113     -0.2715
    116  CB        26.5880   21.1820  159.8970 C.3   113  GLU113      0.0429
    117  CG        27.8760   21.9680  159.6340 C.3   113  GLU113      0.1163
    118  CD        28.1960   22.9130  160.7860 C.2   113  GLU113      0.3649
    119  OE1       27.3760   23.0200  161.7370 O.co2 113  GLU113     -0.2457
    120  OE2       29.2560   23.5500  160.7350 O.co2 113  GLU113     -0.2457
    121  N         27.1820   20.4220  156.5980 N.am  114  MET114     -0.1963
    122  CA        27.1720   20.9730  155.2370 C.3   114  MET114      0.1736
    123  C         26.1150   20.2600  154.3990 C.2   114  MET114      0.2617
    124  O         25.6790   20.7730  153.3830 O.2   114  MET114     -0.2715
    125  CB        28.5280   20.7940  154.5550 C.3   114  MET114      0.0427
    126  CG        29.7750   21.3650  155.2460 C.3   114  MET114      0.0599
    127  SD        30.0480   23.0730  154.8800 S.3   114  MET114     -0.1393
    128  CE        28.8990   23.6890  156.0770 C.3   114  MET114      0.0692
    129  N         25.7050   19.0660  154.8070 N.am  115  GLY115     -0.1940
    130  CA        24.6590   18.3460  154.0750 C.3   115  GLY115      0.2014
    131  C         25.1430   17.5170  152.8900 C.2   115  GLY115      0.2639
    132  O         26.3420   17.1860  152.7790 O.2   115  GLY115     -0.2714
    133  N         24.1990   17.1740  152.0160 N.am  116  SER116     -0.1949
    134  CA        24.4870   16.3130  150.8930 C.3   116  SER116      0.1924
    135  C         25.1620   17.0410  149.7310 C.2   116  SER116      0.2314
    136  O         24.9450   18.2190  149.5120 O.2   116  SER116     -0.2863
    137  CB        23.2160   15.6400  150.3880 C.3   116  SER116      0.2116
    138  OG        22.4370   16.5210  149.6280 O.3   116  SER116     -0.2180
    139  N         22.6800   18.7410  147.3980 N.3   119  ASP119     -0.1239
    140  CA        22.3330   20.1210  147.7650 C.3   119  ASP119      0.1674
    141  C         23.5190   21.0580  147.6310 C.2   119  ASP119      0.2266
    142  O         23.3480   22.1900  147.1930 O.2   119  ASP119     -0.2867
    143  CB        21.7390   20.1800  149.1580 C.3   119  ASP119      0.1410
    144  CG        20.3730   19.5270  149.2210 C.2   119  ASP119      0.3668
    145  OD1       19.5740   19.7800  148.2920 O.co2 119  ASP119     -0.2456
    146  OD2       20.0900   18.7590  150.1690 O.co2 119  ASP119     -0.2456
    147  N         27.7830   13.0140  151.5290 N.3   169  LEU169     -0.1245
    148  CA        27.7390   14.1490  152.4190 C.3   169  LEU169      0.1561
    149  C         29.0160   14.9630  152.2440 C.2   169  LEU169      0.2260
    150  O         30.0440   14.4560  151.8410 O.2   169  LEU169     -0.2867
    151  CB        27.5800   13.6880  153.8760 C.3   169  LEU169      0.0270
    152  CG        26.2770   12.9180  154.1340 C.3   169  LEU169      0.0019
    153  CD1       26.2620   12.1530  155.4740 C.3   169  LEU169      0.0001
    154  CD2       25.0890   13.8540  154.0400 C.3   169  LEU169      0.0001
    155  N         27.6000    7.6810  152.2640 N.3   179  ALA179     -0.1231
    156  CA        26.6410    7.2320  153.2920 C.3   179  ALA179      0.1694
    157  C         25.7150    6.2030  152.7080 C.2   179  ALA179      0.2592
    158  O         25.7240    5.9610  151.5110 O.2   179  ALA179     -0.2718
    159  CB        25.8090    8.3850  153.8160 C.3   179  ALA179      0.0304
    160  N         24.9050    5.6220  153.5880 N.am  180  ASP180     -0.1974
    161  CA        23.7390    4.8180  153.2360 C.3   180  ASP180      0.1709
    162  C         24.1410    3.5010  152.6320 C.2   180  ASP180      0.2293
    163  O         24.0140    3.3070  151.4510 O.2   180  ASP180     -0.2864
    164  CB        22.7610    5.5540  152.3160 C.3   180  ASP180      0.1436
    165  CG        21.3840    4.8180  152.1870 C.2   180  ASP180      0.3671
    166  OD1       21.2340    3.6320  152.6040 O.co2 180  ASP180     -0.2456
    167  OD2       20.4240    5.4490  151.6860 O.co2 180  ASP180     -0.2456
@<TRIPOS>BOND
     1   142   141    2
     2   139   140    1
     3   141   140    1
     4   140   143    1
     5   145   144   ar
     6   143   144    1
     7   144   146   ar
     8   136   135    2
     9   138   137    1
    10   135   134    1
    11   137   134    1
    12   134   133    1
    13   163   162    2
    14   158   157    2
    15   147   148    1
    16   167   165   ar
    17   150   149    2
    18   133   131   am
    19   165   164    1
    20   165   166   ar
    21   149   148    1
    22   155   156    1
    23   164   161    1
    24   148   151    1
    25   162   161    1
    26   157   156    1
    27   157   160   am
    28   132   131    2
    29   131   130    1
    30   161   160    1
    31   156   159    1
    32   124   123    2
    33   151   152    1
    34   154   152    1
    35   130   129    1
    36   152   153    1
    37   123   129   am
    38   123   122    1
    39   125   122    1
    40   125   126    1
    41    47    46    1
    42   127   126    1
    43   127   128    1
    44   122   121    1
    45    24    25    1
    46    24    23    1
    47    25    26    2
    48    19    18    2
    49    46    45    1
    50    57    58    1
    51    56    54   ar
    52   121   114   am
    53    54    55   ar
    54    54    53    1
    55    23    18   am
    56    61    58    1
    57    61    62    1
    58    18    17    1
    59    53    52    1
    60    58    59    1
    61    45    44    1
    62    48    49    1
    63   115   114    2
    64    52    49    1
    65    33    31    1
    66    64    62    1
    67    49    50    1
    68   114   113    1
    69   106   107    1
    70   106   103    1
    71   105   104    2
    72   107   109   ar
    73   107   108   ar
    74   109   111   ar
    75    62    63    1
    76    17    20    1
    77    17    16    1
    78   108   110   ar
    79   111   110   ar
    80    44    43    1
    81    60    59    2
    82    31    28    1
    83    31    32    1
    84    27    28    1
    85   104   103    1
    86   104   112   am
    87    20    22    1
    88    20    21    1
    89   103   102    1
    90    15    14    1
    91    50    51    2
    92   113   112    1
    93   113   116    1
    94    13    12    2
    95    16    12   am
    96    28    29    1
    97    43    40    1
    98    30    29    2
    99    12    11    1
   100   102    92   am
   101   117   116    1
   102   117   118    1
   103    72    70    1
   104    14    11    1
   105    40    41    1
   106    40    39    1
   107   120   118   ar
   108    11    10    1
   109    78    77    1
   110   118   119   ar
   111   101   100    1
   112    92    93    2
   113    92    91    1
   114    79    77    1
   115    83    82    2
   116    70    71    1
   117    70    69    1
   118    98   100   ar
   119    98    96   ar
   120    41    42    2
   121   100    99   ar
   122    77    74    1
   123    38    35    1
   124    87    89   ar
   125    87    85   ar
   126    69    66    1
   127    96    95   ar
   128    91    90    1
   129    91    94    1
   130     8     7   ar
   131    99    97   ar
   132    10     3   am
   133    82    90   am
   134    82    81    1
   135    89    88   ar
   136    84    85    1
   137    84    81    1
   138     7     9   ar
   139     7     6    1
   140    95    97   ar
   141    95    94    1
   142    85    86   ar
   143     4     3    2
   144     6     5    1
   145    68    67    2
   146     3     2    1
   147    81    80    1
   148    80    75   am
   149    35    36    1
   150    35    34    1
   151    74    75    1
   152    74    73    1
   153    66    67    1
   154    66    65    1
   155    75    76    2
   156    88    86   ar
   157    36    37    2
   158     5     2    1
   159     2     1    1
