@<TRIPOS>MOLECULE
tmp/3h9rA01.pdb
 131 126 0 0 0
SMALL
GASTEIGER

@<TRIPOS>ATOM
      1  N         32.0460   10.8460  172.7210 N.3     9  LEU9       -0.1231
      2  CA        31.8960    9.7960  171.6920 C.3     9  LEU9        0.1693
      3  C         33.2510    9.3860  171.0660 C.2     9  LEU9        0.2591
      4  O         33.4630    8.2100  170.7430 O.2     9  LEU9       -0.2718
      5  CB        30.9260   10.2690  170.5940 C.3     9  LEU9        0.0284
      6  CG        29.4620   10.4640  171.0280 C.3     9  LEU9        0.0019
      7  CD1       28.5960   11.1170  169.9740 C.3     9  LEU9        0.0001
      8  CD2       28.8760    9.1470  171.3610 C.3     9  LEU9        0.0001
      9  N         34.1490   10.3580  170.8760 N.am   10  ALA10      -0.1980
     10  CA        35.4810   10.0730  170.3630 C.3    10  ALA10       0.1597
     11  C         36.2050    9.0910  171.3070 C.2    10  ALA10       0.2287
     12  O         36.8440    8.1750  170.8690 O.2    10  ALA10      -0.2864
     13  CB        36.2790   11.3640  170.1580 C.3    10  ALA10       0.0319
     14  N         34.3360    5.7370  170.9610 N.3    13  LEU13      -0.1245
     15  CA        34.6710    5.0910  169.6860 C.3    13  LEU13       0.1561
     16  C         36.1100    4.5850  169.6000 C.2    13  LEU13       0.2260
     17  O         36.4110    3.6980  168.7970 O.2    13  LEU13      -0.2867
     18  CB        34.4380    6.0580  168.5240 C.3    13  LEU13       0.0270
     19  CG        32.9750    6.3770  168.2360 C.3    13  LEU13       0.0019
     20  CD1       32.8950    7.6040  167.3920 C.3    13  LEU13       0.0001
     21  CD2       32.3020    5.2050  167.5540 C.3    13  LEU13       0.0001
     22  N         27.0220   17.0560  172.0580 N.3    59  GLU59      -0.1231
     23  CA        27.5600   16.7630  170.7070 C.3    59  GLU59       0.1699
     24  C         26.4670   16.4970  169.6970 C.2    59  GLU59       0.2592
     25  O         25.5380   15.7440  169.9670 O.2    59  GLU59      -0.2718
     26  CB        28.4280   15.5110  170.6930 C.3    59  GLU59       0.0402
     27  CG        29.4960   15.4770  171.7290 C.3    59  GLU59       0.1161
     28  CD        30.4310   14.2690  171.5750 C.2    59  GLU59       0.3649
     29  OE1       31.0310   14.0810  170.4970 O.co2  59  GLU59      -0.2457
     30  OE2       30.5890   13.5510  172.5650 O.co2  59  GLU59      -0.2457
     31  N         26.6390   17.0420  168.4980 N.am   60  ASN60      -0.1974
     32  CA        25.7530   16.7200  167.3800 C.3    60  ASN60       0.1688
     33  C         25.8800   15.3030  166.8860 C.2    60  ASN60       0.2292
     34  O         27.0110   14.7970  166.7480 O.2    60  ASN60      -0.2864
     35  CB        25.9800   17.6640  166.2170 C.3    60  ASN60       0.1181
     36  CG        25.6140   19.0770  166.5700 C.2    60  ASN60       0.2629
     37  OD1       24.7400   19.3220  167.4270 O.2    60  ASN60      -0.2716
     38  ND2       26.2630   20.0200  165.9160 N.am   60  ASN60      -0.0877
     39  N         36.6140    4.8630  158.0270 N.3    88  HIS88      -0.1226
     40  CA        37.4020    5.5770  157.0290 C.3    88  HIS88       0.1752
     41  C         36.8570    7.0070  156.9060 C.2    88  HIS88       0.2595
     42  O         35.6530    7.2420  157.0210 O.2    88  HIS88      -0.2718
     43  CB        37.3160    4.8480  155.7120 C.3    88  HIS88       0.0759
     44  CG        38.2430    5.3670  154.6670 C.ar   88  HIS88       0.0818
     45  ND1       37.9160    6.4280  153.8520 N.ar   88  HIS88      -0.2268
     46  CD2       39.4640    4.9400  154.2610 C.ar   88  HIS88       0.1154
     47  CE1       38.9090    6.6490  153.0020 C.ar   88  HIS88       0.1986
     48  NE2       39.8550    5.7540  153.2240 N.ar   88  HIS88      -0.2212
     49  N         37.7600    7.9610  156.6650 N.am   89  GLU89      -0.1979
     50  CA        37.3800    9.3540  156.7330 C.3    89  GLU89       0.1602
     51  C         36.4570    9.8170  155.5910 C.2    89  GLU89       0.2287
     52  O         35.8870   10.8880  155.6830 O.2    89  GLU89      -0.2864
     53  CB        38.6240   10.2360  156.8830 C.3    89  GLU89       0.0415
     54  CG        39.3700   10.5220  155.6560 C.3    89  GLU89       0.1163
     55  CD        40.6270   11.3810  155.9360 C.2    89  GLU89       0.3649
     56  OE1       40.7120   11.9960  157.0340 O.co2  89  GLU89      -0.2457
     57  OE2       41.5200   11.4570  155.0500 O.co2  89  GLU89      -0.2457
     58  N         33.9440    7.5920  154.4960 N.3    91  ILE91      -0.1231
     59  CA        32.7600    6.7630  154.6870 C.3    91  ILE91       0.1692
     60  C         32.1070    7.2560  155.9620 C.2    91  ILE91       0.2592
     61  O         32.7740    7.4810  156.9820 O.2    91  ILE91      -0.2718
     62  CB        33.1780    5.2810  154.8070 C.3    91  ILE91       0.0266
     63  CG1       33.7780    4.8350  153.4680 C.3    91  ILE91       0.0019
     64  CG2       31.9860    4.3810  155.2090 C.3    91  ILE91       0.0020
     65  CD1       34.1350    3.3950  153.4200 C.3    91  ILE91       0.0001
     66  N         30.7920    7.4450  155.9040 N.am   92  LEU92      -0.1966
     67  CA        30.0850    8.0660  157.0210 C.3    92  LEU92       0.1728
     68  C         30.3560    7.2670  158.2820 C.2    92  LEU92       0.2617
     69  O         30.2090    6.0430  158.2750 O.2    92  LEU92      -0.2715
     70  CB        28.5990    8.0800  156.7330 C.3    92  LEU92       0.0311
     71  CG        27.6280    8.5920  157.7860 C.3    92  LEU92       0.0022
     72  CD1       27.8970   10.0530  158.1560 C.3    92  LEU92       0.0001
     73  CD2       26.1940    8.4260  157.3040 C.3    92  LEU92       0.0001
     74  N         30.7650    7.9540  159.3490 N.am   93  GLY93      -0.1940
     75  CA        31.0760    7.3210  160.6110 C.3    93  GLY93       0.2014
     76  C         29.8760    6.8600  161.4370 C.2    93  GLY93       0.2639
     77  O         29.1340    7.6620  162.0490 O.2    93  GLY93      -0.2714
     78  N         29.6730    5.5590  161.4430 N.am   94  PHE94      -0.1959
     79  CA        28.6170    4.9400  162.2630 C.3    94  PHE94       0.1771
     80  C         28.9250    5.0280  163.7810 C.2    94  PHE94       0.2619
     81  O         30.0460    4.8420  164.1760 O.2    94  PHE94      -0.2715
     82  CB        28.4430    3.4850  161.8290 C.3    94  PHE94       0.0574
     83  CG        27.5730    2.6890  162.7410 C.ar   94  PHE94      -0.0200
     84  CD1       26.2030    2.7720  162.6370 C.ar   94  PHE94      -0.0042
     85  CD2       28.1340    1.8650  163.7100 C.ar   94  PHE94      -0.0042
     86  CE1       25.3950    2.0350  163.4550 C.ar   94  PHE94      -0.0003
     87  CE2       27.3590    1.1470  164.5310 C.ar   94  PHE94      -0.0003
     88  CZ        25.9700    1.2090  164.4110 C.ar   94  PHE94      -0.0000
     89  N         27.9180    5.3480  164.5920 N.am   95  ILE95      -0.1977
     90  CA        28.0270    5.4180  166.0740 C.3    95  ILE95       0.1596
     91  C         27.2380    4.2820  166.7750 C.2    95  ILE95       0.2287
     92  O         27.7530    3.5310  167.6040 O.2    95  ILE95      -0.2864
     93  CB        27.5080    6.8200  166.5530 C.3    95  ILE95       0.0276
     94  CG1       28.4440    7.9330  166.0370 C.3    95  ILE95       0.0022
     95  CG2       27.3260    6.8810  168.0690 C.3    95  ILE95       0.0022
     96  CD1       27.9610    9.3990  166.3730 C.3    95  ILE95       0.0001
     97  N         27.8370   10.1230  162.8180 N.3   110  HIS110     -0.1241
     98  CA        28.3860   11.4820  162.7970 C.3   110  HIS110      0.1621
     99  C         27.4350   12.3540  162.0120 C.2   110  HIS110      0.2264
    100  O         26.8140   11.8670  161.0550 O.2   110  HIS110     -0.2867
    101  CB        29.7380   11.5040  162.1090 C.3   110  HIS110      0.0745
    102  CG        30.4940   12.7790  162.2860 C.ar  110  HIS110      0.0817
    103  ND1       31.2710   13.0390  163.4010 N.ar  110  HIS110     -0.2268
    104  CD2       30.6230   13.8600  161.4750 C.ar  110  HIS110      0.1154
    105  CE1       31.8490   14.2180  163.2610 C.ar  110  HIS110      0.1986
    106  NE2       31.4600   14.7430  162.1060 N.ar  110  HIS110     -0.2212
    107  N         26.9840   15.6950  159.6320 N.3   112  HIS112     -0.1241
    108  CA        27.6740   16.6190  158.7330 C.3   112  HIS112      0.1621
    109  C         26.8310   17.8250  158.3920 C.2   112  HIS112      0.2264
    110  O         25.9270   17.7260  157.5550 O.2   112  HIS112     -0.2867
    111  CB        28.1270   15.8750  157.4710 C.3   112  HIS112      0.0745
    112  CG        29.1640   14.8330  157.7570 C.ar  112  HIS112      0.0817
    113  ND1       30.4620   15.1500  158.1050 N.ar  112  HIS112     -0.2268
    114  CD2       29.0850   13.4770  157.7790 C.ar  112  HIS112      0.1154
    115  CE1       31.1390   14.0330  158.3060 C.ar  112  HIS112      0.1986
    116  NE2       30.3250   13.0050  158.1200 N.ar  112  HIS112     -0.2212
    117  N         31.8830   17.2860  153.9810 N.3   171  LYS171     -0.1245
    118  CA        32.5110   17.5950  155.2420 C.3   171  LYS171      0.1561
    119  C         32.9800   19.0460  155.2000 C.2   171  LYS171      0.2260
    120  O         33.2010   19.6000  154.1460 O.2   171  LYS171     -0.2867
    121  CB        33.6910   16.6430  155.4830 C.3   171  LYS171      0.0271
    122  CG        33.3260   15.1690  155.3450 C.3   171  LYS171      0.0035
    123  CD        34.2050   14.2350  156.1600 C.3   171  LYS171      0.0206
    124  CE        35.5840   14.1370  155.6320 C.3   171  LYS171      0.1093
    125  NZ        36.4510   13.4900  156.6310 N.3   171  LYS171     -0.1314
    126  N         31.9680   12.1980  152.1600 N.3   177  CYS177     -0.1235
    127  CA        31.9460   10.8560  152.6510 C.3   177  CYS177      0.1677
    128  C         30.7040   10.1630  152.1430 C.2   177  CYS177      0.2270
    129  O         29.6250   10.7760  152.0270 O.2   177  CYS177     -0.2867
    130  CB        32.0580   10.7990  154.1660 C.3   177  CYS177      0.0956
    131  SG        30.6820   11.4380  155.0900 S.3   177  CYS177     -0.0801
@<TRIPOS>BOND
     1   129   128    2
     2   128   127    1
     3   126   127    1
     4   127   130    1
     5    47    48   ar
     6    47    45   ar
     7    48    46   ar
     8    65    63    1
     9    63    62    1
    10    45    44   ar
    11   117   118    1
    12   120   119    2
    13   130   131    1
    14    46    44   ar
    15    58    59    1
    16    44    43    1
    17    59    62    1
    18    59    60    1
    19    62    64    1
    20    57    55   ar
    21   119   118    1
    22   118   121    1
    23   122   121    1
    24   122   123    1
    25    51    52    2
    26    51    50    1
    27   124   123    1
    28   124   125    1
    29    54    55    1
    30    54    53    1
    31    43    40    1
    32    66    60   am
    33    66    67    1
    34    55    56   ar
    35    60    61    2
    36    49    50    1
    37    49    41   am
    38    70    67    1
    39    70    71    1
    40    50    53    1
    41    41    42    2
    42    41    40    1
    43    67    68    1
    44    40    39    1
    45    73    71    1
    46   111   112    1
    47   111   108    1
    48   110   109    2
    49   112   114   ar
    50   112   113   ar
    51   114   116   ar
    52    71    72    1
    53   113   115   ar
    54   116   115   ar
    55    69    68    2
    56    68    74   am
    57   109   108    1
    58   108   107    1
    59    74    75    1
    60    75    76    1
    61   100    99    2
    62    76    78   am
    63    76    77    2
    64    78    79    1
    65   104   106   ar
    66   104   102   ar
    67    82    79    1
    68    82    83    1
    69    99    98    1
    70   106   105   ar
    71   101   102    1
    72   101    98    1
    73    79    80    1
    74   102   103   ar
    75    84    83   ar
    76    84    86   ar
    77    83    85   ar
    78    98    97    1
    79   105   103   ar
    80    86    88   ar
    81    85    87   ar
    82    80    81    2
    83    80    89   am
    84    88    87   ar
    85    89    90    1
    86    38    36   am
    87    94    96    1
    88    94    93    1
    89    90    93    1
    90    90    91    1
    91    35    36    1
    92    35    32    1
    93    93    95    1
    94    36    37    2
    95    34    33    2
    96    91    92    2
    97    33    32    1
    98    32    31    1
    99    20    19    1
   100    21    19    1
   101    19    18    1
   102    31    24   am
   103    18    15    1
   104    17    16    2
   105    16    15    1
   106    15    14    1
   107    24    25    2
   108    24    23    1
   109     7     6    1
   110    13    10    1
   111    10     9    1
   112    10    11    1
   113    29    28   ar
   114     5     6    1
   115     5     2    1
   116    26    23    1
   117    26    27    1
   118    23    22    1
   119     4     3    2
   120    12    11    2
   121     9     3   am
   122     6     8    1
   123     3     2    1
   124    28    27    1
   125    28    30   ar
   126     2     1    1
