@<TRIPOS>MOLECULE
tmp/3h9uC01.pdb
 121 114 0 0 0
SMALL
GASTEIGER

@<TRIPOS>ATOM
      1  N        -15.8160   29.5970  117.4980 N.3    50  LEU50      -0.1231
      2  CA       -16.0930   28.5790  116.5320 C.3    50  LEU50       0.1693
      3  C        -16.2790   29.2730  115.1980 C.2    50  LEU50       0.2592
      4  O        -17.0140   30.2420  115.0910 O.2    50  LEU50      -0.2718
      5  CB       -17.3470   27.8250  116.9620 C.3    50  LEU50       0.0284
      6  CG       -17.6110   26.4470  116.3360 C.3    50  LEU50       0.0019
      7  CD1      -18.4920   25.6420  117.2850 C.3    50  LEU50       0.0001
      8  CD2      -18.2390   26.5410  114.9930 C.3    50  LEU50       0.0001
      9  N        -15.6030   28.7500  114.1870 N.am   51  HIS51      -0.1976
     10  CA       -15.6730   29.2170  112.7690 C.3    51  HIS51       0.1656
     11  C        -16.9910   29.8740  112.4450 C.2    51  HIS51       0.2291
     12  O        -18.0540   29.2250  112.4760 O.2    51  HIS51      -0.2864
     13  CB       -15.4710   28.0760  111.8100 C.3    51  HIS51       0.0771
     14  CG       -14.3060   27.1910  112.1210 C.ar   51  HIS51       0.0820
     15  ND1      -12.9940   27.5870  111.9320 N.ar   51  HIS51      -0.2267
     16  CD2      -14.2560   25.8900  112.4900 C.ar   51  HIS51       0.1154
     17  CE1      -12.1890   26.5950  112.2750 C.ar   51  HIS51       0.1986
     18  NE2      -12.9280   25.5530  112.6120 N.ar   51  HIS51      -0.2212
     19  N        -19.2860   30.7070  110.2570 N.3    53  THR53      -0.1218
     20  CA       -19.7610   30.3430  108.9320 C.3    53  THR53       0.1862
     21  C        -21.3010   30.3920  108.9390 C.2    53  THR53       0.2287
     22  O        -21.9180   30.6380  109.9820 O.2    53  THR53      -0.2866
     23  CB       -19.3630   28.8960  108.6110 C.3    53  THR53       0.1770
     24  OG1      -20.0440   28.0350  109.5170 O.3    53  THR53      -0.2211
     25  CG2      -17.7930   28.6640  108.7380 C.3    53  THR53       0.0375
     26  N        -23.2930   27.9240  108.6710 N.3    55  GLN55      -0.1231
     27  CA       -23.7140   26.8370  109.5650 C.3    55  GLN55       0.1698
     28  C        -23.7020   27.2450  111.0390 C.2    55  GLN55       0.2592
     29  O        -24.6460   26.9950  111.7920 O.2    55  GLN55      -0.2718
     30  CB       -22.8690   25.5550  109.2970 C.3    55  GLN55       0.0381
     31  CG       -23.0150   25.0250  107.8730 C.3    55  GLN55       0.0905
     32  CD       -22.3660   25.8920  106.7910 C.2    55  GLN55       0.2608
     33  OE1      -21.3400   26.5250  107.0180 O.2    55  GLN55      -0.2717
     34  NE2      -22.9780   25.9120  105.5930 N.am   55  GLN55      -0.0878
     35  N        -22.6520   27.9360  111.4450 N.am   56  THR56      -0.1953
     36  CA       -22.5310   28.3830  112.8080 C.3    56  THR56       0.1897
     37  C        -23.6150   29.4490  113.1210 C.2    56  THR56       0.2313
     38  O        -24.1230   29.5300  114.2320 O.2    56  THR56      -0.2863
     39  CB       -21.0720   28.8760  113.0930 C.3    56  THR56       0.1794
     40  OG1      -20.1590   27.7650  113.0080 O.3    56  THR56      -0.2208
     41  CG2      -20.9540   29.5340  114.4790 C.3    56  THR56       0.0378
     42  N        -14.1540   25.5260  119.8050 N.3   129  ASP129     -0.1239
     43  CA       -13.7190   24.6430  118.7240 C.3   129  ASP129      0.1674
     44  C        -12.2080   24.8170  118.6400 C.2   129  ASP129      0.2266
     45  O        -11.7010   25.7710  118.0210 O.2   129  ASP129     -0.2867
     46  CB       -14.4450   24.9840  117.4010 C.3   129  ASP129      0.1410
     47  CG       -14.0750   24.0520  116.2460 C.2   129  ASP129      0.3668
     48  OD1      -13.0700   23.3220  116.3270 O.co2 129  ASP129     -0.2456
     49  OD2      -14.8240   24.0190  115.2450 O.co2 129  ASP129     -0.2456
     50  N        -15.7280   21.1370  120.3800 N.3   153  GLU153     -0.1245
     51  CA       -16.1220   20.6440  119.0570 C.3   153  GLU153      0.1567
     52  C        -15.1840   19.6130  118.4400 C.2   153  GLU153      0.2260
     53  O        -15.6540   18.6920  117.7290 O.2   153  GLU153     -0.2867
     54  CB       -16.1240   21.8160  118.0470 C.3   153  GLU153      0.0388
     55  CG       -17.4480   22.3090  117.5150 C.3   153  GLU153      0.1160
     56  CD       -18.3920   21.2820  116.8680 C.2   153  GLU153      0.3649
     57  OE1      -18.3590   20.9740  115.6410 O.co2 153  GLU153     -0.2457
     58  OE2      -19.2590   20.8310  117.6190 O.co2 153  GLU153     -0.2457
     59  N        -19.1660   14.2960  110.6540 N.3   187  ASP187     -0.1239
     60  CA       -18.4330   15.5440  110.3990 C.3   187  ASP187      0.1674
     61  C        -16.9990   15.2400  110.0070 C.2   187  ASP187      0.2266
     62  O        -16.5920   15.5220  108.8600 O.2   187  ASP187     -0.2867
     63  CB       -18.5640   16.4190  111.6380 C.3   187  ASP187      0.1410
     64  CG       -17.6950   17.6980  111.6500 C.2   187  ASP187      0.3668
     65  OD1      -18.2290   18.6820  112.2400 O.co2 187  ASP187     -0.2456
     66  OD2      -16.5000   17.7220  111.2440 O.co2 187  ASP187     -0.2456
     67  N        -10.2740   23.5510  104.0950 N.3   343  ASN343     -0.1225
     68  CA       -11.6910   23.4720  103.7340 C.3   343  ASN343      0.1785
     69  C        -12.4130   24.7890  104.1020 C.2   343  ASN343      0.2597
     70  O        -13.2010   25.3040  103.3470 O.2   343  ASN343     -0.2718
     71  CB       -12.3750   22.2510  104.3570 C.3   343  ASN343      0.1169
     72  CG       -12.2880   22.2050  105.9210 C.2   343  ASN343      0.2627
     73  OD1      -11.3510   22.7430  106.5430 O.2   343  ASN343     -0.2716
     74  ND2      -13.2950   21.5450  106.5520 N.am  343  ASN343     -0.0877
     75  N        -12.0570   25.3510  105.2360 N.am  344  LEU344     -0.1980
     76  CA       -12.6470   26.6130  105.6800 C.3   344  LEU344      0.1596
     77  C        -11.9000   27.8280  105.1710 C.2   344  LEU344      0.2287
     78  O        -12.4910   28.8550  104.9370 O.2   344  LEU344     -0.2864
     79  CB       -12.6900   26.6270  107.1990 C.3   344  LEU344      0.0297
     80  CG       -13.7960   25.7470  107.7730 C.3   344  LEU344      0.0022
     81  CD1      -13.3750   25.1440  109.1040 C.3   344  LEU344      0.0001
     82  CD2      -15.1210   26.4840  107.9090 C.3   344  LEU344      0.0001
     83  N        -15.8110   26.6580  101.8940 N.3   348  SER348     -0.1202
     84  CA       -16.8630   27.0510  102.8430 C.3   348  SER348      0.2020
     85  C        -17.0140   26.1270  104.0470 C.2   348  SER348      0.2619
     86  O        -17.9910   26.2250  104.7990 O.2   348  SER348     -0.2717
     87  CB       -18.2190   27.1160  102.1130 C.3   348  SER348      0.2103
     88  OG       -18.1340   28.0050  100.9960 O.3   348  SER348     -0.2182
     89  N        -16.0220   25.2890  104.2860 N.am  349  GLY349     -0.1942
     90  CA       -16.1200   24.2860  105.3070 C.3   349  GLY349      0.2014
     91  C        -17.0790   23.2020  104.8730 C.2   349  GLY349      0.2638
     92  O        -17.4400   23.0990  103.7210 O.2   349  GLY349     -0.2714
     93  N        -17.4110   22.3460  105.8100 N.am  350  HIS350     -0.1973
     94  CA       -18.3540   21.2680  105.5960 C.3   350  HIS350      0.1656
     95  C        -19.7270   21.8480  105.2580 C.2   350  HIS350      0.2291
     96  O        -20.1290   22.9030  105.7820 O.2   350  HIS350     -0.2864
     97  CB       -18.5430   20.4160  106.8360 C.3   350  HIS350      0.0771
     98  CG       -17.3080   19.7730  107.3590 C.ar  350  HIS350      0.0820
     99  ND1      -16.1750   19.5630  106.6000 N.ar  350  HIS350     -0.2267
    100  CD2      -17.0740   19.2070  108.5600 C.ar  350  HIS350      0.1154
    101  CE1      -15.2780   18.9460  107.3450 C.ar  350  HIS350      0.1986
    102  NE2      -15.7930   18.7410  108.5460 N.ar  350  HIS350     -0.2212
    103  N        -23.0400   19.4770  109.2920 N.3   355  MET355     -0.1245
    104  CA       -22.8790   20.3920  110.4390 C.3   355  MET355      0.1570
    105  C        -24.1030   20.3840  111.3370 C.2   355  MET355      0.2261
    106  O        -23.9710   20.6330  112.5460 O.2   355  MET355     -0.2867
    107  CB       -22.4860   21.8130  110.0260 C.3   355  MET355      0.0387
    108  CG       -21.1570   21.8670  109.3350 C.3   355  MET355      0.0595
    109  SD       -19.7530   21.0650  110.1580 S.3   355  MET355     -0.1393
    110  CE       -19.8130   21.6760  111.8380 C.3   355  MET355      0.0692
    111  N        -23.7480   20.2610  115.3400 N.3   359  PHE359     -0.1241
    112  CA       -24.3270   21.3700  116.1080 C.3   359  PHE359      0.1605
    113  C        -25.5280   20.9550  116.9230 C.2   359  PHE359      0.2264
    114  O        -25.7630   21.5110  118.0080 O.2   359  PHE359     -0.2867
    115  CB       -24.5870   22.5360  115.1600 C.3   359  PHE359      0.0534
    116  CG       -23.3140   23.2090  114.6590 C.ar  359  PHE359     -0.0203
    117  CD1      -22.0650   22.9370  115.2260 C.ar  359  PHE359     -0.0042
    118  CD2      -23.3690   24.1100  113.6240 C.ar  359  PHE359     -0.0042
    119  CE1      -20.9150   23.5770  114.7750 C.ar  359  PHE359     -0.0003
    120  CE2      -22.2290   24.7540  113.1990 C.ar  359  PHE359     -0.0003
    121  CZ       -21.0210   24.4940  113.7670 C.ar  359  PHE359     -0.0000
@<TRIPOS>BOND
     1    88    87    1
     2    83    84    1
     3    87    84    1
     4    84    85    1
     5    70    69    2
     6    92    91    2
     7    68    67    1
     8    68    69    1
     9    68    71    1
    10    85    89   am
    11    85    86    2
    12    69    75   am
    13    89    90    1
    14    71    72    1
    15    91    90    1
    16    91    93   am
    17    78    77    2
    18    77    76    1
    19    75    76    1
    20    95    94    1
    21    95    96    2
    22    34    32   am
    23    94    93    1
    24    94    97    1
    25    76    79    1
    26    72    73    2
    27    72    74   am
    28    99   101   ar
    29    99    98   ar
    30    32    33    2
    31    32    31    1
    32    97    98    1
    33    79    80    1
    34   101   102   ar
    35    98   100   ar
    36    80    82    1
    37    80    81    1
    38    31    30    1
    39   102   100   ar
    40    23    25    1
    41    23    20    1
    42    23    24    1
    43    26    27    1
    44    62    61    2
    45    20    21    1
    46    20    19    1
    47    21    22    2
    48   103   104    1
    49    30    27    1
    50   108   107    1
    51   108   109    1
    52    27    28    1
    53    61    60    1
    54   107   104    1
    55   109   110    1
    56    60    59    1
    57    60    63    1
    58   104   105    1
    59    28    35   am
    60    28    29    2
    61    66    64   ar
    62   105   106    2
    63    35    36    1
    64    63    64    1
    65    64    65   ar
    66    13    14    1
    67    13    10    1
    68    15    14   ar
    69    15    17   ar
    70    14    16   ar
    71    17    18   ar
    72    11    12    2
    73    11    10    1
    74    16    18   ar
    75    10     9    1
    76    36    39    1
    77    36    37    1
    78    40    39    1
    79    39    41    1
    80    37    38    2
    81   120   118   ar
    82   120   121   ar
    83   118   116   ar
    84   121   119   ar
    85     9     3   am
    86   116   115    1
    87   116   117   ar
    88   119   117   ar
    89     8     6    1
    90     4     3    2
    91   115   112    1
    92     3     2    1
    93    49    47   ar
    94   111   112    1
    95    57    56   ar
    96   112   113    1
    97    47    48   ar
    98    47    46    1
    99     6     5    1
   100     6     7    1
   101     2     5    1
   102     2     1    1
   103    56    55    1
   104    56    58   ar
   105   113   114    2
   106    46    43    1
   107    55    54    1
   108    53    52    2
   109    45    44    2
   110    54    51    1
   111    52    51    1
   112    44    43    1
   113    43    42    1
   114    51    50    1
