@<TRIPOS>MOLECULE
tmp/3h9uD02.pdb
 102 95 0 0 0
SMALL
GASTEIGER

@<TRIPOS>ATOM
      1  N         -2.5990   -1.8180  124.0490 N.3   391  LYS391     -0.1245
      2  CA        -1.2180   -2.0960  123.5990 C.3   391  LYS391      0.1561
      3  C         -1.1570   -3.3990  122.8140 C.2   391  LYS391      0.2260
      4  O         -0.4780   -3.4830  121.7800 O.2   391  LYS391     -0.2867
      5  CB        -0.2400   -2.1480  124.7770 C.3   391  LYS391      0.0271
      6  CG         1.2250   -2.1240  124.3470 C.3   391  LYS391      0.0035
      7  CD         1.6500   -0.7310  123.8170 C.3   391  LYS391      0.0206
      8  CE         3.1840   -0.6010  123.6000 C.3   391  LYS391      0.1093
      9  NZ         3.9660   -0.7700  124.8440 N.3   391  LYS391     -0.1314
     10  N         -2.8580   -3.0160  119.2810 N.3   394  GLU394     -0.1231
     11  CA        -1.8920   -2.4030  118.4070 C.3   394  GLU394      0.1699
     12  C         -0.7960   -3.4050  118.0250 C.2   394  GLU394      0.2592
     13  O         -0.3330   -3.3850  116.9020 O.2   394  GLU394     -0.2718
     14  CB        -1.2350   -1.1660  119.0620 C.3   394  GLU394      0.0402
     15  CG        -2.1200    0.0580  119.1360 C.3   394  GLU394      0.1161
     16  CD        -1.6170    1.1350  120.0840 C.2   394  GLU394      0.3649
     17  OE1       -0.4950    1.0150  120.6210 O.co2 394  GLU394     -0.2457
     18  OE2       -2.3640    2.1310  120.2780 O.co2 394  GLU394     -0.2457
     19  N         -0.3630   -4.2680  118.9460 N.am  395  LYS395     -0.1980
     20  CA         0.6970   -5.2500  118.5730 C.3   395  LYS395      0.1596
     21  C          0.2140   -6.1520  117.4580 C.2   395  LYS395      0.2287
     22  O          0.9670   -6.4380  116.4770 O.2   395  LYS395     -0.2864
     23  CB         1.0940   -6.0850  119.7970 C.3   395  LYS395      0.0298
     24  CG         2.0840   -7.2120  119.5540 C.3   395  LYS395      0.0038
     25  CD         2.0370   -8.1910  120.7280 C.3   395  LYS395      0.0206
     26  CE         3.1310   -9.3010  120.6780 C.3   395  LYS395      0.1093
     27  NZ         4.5190   -8.7800  120.9330 N.3   395  LYS395     -0.1314
     28  N          0.3730   -4.3840  114.1200 N.3   398  ALA398     -0.1231
     29  CA         1.7290   -4.1740  113.7160 C.3   398  ALA398      0.1694
     30  C          2.3200   -5.4480  113.1700 C.2   398  ALA398      0.2591
     31  O          3.0760   -5.3700  112.2360 O.2   398  ALA398     -0.2718
     32  CB         2.6010   -3.6330  114.8760 C.3   398  ALA398      0.0304
     33  N          1.9580   -6.5970  113.7420 N.am  399  LEU399     -0.1980
     34  CA         2.3810   -7.9210  113.2570 C.3   399  LEU399      0.1596
     35  C          1.9840   -8.1970  111.8260 C.2   399  LEU399      0.2287
     36  O          2.5840   -9.0270  111.1650 O.2   399  LEU399     -0.2864
     37  CB         1.7810   -9.0330  114.1370 C.3   399  LEU399      0.0297
     38  CG         2.3640   -9.2380  115.5440 C.3   399  LEU399      0.0022
     39  CD1        1.6070  -10.3290  116.2940 C.3   399  LEU399      0.0001
     40  CD2        3.8140   -9.5770  115.5260 C.3   399  LEU399      0.0001
     41  N          1.5470   -5.6450  109.2960 N.3   401  LEU401     -0.1231
     42  CA         1.9430   -4.6120  108.3400 C.3   401  LEU401      0.1693
     43  C          3.0360   -5.0260  107.3960 C.2   401  LEU401      0.2592
     44  O          3.0640   -4.5810  106.2440 O.2   401  LEU401     -0.2718
     45  CB         2.4160   -3.3660  109.0740 C.3   401  LEU401      0.0284
     46  CG         1.3230   -2.6840  109.9230 C.3   401  LEU401      0.0019
     47  CD1        1.9560   -1.6480  110.8990 C.3   401  LEU401      0.0001
     48  CD2        0.1980   -2.1310  109.1110 C.3   401  LEU401      0.0001
     49  N          4.0200   -5.7790  107.9070 N.am  402  GLY402     -0.1957
     50  CA         5.1940   -6.0910  107.0830 C.3   402  GLY402      0.1869
     51  C          4.9050   -6.8910  105.8450 C.2   402  GLY402      0.2309
     52  O          5.4900   -6.6200  104.7760 O.2   402  GLY402     -0.2863
     53  N          3.6080   -2.1120  104.3850 N.3   406  ALA406     -0.1231
     54  CA         3.1920   -0.8850  105.0180 C.3   406  ALA406      0.1694
     55  C          4.2510   -0.4470  106.0160 C.2   406  ALA406      0.2592
     56  O          4.7480   -1.2510  106.8510 O.2   406  ALA406     -0.2718
     57  CB         1.8100   -1.0760  105.6920 C.3   406  ALA406      0.0304
     58  N          4.6390    0.8090  105.9440 N.am  407  LYS407     -0.1966
     59  CA         5.6920    1.3430  106.8360 C.3   407  LYS407      0.1728
     60  C          5.1240    2.3710  107.8170 C.2   407  LYS407      0.2616
     61  O          4.4010    3.2580  107.4260 O.2   407  LYS407     -0.2715
     62  CB         6.7680    2.0280  106.0050 C.3   407  LYS407      0.0311
     63  CG         7.3990    1.1610  104.9590 C.3   407  LYS407      0.0038
     64  CD         8.3270    1.9120  104.0700 C.3   407  LYS407      0.0206
     65  CE         9.5880    2.4300  104.7900 C.3   407  LYS407      0.1093
     66  NZ        10.3440    3.3580  103.8280 N.3   407  LYS407     -0.1314
     67  N          5.4630    2.2240  109.0860 N.am  408  LEU408     -0.1977
     68  CA         4.9590    3.0780  110.1330 C.3   408  LEU408      0.1596
     69  C          5.9420    4.2120  110.4370 C.2   408  LEU408      0.2287
     70  O          7.1480    4.0110  110.5440 O.2   408  LEU408     -0.2864
     71  CB         4.6940    2.2190  111.3600 C.3   408  LEU408      0.0297
     72  CG         3.4130    2.3170  112.1370 C.3   408  LEU408      0.0022
     73  CD1        2.2580    2.1060  111.2730 C.3   408  LEU408      0.0001
     74  CD2        3.5350    1.3660  113.3210 C.3   408  LEU408      0.0001
     75  N          7.4780    6.9700  112.9030 N.3   410  LYS410     -0.1245
     76  CA         7.7760    6.9660  114.2970 C.3   410  LYS410      0.1561
     77  C          7.6180    8.3730  114.8550 C.2   410  LYS410      0.2260
     78  O          8.2040    9.3260  114.3530 O.2   410  LYS410     -0.2867
     79  CB         9.1890    6.4140  114.5570 C.3   410  LYS410      0.0271
     80  CG         9.3950    5.9550  116.0120 C.3   410  LYS410      0.0035
     81  CD         8.7180    4.5520  116.3140 C.3   410  LYS410      0.0206
     82  CE         8.5850    4.2510  117.8390 C.3   410  LYS410      0.1093
     83  NZ         7.8430    2.9930  118.1540 N.3   410  LYS410     -0.1314
     84  N          5.9080    4.7430  121.7840 N.3   424  ASP424     -0.1239
     85  CA         5.5610    3.3770  121.3570 C.3   424  ASP424      0.1674
     86  C          4.0630    3.0070  121.5610 C.2   424  ASP424      0.2266
     87  O          3.6870    1.8460  121.3570 O.2   424  ASP424     -0.2867
     88  CB         6.4270    2.3470  122.0790 C.3   424  ASP424      0.1410
     89  CG         7.8870    2.3340  121.6110 C.2   424  ASP424      0.3668
     90  OD1        8.2170    2.7740  120.4900 O.co2 424  ASP424     -0.2456
     91  OD2        8.7170    1.7820  122.3450 O.co2 424  ASP424     -0.2456
     92  N         -1.6810    4.7600  121.1210 N.3   427  PHE427     -0.1241
     93  CA        -1.7330    6.0380  120.3950 C.3   427  PHE427      0.1605
     94  C         -3.0930    6.7310  120.5070 C.2   427  PHE427      0.2264
     95  O         -3.2000    7.9190  120.2090 O.2   427  PHE427     -0.2867
     96  CB        -1.3820    5.8270  118.9240 C.3   427  PHE427      0.0534
     97  CG        -0.0270    5.1970  118.7060 C.ar  427  PHE427     -0.0203
     98  CD1        1.1350    5.9630  118.7830 C.ar  427  PHE427     -0.0042
     99  CD2        0.0800    3.8660  118.4250 C.ar  427  PHE427     -0.0042
    100  CE1        2.3730    5.3850  118.5950 C.ar  427  PHE427     -0.0003
    101  CE2        1.3030    3.2680  118.2900 C.ar  427  PHE427     -0.0003
    102  CZ         2.4610    4.0360  118.3380 C.ar  427  PHE427     -0.0000
@<TRIPOS>BOND
     1    66    65    1
     2    64    65    1
     3    64    63    1
     4    53    54    1
     5    52    51    2
     6    63    62    1
     7    54    57    1
     8    54    55    1
     9    51    50    1
    10    58    55   am
    11    58    59    1
    12    62    59    1
    13    55    56    2
    14    44    43    2
    15    59    60    1
    16    50    49    1
    17    43    49   am
    18    43    42    1
    19    61    60    2
    20    60    67   am
    21    42    45    1
    22    42    41    1
    23    45    46    1
    24    67    68    1
    25    48    46    1
    26    46    47    1
    27    68    69    1
    28    68    71    1
    29    69    70    2
    30    36    35    2
    31    73    72    1
    32    71    72    1
    33    35    34    1
    34    72    74    1
    35    31    30    2
    36    75    76    1
    37    30    29    1
    38    30    33   am
    39    34    33    1
    40    34    37    1
    41    29    28    1
    42    29    32    1
    43    37    38    1
    44    76    79    1
    45    76    77    1
    46    78    77    2
    47    79    80    1
    48    40    38    1
    49    38    39    1
    50    80    81    1
    51    81    82    1
    52    22    21    2
    53    13    12    2
    54    21    20    1
    55    82    83    1
    56    12    11    1
    57    12    19   am
    58   101   102   ar
    59   101    99   ar
    60   102   100   ar
    61    11    14    1
    62    11    10    1
    63    99    97   ar
    64    20    19    1
    65    20    23    1
    66   100    98   ar
    67    97    98   ar
    68    97    96    1
    69    96    93    1
    70    14    15    1
    71    15    16    1
    72    24    23    1
    73    24    25    1
    74    16    18   ar
    75    16    17   ar
    76    95    94    2
    77    93    94    1
    78    93    92    1
    79    90    89   ar
    80    26    25    1
    81    26    27    1
    82    85    86    1
    83    85    84    1
    84    85    88    1
    85    87    86    2
    86    89    88    1
    87    89    91   ar
    88     4     3    2
    89     3     2    1
    90     2     1    1
    91     2     5    1
    92     8     7    1
    93     8     9    1
    94     7     6    1
    95     6     5    1
