@<TRIPOS>MOLECULE
tmp/3h9yA00.pdb
 114 103 0 0 0
SMALL
GASTEIGER

@<TRIPOS>ATOM
      1  N          2.6800   48.8680   68.1890 N.3     2  SER2       -0.1217
      2  CA         4.0980   48.9830   68.5270 C.3     2  SER2        0.1889
      3  C          4.9790   49.0450   67.2750 C.2     2  SER2        0.2288
      4  O          4.6280   48.5200   66.2190 O.2     2  SER2       -0.2866
      5  CB         4.5110   47.8000   69.3980 C.3     2  SER2        0.2089
      6  OG         4.0790   46.5860   68.8070 O.3     2  SER2       -0.2183
      7  N          9.1730   48.7920   65.8210 N.3     4  TYR4       -0.1241
      8  CA        10.5540   48.3650   66.0580 C.3     4  TYR4        0.1605
      9  C         11.4260   48.6590   64.8410 C.2     4  TYR4        0.2264
     10  O         10.9350   48.7600   63.7250 O.2     4  TYR4       -0.2867
     11  CB        10.6110   46.8710   66.3670 C.3     4  TYR4        0.0534
     12  CG         9.5290   46.4090   67.3060 C.ar    4  TYR4       -0.0201
     13  CD1        8.3580   45.8390   66.8230 C.ar    4  TYR4       -0.0009
     14  CD2        9.6750   46.5520   68.6790 C.ar    4  TYR4       -0.0009
     15  CE1        7.3590   45.4130   67.6940 C.ar    4  TYR4        0.0417
     16  CE2        8.6890   46.1350   69.5530 C.ar    4  TYR4        0.0417
     17  CZ         7.5370   45.5640   69.0550 C.ar    4  TYR4        0.1957
     18  OH         6.5670   45.1630   69.9370 O.3     4  TYR4       -0.2866
     19  N         15.3500   47.4880   63.4980 N.3     6  SER6       -0.1217
     20  CA        16.5110   46.6390   63.7410 C.3     6  SER6        0.1889
     21  C         17.7630   47.1330   63.0300 C.2     6  SER6        0.2288
     22  O         17.7010   48.0090   62.1770 O.2     6  SER6       -0.2866
     23  CB        16.2000   45.2070   63.2920 C.3     6  SER6        0.2089
     24  OG        15.8210   45.2200   61.9280 O.3     6  SER6       -0.2183
     25  N         15.0930   47.1460   58.8320 N.3    22  THR22      -0.1218
     26  CA        13.6640   46.8500   58.7090 C.3    22  THR22       0.1862
     27  C         12.9140   47.5730   59.8170 C.2    22  THR22       0.2287
     28  O         13.1940   47.3780   60.9910 O.2    22  THR22      -0.2866
     29  CB        13.3600   45.3210   58.8420 C.3    22  THR22       0.1770
     30  OG1       14.1240   44.5940   57.8780 O.3    22  THR22      -0.2211
     31  CG2       11.8600   45.0210   58.6660 C.3    22  THR22       0.0375
     32  N          9.6370   47.5480   61.6140 N.3    24  LEU24      -0.1245
     33  CA         8.5230   46.6390   61.8750 C.3    24  LEU24       0.1561
     34  C          7.4870   47.2800   62.7960 C.2    24  LEU24       0.2260
     35  O          7.7980   47.6620   63.9230 O.2    24  LEU24      -0.2867
     36  CB         9.0380   45.3390   62.5150 C.3    24  LEU24       0.0270
     37  CG         7.9960   44.3610   63.0640 C.3    24  LEU24       0.0019
     38  CD1        7.1260   43.7630   61.9410 C.3    24  LEU24       0.0001
     39  CD2        8.6860   43.2570   63.8930 C.3    24  LEU24       0.0001
     40  N          3.9070   46.3950   64.5670 N.3    26  VAL26      -0.1245
     41  CA         2.8860   45.4070   64.9180 C.3    26  VAL26       0.1561
     42  C          1.6410   46.1150   65.4480 C.2    26  VAL26       0.2260
     43  O          1.6390   46.6470   66.5590 O.2    26  VAL26      -0.2867
     44  CB         3.4070   44.4000   65.9660 C.3    26  VAL26       0.0252
     45  CG1        2.3860   43.3030   66.1990 C.3    26  VAL26       0.0019
     46  CG2        4.7360   43.8140   65.5030 C.3    26  VAL26       0.0019
     47  N         -2.4220   46.6520   66.6300 N.3    28  LEU28      -0.1245
     48  CA        -3.3790   45.9460   67.4720 C.3    28  LEU28       0.1561
     49  C         -4.7760   46.5440   67.2920 C.2    28  LEU28       0.2260
     50  O         -5.5730   46.5900   68.2320 O.2    28  LEU28      -0.2867
     51  CB        -2.9400   45.9920   68.9410 C.3    28  LEU28       0.0270
     52  CG        -1.5730   45.3890   69.2880 C.3    28  LEU28       0.0019
     53  CD1       -1.3040   45.5410   70.7810 C.3    28  LEU28       0.0001
     54  CD2       -1.4800   43.9210   68.8800 C.3    28  LEU28       0.0001
     55  N          6.0360   45.9640   52.8650 N.3    53  LYS53      -0.1245
     56  CA         5.4890   44.6150   52.8670 C.3    53  LYS53       0.1561
     57  C          4.4790   44.5050   54.0030 C.2    53  LYS53       0.2260
     58  O          4.7480   44.9150   55.1290 O.2    53  LYS53      -0.2867
     59  CB         6.6270   43.5980   53.0270 C.3    53  LYS53       0.0271
     60  CG         6.2020   42.1340   53.0860 C.3    53  LYS53       0.0035
     61  CD         7.4060   41.2070   53.2540 C.3    53  LYS53       0.0206
     62  CE         6.9720   39.7990   53.6430 C.3    53  LYS53       0.1093
     63  NZ         8.0580   39.0160   54.3160 N.3    53  LYS53      -0.1314
     64  N         -1.9620   38.6920   59.8290 N.3    57  GLN57      -0.1231
     65  CA        -1.6400   37.6060   60.7590 C.3    57  GLN57       0.1698
     66  C         -2.8920   36.8250   61.1480 C.2    57  GLN57       0.2592
     67  O         -4.0150   37.3220   61.0180 O.2    57  GLN57      -0.2718
     68  CB        -0.9760   38.1620   62.0220 C.3    57  GLN57       0.0381
     69  CG         0.2380   39.0520   61.7630 C.3    57  GLN57       0.0905
     70  CD         1.3660   38.3320   61.0450 C.2    57  GLN57       0.2608
     71  OE1        2.0020   38.8910   60.1490 O.2    57  GLN57      -0.2717
     72  NE2        1.6230   37.0890   61.4380 N.am   57  GLN57      -0.0878
     73  N         -2.6910   35.6060   61.6410 N.am   58  ARG58      -0.1966
     74  CA        -3.8040   34.7170   61.9770 C.3    58  ARG58       0.1729
     75  C         -4.6890   35.2700   63.0940 C.2    58  ARG58       0.2616
     76  O         -5.8890   34.9930   63.1320 O.2    58  ARG58      -0.2715
     77  CB        -3.2900   33.3260   62.3680 C.3    58  ARG58       0.0348
     78  CG        -2.4370   33.3030   63.6320 C.3    58  ARG58       0.0492
     79  CD        -2.2180   31.8810   64.1380 C.3    58  ARG58       0.2205
     80  NE        -1.4470   31.8660   65.3810 N.pl3  58  ARG58      -0.0865
     81  CZ        -1.9450   32.1360   66.5860 C.cat  58  ARG58       0.5346
     82  NH1       -3.2270   32.4450   66.7330 N.pl3  58  ARG58       0.1354
     83  NH2       -1.1550   32.0990   67.6530 N.pl3  58  ARG58       0.1354
     84  N         -4.1010   36.0550   63.9940 N.am   59  ASN59      -0.1972
     85  CA        -4.8330   36.5870   65.1430 C.3    59  ASN59       0.1688
     86  C         -5.6350   37.8590   64.8400 C.2    59  ASN59       0.2292
     87  O         -5.8230   38.7060   65.7160 O.2    59  ASN59      -0.2864
     88  CB        -3.8840   36.8060   66.3310 C.3    59  ASN59       0.1181
     89  CG        -2.6780   37.6740   65.9840 C.2    59  ASN59       0.2629
     90  OD1       -2.4720   38.0550   64.8320 O.2    59  ASN59      -0.2716
     91  ND2       -1.8710   37.9830   66.9980 N.am   59  ASN59      -0.0877
     92  N         -5.0050   40.5370   62.8130 N.3    61  THR61      -0.1218
     93  CA        -4.1660   41.7280   62.9800 C.3    61  THR61       0.1862
     94  C         -3.2160   41.9300   61.7980 C.2    61  THR61       0.2287
     95  O         -2.7710   40.9680   61.1670 O.2    61  THR61      -0.2866
     96  CB        -3.3210   41.6590   64.2760 C.3    61  THR61       0.1770
     97  OG1       -4.1670   41.7960   65.4250 O.3    61  THR61      -0.2211
     98  CG2       -2.2840   42.7670   64.3050 C.3    61  THR61       0.0375
     99  N          0.3660   43.2230   60.1770 N.3    63  THR63      -0.1218
    100  CA         1.7770   43.5190   60.4090 C.3    63  THR63       0.1862
    101  C          2.3650   44.1500   59.1520 C.2    63  THR63       0.2287
    102  O          2.2560   43.5960   58.0570 O.2    63  THR63      -0.2866
    103  CB         2.5810   42.2480   60.7660 C.3    63  THR63       0.1770
    104  OG1        2.1930   41.7790   62.0620 O.3    63  THR63      -0.2211
    105  CG2        4.0720   42.5340   60.7770 C.3    63  THR63       0.0375
    106  N         19.0320   34.2150   71.7030 N.3   159  GLN159     -0.1245
    107  CA        19.2750   35.6540   71.6770 C.3   159  GLN159      0.1566
    108  C         20.4580   35.9920   72.5700 C.2   159  GLN159      0.2260
    109  O         20.7060   35.2960   73.5510 O.2   159  GLN159     -0.2867
    110  CB        18.0340   36.4350   72.1110 C.3   159  GLN159      0.0367
    111  CG        16.8980   36.3400   71.0880 C.3   159  GLN159      0.0905
    112  CD        17.1990   37.0800   69.7970 C.2   159  GLN159      0.2608
    113  OE1       17.0700   36.5250   68.6980 O.2   159  GLN159     -0.2717
    114  NE2       17.5930   38.3520   69.9250 N.am  159  GLN159     -0.0878
@<TRIPOS>BOND
     1    55    56    1
     2    56    59    1
     3    56    57    1
     4    59    60    1
     5    60    61    1
     6    61    62    1
     7    62    63    1
     8    57    58    2
     9    30    29    1
    10   102   101    2
    11    31    29    1
    12    26    25    1
    13    26    29    1
    14    26    27    1
    15   101   100    1
    16    27    28    2
    17    64    65    1
    18    71    70    2
    19    99   100    1
    20   100   103    1
    21    65    66    1
    22    65    68    1
    23   103   105    1
    24   103   104    1
    25    67    66    2
    26    70    72   am
    27    70    69    1
    28    66    73   am
    29    95    94    2
    30    32    33    1
    31    73    74    1
    32    69    68    1
    33    94    93    1
    34    33    36    1
    35    33    34    1
    36    24    23    1
    37    38    37    1
    38    74    77    1
    39    74    75    1
    40    22    21    2
    41    77    78    1
    42    36    37    1
    43    34    35    2
    44    92    93    1
    45    93    96    1
    46    21    20    1
    47    37    39    1
    48    75    76    2
    49    75    84   am
    50    23    20    1
    51    19    20    1
    52    78    79    1
    53    10     9    2
    54    84    85    1
    55    79    80    1
    56    96    98    1
    57    96    97    1
    58    40    41    1
    59    90    89    2
    60    86    85    1
    61    86    87    2
    62     9     8    1
    63    41    42    1
    64    41    44    1
    65    85    88    1
    66    80    81    2
    67    42    43    2
    68    46    44    1
    69     7     8    1
    70    44    45    1
    71    89    88    1
    72    89    91   am
    73     8    11    1
    74     4     3    2
    75    11    12    1
    76    81    82    1
    77    81    83    1
    78    47    48    1
    79    13    12   ar
    80    13    15   ar
    81     3     2    1
    82    49    48    1
    83    49    50    2
    84    12    14   ar
    85    48    51    1
    86    15    17   ar
    87     1     2    1
    88     2     5    1
    89    14    16   ar
    90   113   112    2
    91     6     5    1
    92    54    52    1
    93    51    52    1
    94    17    16   ar
    95    17    18    1
    96    52    53    1
    97   112   114   am
    98   112   111    1
    99   111   110    1
   100   107   106    1
   101   107   110    1
   102   107   108    1
   103   108   109    2
