@<TRIPOS>MOLECULE
tmp/3ha3A00.pdb
 224 222 0 0 0
SMALL
GASTEIGER

@<TRIPOS>ATOM
      1  N         20.2680   16.6110   23.2570 N.3    20  ARG20      -0.1231
      2  CA        21.6420   16.7210   22.8390 C.3    20  ARG20       0.1694
      3  C         22.0820   15.3950   22.1890 C.2    20  ARG20       0.2593
      4  O         23.2530   14.9930   22.2510 O.2    20  ARG20      -0.2718
      5  CB        22.4800   17.0390   24.0650 C.3    20  ARG20       0.0321
      6  CG        22.9880   18.4480   24.1490 C.3    20  ARG20       0.0489
      7  CD        23.9110   18.6060   25.3430 C.3    20  ARG20       0.2205
      8  NE        23.2820   19.3320   26.4330 N.pl3  20  ARG20      -0.0865
      9  CZ        23.8730   19.6660   27.5860 C.cat  20  ARG20       0.5346
     10  NH1       25.1380   19.3340   27.8260 N.pl3  20  ARG20       0.1354
     11  NH2       23.1810   20.3610   28.5070 N.pl3  20  ARG20       0.1354
     12  N         21.1230   14.7200   21.5700 N.am   21  THR21      -0.1939
     13  CA        21.3850   13.5450   20.8140 C.3    21  THR21       0.2028
     14  C         22.0400   13.8950   19.4380 C.2    21  THR21       0.2642
     15  O         21.5440   14.7190   18.6430 O.2    21  THR21      -0.2714
     16  CB        20.0740   12.7330   20.6620 C.3    21  THR21       0.1808
     17  OG1       19.5390   12.4200   21.9760 O.3    21  THR21      -0.2208
     18  CG2       20.3500   11.4380   19.8980 C.3    21  THR21       0.0379
     19  N         23.1730   13.2840   19.1630 N.am   22  TYR22      -0.1959
     20  CA        23.8880   13.6100   17.9260 C.3    22  TYR22       0.1771
     21  C         23.8810   12.3510   17.0680 C.2    22  TYR22       0.2620
     22  O         24.9450   11.7370   16.8130 O.2    22  TYR22      -0.2715
     23  CB        25.3060   14.0890   18.2860 C.3    22  TYR22       0.0574
     24  CG        26.1010   14.7730   17.1880 C.ar   22  TYR22      -0.0198
     25  CD1       27.4710   14.9210   17.3380 C.ar   22  TYR22      -0.0009
     26  CD2       25.4980   15.2330   16.0060 C.ar   22  TYR22      -0.0009
     27  CE1       28.2460   15.5210   16.3730 C.ar   22  TYR22       0.0417
     28  CE2       26.2610   15.8680   15.0000 C.ar   22  TYR22       0.0417
     29  CZ        27.6400   16.0100   15.2050 C.ar   22  TYR22       0.1957
     30  OH        28.4630   16.5900   14.2880 O.3    22  TYR22      -0.2866
     31  N         22.6720   11.9200   16.6890 N.am   23  SER23      -0.1950
     32  CA        22.5040   10.7340   15.8880 C.3    23  SER23       0.1924
     33  C         21.1280   10.7070   15.2800 C.2    23  SER23       0.2314
     34  O         20.2520   11.4000   15.7640 O.2    23  SER23      -0.2863
     35  CB        22.7130    9.4830   16.7250 C.3    23  SER23       0.2116
     36  OG        21.8350    9.4140   17.8450 O.3    23  SER23      -0.2180
     37  N         14.0260    6.6610   18.7460 N.3    41  LYS41      -0.1245
     38  CA        15.2520    5.9560   18.2940 C.3    41  LYS41       0.1561
     39  C         15.9380    5.1670   19.4280 C.2    41  LYS41       0.2260
     40  O         16.4100    4.0170   19.2370 O.2    41  LYS41      -0.2867
     41  CB        16.2500    6.9490   17.6560 C.3    41  LYS41       0.0271
     42  CG        17.6320    6.3920   17.2780 C.3    41  LYS41       0.0035
     43  CD        18.6210    6.4150   18.4700 C.3    41  LYS41       0.0206
     44  CE        18.7990    7.8530   18.9960 C.3    41  LYS41       0.1093
     45  NZ        19.2720    8.7430   17.8990 N.3    41  LYS41      -0.1314
     46  N         26.7640    1.1370   27.2230 N.3    59  ASP59      -0.1225
     47  CA        26.5760    2.0860   26.1160 C.3    59  ASP59       0.1805
     48  C         27.9250    2.4840   25.6820 C.2    59  ASP59       0.2598
     49  O         28.6270    3.1160   26.4660 O.2    59  ASP59      -0.2718
     50  CB        25.8190    3.3150   26.6070 C.3    59  ASP59       0.1424
     51  CG        25.3520    4.2350   25.4730 C.2    59  ASP59       0.3668
     52  OD1       25.9780    4.2530   24.3670 O.co2  59  ASP59      -0.2456
     53  OD2       24.3420    4.9580   25.7040 O.co2  59  ASP59      -0.2456
     54  N         28.3590    2.0270   24.4960 N.am   60  ILE60      -0.1966
     55  CA        29.6360    2.4340   23.9690 C.3    60  ILE60       0.1727
     56  C         29.4720    3.7690   23.1820 C.2    60  ILE60       0.2617
     57  O         28.8780    3.7770   22.1210 O.2    60  ILE60      -0.2715
     58  CB        30.2440    1.3380   23.0740 C.3    60  ILE60       0.0290
     59  CG1       30.5020    0.0550   23.9030 C.3    60  ILE60       0.0022
     60  CG2       31.5870    1.8310   22.4120 C.3    60  ILE60       0.0023
     61  CD1       31.1840   -1.0360   23.1250 C.3    60  ILE60       0.0001
     62  N         30.0200    4.8680   23.7130 N.am   61  GLY61      -0.1940
     63  CA        29.8650    6.2010   23.1290 C.3    61  GLY61       0.2014
     64  C         28.5690    6.8030   23.6660 C.2    61  GLY61       0.2639
     65  O         27.6200    6.9980   22.9210 O.2    61  GLY61      -0.2714
     66  N         28.5150    7.0420   24.9650 N.am   62  CYS62      -0.1953
     67  CA        27.2520    7.2810   25.5970 C.3    62  CYS62       0.1843
     68  C         26.7170    8.7280   25.4900 C.2    62  CYS62       0.2626
     69  O         25.5910    8.9810   25.9220 O.2    62  CYS62      -0.2714
     70  CB        27.2910    6.7820   27.0420 C.3    62  CYS62       0.0997
     71  SG        28.4930    7.6220   28.1190 S.3    62  CYS62      -0.0797
     72  N         27.4820    9.6110   24.8620 N.am   63  GLY63      -0.1940
     73  CA        27.2590   11.1040   24.8690 C.3    63  GLY63       0.2014
     74  C         26.7830   11.7040   26.2010 C.2    63  GLY63       0.2638
     75  O         27.4790   11.6270   27.2420 O.2    63  GLY63      -0.2714
     76  N         25.5740   12.2650   26.1680 N.am   64  TRP64      -0.1973
     77  CA        25.0290   13.0870   27.2480 C.3    64  TRP64       0.1640
     78  C         24.1900   12.2120   28.1330 C.2    64  TRP64       0.2290
     79  O         23.6550   12.6790   29.1610 O.2    64  TRP64      -0.2864
     80  CB        24.2520   14.2860   26.6950 C.3    64  TRP64       0.0576
     81  CG        25.2000   15.2010   25.9110 C.ar   64  TRP64       0.0006
     82  CD1       25.2950   15.3360   24.5440 C.ar   64  TRP64       0.0946
     83  CD2       26.2170   16.0390   26.4660 C.ar   64  TRP64       0.0152
     84  NE1       26.3090   16.2180   24.2170 N.ar   64  TRP64      -0.2442
     85  CE2       26.8960   16.6560   25.3790 C.ar   64  TRP64       0.0810
     86  CE3       26.6200   16.3390   27.7920 C.ar   64  TRP64       0.0012
     87  CZ2       27.9440   17.5560   25.5690 C.ar   64  TRP64       0.0191
     88  CZ3       27.6600   17.2330   27.9930 C.ar   64  TRP64       0.0001
     89  CH2       28.3130   17.8380   26.8780 C.ar   64  TRP64       0.0015
     90  N         20.4040    7.7650   26.4210 N.3    67  THR67      -0.1218
     91  CA        20.1720    6.3260   26.3290 C.3    67  THR67       0.1862
     92  C         20.2470    5.6080   27.6510 C.2    67  THR67       0.2287
     93  O         19.3790    4.7750   27.9490 O.2    67  THR67      -0.2866
     94  CB        21.1700    5.6740   25.3430 C.3    67  THR67       0.1770
     95  OG1       20.9970    6.3250   24.0880 O.3    67  THR67      -0.2211
     96  CG2       20.9430    4.1550   25.2400 C.3    67  THR67       0.0375
     97  N         30.5580    4.6100   28.1340 N.3    82  LEU82      -0.1231
     98  CA        31.9200    4.8970   27.8210 C.3    82  LEU82       0.1693
     99  C         31.8610    6.1160   26.9920 C.2    82  LEU82       0.2593
    100  O         31.0990    6.1740   26.0230 O.2    82  LEU82      -0.2718
    101  CB        32.5460    3.8020   26.9670 C.3    82  LEU82       0.0284
    102  CG        32.6210    2.4140   27.5920 C.3    82  LEU82       0.0019
    103  CD1       33.4630    1.5000   26.6480 C.3    82  LEU82       0.0001
    104  CD2       33.1540    2.4410   29.0690 C.3    82  LEU82       0.0001
    105  N         32.6630    7.1010   27.3820 N.am   83  THR83      -0.1939
    106  CA        32.7480    8.3060   26.6040 C.3    83  THR83       0.2028
    107  C         34.1640    8.8030   26.6530 C.2    83  THR83       0.2642
    108  O         34.8560    8.5720   27.6310 O.2    83  THR83      -0.2714
    109  CB        31.7270    9.3570   27.1200 C.3    83  THR83       0.1808
    110  OG1       31.8730   10.5520   26.3630 O.3    83  THR83      -0.2208
    111  CG2       31.8210    9.6000   28.6920 C.3    83  THR83       0.0379
    112  N         34.5840    9.4480   25.5810 N.am   84  LEU84      -0.1963
    113  CA        35.8790   10.0780   25.4660 C.3    84  LEU84       0.1728
    114  C         35.9160   11.5880   25.9260 C.2    84  LEU84       0.2616
    115  O         37.0000   12.2010   26.0190 O.2    84  LEU84      -0.2715
    116  CB        36.3910    9.8720   24.0100 C.3    84  LEU84       0.0311
    117  CG        36.7730    8.4120   23.6750 C.3    84  LEU84       0.0022
    118  CD1       37.4200    8.1840   22.3130 C.3    84  LEU84       0.0001
    119  CD2       37.7190    7.8810   24.7430 C.3    84  LEU84       0.0001
    120  N         34.7420   12.1480   26.2630 N.am   85  SER85      -0.1950
    121  CA        34.5270   13.5680   26.6040 C.3    85  SER85       0.1924
    122  C         34.3940   13.8220   28.1220 C.2    85  SER85       0.2314
    123  O         33.5420   13.2120   28.8190 O.2    85  SER85      -0.2863
    124  CB        33.2780   14.0310   25.8780 C.3    85  SER85       0.2116
    125  OG        32.7100   15.2390   26.4110 O.3    85  SER85      -0.2180
    126  N         30.8650   15.3280   28.9250 N.3    88  GLN88      -0.1245
    127  CA        29.8650   14.2540   28.8040 C.3    88  GLN88       0.1566
    128  C         29.8670   13.3460   30.0250 C.2    88  GLN88       0.2260
    129  O         28.8230   12.8460   30.4840 O.2    88  GLN88      -0.2867
    130  CB        30.1480   13.4550   27.5540 C.3    88  GLN88       0.0367
    131  CG        29.8880   14.2390   26.2260 C.3    88  GLN88       0.0905
    132  CD        30.0310   13.3800   24.9590 C.2    88  GLN88       0.2608
    133  OE1       29.7990   13.8570   23.8240 O.2    88  GLN88      -0.2717
    134  NE2       30.4000   12.1130   25.1400 N.am   88  GLN88      -0.0878
    135  N         36.8200    6.8460   28.8230 N.3   110  GLN110     -0.1231
    136  CA        37.6930    5.9190   28.0730 C.3   110  GLN110      0.1698
    137  C         36.9610    5.2600   26.9050 C.2   110  GLN110      0.2593
    138  O         35.7300    5.2230   26.8760 O.2   110  GLN110     -0.2718
    139  CB        38.2130    4.8030   28.9890 C.3   110  GLN110      0.0381
    140  CG        37.0800    4.0430   29.6440 C.3   110  GLN110      0.0905
    141  CD        37.4700    2.6760   30.1160 C.2   110  GLN110      0.2608
    142  OE1       37.5360    2.4350   31.2990 O.2   110  GLN110     -0.2717
    143  NE2       37.7110    1.7690   29.1920 N.am  110  GLN110     -0.0878
    144  N         37.7390    4.7510   25.9480 N.am  111  GLY111     -0.1942
    145  CA        37.2380    3.8650   24.8640 C.3   111  GLY111      0.2014
    146  C         36.9310    2.4050   25.2340 C.2   111  GLY111      0.2639
    147  O         37.2900    1.8900   26.3160 O.2   111  GLY111     -0.2714
    148  N         36.2210    1.7450   24.3220 N.am  112  TRP112     -0.1959
    149  CA        35.9050    0.3410   24.4700 C.3   112  TRP112      0.1771
    150  C         37.2160   -0.4560   24.5220 C.2   112  TRP112      0.2619
    151  O         37.2610   -1.5090   25.1600 O.2   112  TRP112     -0.2715
    152  CB        35.0340   -0.1260   23.2900 C.3   112  TRP112      0.0590
    153  CG        35.6670    0.1000   21.9430 C.ar  112  TRP112      0.0006
    154  CD1       35.4380    1.1490   21.1050 C.ar  112  TRP112      0.0946
    155  CD2       36.5980   -0.7630   21.2600 C.ar  112  TRP112      0.0152
    156  NE1       36.1780    1.0110   19.9590 N.ar  112  TRP112     -0.2442
    157  CE2       36.9090   -0.1470   20.0290 C.ar  112  TRP112      0.0810
    158  CE3       37.2000   -1.9990   21.5750 C.ar  112  TRP112      0.0012
    159  CZ2       37.7990   -0.7210   19.0890 C.ar  112  TRP112      0.0191
    160  CZ3       38.1100   -2.5580   20.6550 C.ar  112  TRP112      0.0001
    161  CH2       38.3960   -1.9180   19.4290 C.ar  112  TRP112      0.0015
    162  N         38.2490    0.0370   23.8410 N.am  113  GLU113     -0.1977
    163  CA        39.5570   -0.6860   23.7450 C.3   113  GLU113      0.1602
    164  C         40.0570   -0.9640   25.1630 C.2   113  GLU113      0.2287
    165  O         40.5960   -2.0170   25.4530 O.2   113  GLU113     -0.2864
    166  CB        40.6190    0.1360   22.9750 C.3   113  GLU113      0.0415
    167  CG        40.2580    0.4840   21.5130 C.3   113  GLU113      0.1163
    168  CD        39.4610    1.8290   21.3460 C.2   113  GLU113      0.3649
    169  OE1       39.7680    2.5660   20.3770 O.co2 113  GLU113     -0.2457
    170  OE2       38.5300    2.1380   22.1520 O.co2 113  GLU113     -0.2457
    171  N         25.2660    3.7570   19.5920 N.3   125  ILE125     -0.1231
    172  CA        24.5430    4.5420   18.5790 C.3   125  ILE125      0.1692
    173  C         25.4880    5.6270   18.0610 C.2   125  ILE125      0.2592
    174  O         25.8120    6.5970   18.7730 O.2   125  ILE125     -0.2718
    175  CB        23.2330    5.1510   19.2020 C.3   125  ILE125      0.0266
    176  CG1       22.3430    4.0270   19.7560 C.3   125  ILE125      0.0019
    177  CG2       22.5210    6.1010   18.1840 C.3   125  ILE125      0.0020
    178  CD1       21.3240    4.4550   20.8780 C.3   125  ILE125      0.0001
    179  N         25.9630    5.4160   16.8360 N.am  126  GLU126     -0.1966
    180  CA        26.7800    6.3500   16.0740 C.3   126  GLU126      0.1733
    181  C         28.0920    6.7480   16.7450 C.2   126  GLU126      0.2616
    182  O         28.5450    7.8940   16.6200 O.2   126  GLU126     -0.2715
    183  CB        25.9320    7.5290   15.5160 C.3   126  GLU126      0.0429
    184  CG        24.8000    6.9880   14.6060 C.3   126  GLU126      0.1163
    185  CD        24.0210    8.0530   13.8890 C.2   126  GLU126      0.3649
    186  OE1       22.8050    7.8430   13.6660 O.co2 126  GLU126     -0.2457
    187  OE2       24.6040    9.1060   13.6050 O.co2 126  GLU126     -0.2457
    188  N         28.7140    5.7930   17.4460 N.am  127  ALA127     -0.1977
    189  CA        30.1170    5.9490   17.8520 C.3   127  ALA127      0.1597
    190  C         30.9960    5.2620   16.8000 C.2   127  ALA127      0.2287
    191  O         32.1750    5.6160   16.6150 O.2   127  ALA127     -0.2864
    192  CB        30.3730    5.3150   19.2230 C.3   127  ALA127      0.0319
    193  N         33.6320    6.4900   14.3230 N.3   130  HIS130     -0.1226
    194  CA        34.8640    7.0480   14.9200 C.3   130  HIS130      0.1752
    195  C         35.9920    6.0370   15.0320 C.2   130  HIS130      0.2596
    196  O         37.1530    6.4210   15.1660 O.2   130  HIS130     -0.2718
    197  CB        34.5560    7.6350   16.3010 C.3   130  HIS130      0.0759
    198  CG        33.4880    8.6740   16.2530 C.ar  130  HIS130      0.0818
    199  ND1       33.7620   10.0000   15.9900 N.ar  130  HIS130     -0.2268
    200  CD2       32.1400    8.5750   16.3190 C.ar  130  HIS130      0.1154
    201  CE1       32.6280   10.6840   15.9590 C.ar  130  HIS130      0.1986
    202  NE2       31.6270    9.8380   16.1270 N.ar  130  HIS130     -0.2212
    203  N         35.6560    4.7520   14.9300 N.am  131  PHE131     -0.1976
    204  CA        36.5830    3.6790   15.2850 C.3   131  PHE131      0.1639
    205  C         37.7240    3.4420   14.2760 C.2   131  PHE131      0.2290
    206  O         38.8440    3.1740   14.6830 O.2   131  PHE131     -0.2864
    207  CB        35.8480    2.3440   15.4890 C.3   131  PHE131      0.0560
    208  CG        34.8410    2.3310   16.6180 C.ar  131  PHE131     -0.0200
    209  CD1       33.9890    1.2350   16.7620 C.ar  131  PHE131     -0.0042
    210  CD2       34.7520    3.3540   17.5310 C.ar  131  PHE131     -0.0042
    211  CE1       33.0650    1.1870   17.7720 C.ar  131  PHE131     -0.0003
    212  CE2       33.7970    3.3260   18.5480 C.ar  131  PHE131     -0.0003
    213  CZ        32.9480    2.2340   18.6630 C.ar  131  PHE131     -0.0000
    214  N         34.3590   14.8290   11.7730 N.3   189  PHE189     -0.1241
    215  CA        34.8070   13.7540   12.6680 C.3   189  PHE189      0.1605
    216  C         36.2090   13.3500   12.2690 C.2   189  PHE189      0.2264
    217  O         36.3950   12.3230   11.5990 O.2   189  PHE189     -0.2867
    218  CB        33.9250   12.5080   12.5230 C.3   189  PHE189      0.0534
    219  CG        32.4670   12.7640   12.7570 C.ar  189  PHE189     -0.0203
    220  CD1       31.5300   12.4440   11.7800 C.ar  189  PHE189     -0.0042
    221  CD2       32.0250   13.3240   13.9800 C.ar  189  PHE189     -0.0042
    222  CE1       30.1580   12.6940   12.0190 C.ar  189  PHE189     -0.0003
    223  CE2       30.6500   13.5640   14.2270 C.ar  189  PHE189     -0.0003
    224  CZ        29.7170   13.2590   13.2580 C.ar  189  PHE189     -0.0000
@<TRIPOS>BOND
     1   217   216    2
     2   214   215    1
     3   220   222   ar
     4   220   219   ar
     5   222   224   ar
     6   216   215    1
     7   218   215    1
     8   218   219    1
     9   219   221   ar
    10   224   223   ar
    11   187   185   ar
    12   186   185   ar
    13   185   184    1
    14   221   223   ar
    15   205   206    2
    16   205   204    1
    17    30    29    1
    18   193   194    1
    19   184   183    1
    20   194   195    1
    21   194   197    1
    22   203   195   am
    23   203   204    1
    24    28    29   ar
    25    28    26   ar
    26   195   196    2
    27    29    27   ar
    28    33    34    2
    29    33    32    1
    30   204   207    1
    31   207   208    1
    32   183   180    1
    33    32    31    1
    34    32    35    1
    35   201   199   ar
    36   201   202   ar
    37   199   198   ar
    38    26    24   ar
    39   180   181    1
    40   180   179    1
    41   202   200   ar
    42   198   197    1
    43   198   200   ar
    44    27    25   ar
    45   191   190    2
    46   208   209   ar
    47   208   210   ar
    48   182   181    2
    49    31    21   am
    50    35    36    1
    51   181   188   am
    52   209   211   ar
    53   190   189    1
    54    22    21    2
    55   179   173   am
    56    21    20    1
    57    24    25   ar
    58    24    23    1
    59    42    41    1
    60    42    43    1
    61   188   189    1
    62   210   212   ar
    63    41    38    1
    64   211   213   ar
    65   189   192    1
    66    45    44    1
    67    20    23    1
    68    20    19    1
    69   173   172    1
    70   173   174    2
    71   177   175    1
    72    38    37    1
    73    38    39    1
    74    43    44    1
    75   212   213   ar
    76   172   175    1
    77   172   171    1
    78    15    14    2
    79   159   161   ar
    80   159   157   ar
    81    19    14   am
    82   175   176    1
    83    40    39    2
    84   161   160   ar
    85    14    13    1
    86   176   178    1
    87    18    16    1
    88   156   157   ar
    89   156   154   ar
    90   157   155   ar
    91   169   168   ar
    92   160   158   ar
    93    16    13    1
    94    16    17    1
    95    13    12    1
    96   154   153   ar
    97   155   158   ar
    98   155   153   ar
    99   168   167    1
   100   168   170   ar
   101   167   166    1
   102    12     3   am
   103   153   152    1
   104    57    56    2
   105     3     4    2
   106     3     2    1
   107   118   117    1
   108    60    58    1
   109     2     1    1
   110     2     5    1
   111    65    64    2
   112   166   163    1
   113    58    59    1
   114    58    55    1
   115    61    59    1
   116    63    64    1
   117    63    62    1
   118    56    62   am
   119    56    55    1
   120   152   149    1
   121    64    66   am
   122   117   116    1
   123   117   119    1
   124   163   162    1
   125   163   164    1
   126   133   132    2
   127   162   150   am
   128    55    54    1
   129   116   113    1
   130     5     6    1
   131    95    94    1
   132     6     7    1
   133    84    82   ar
   134    84    85   ar
   135   148   149    1
   136   148   146   am
   137    52    51   ar
   138   149   150    1
   139    54    48   am
   140   150   151    2
   141    82    81   ar
   142    72    73    1
   143    72    68   am
   144   145   146    1
   145   145   144    1
   146    73    74    1
   147   132   134   am
   148   132   131    1
   149    66    67    1
   150   164   165    2
   151   146   147    2
   152    96    94    1
   153     7     8    1
   154    94    91    1
   155    85    87   ar
   156    85    83   ar
   157   113   112    1
   158   113   114    1
   159    51    53   ar
   160    51    50    1
   161    68    67    1
   162    68    69    2
   163    87    89   ar
   164   112   107   am
   165    67    70    1
   166    48    47    1
   167    48    49    2
   168   124   125    1
   169   124   121    1
   170    81    83   ar
   171    81    80    1
   172   114   115    2
   173   114   120   am
   174   144   137   am
   175   100    99    2
   176    47    50    1
   177    47    46    1
   178    76    74   am
   179    76    77    1
   180    74    75    2
   181   131   130    1
   182   120   121    1
   183    91    90    1
   184    91    92    1
   185   110   109    1
   186     8     9    2
   187    83    86   ar
   188   121   122    1
   189   106   107    1
   190   106   109    1
   191   106   105    1
   192   103   102    1
   193   107   108    2
   194    80    77    1
   195   138   137    2
   196    89    88   ar
   197   137   136    1
   198   101   102    1
   199   101    98    1
   200    99   105   am
   201    99    98    1
   202    70    71    1
   203   109   111    1
   204    77    78    1
   205   130   127    1
   206     9    10    1
   207     9    11    1
   208   102   104    1
   209    92    93    2
   210    86    88   ar
   211    98    97    1
   212   136   135    1
   213   136   139    1
   214   122   123    2
   215    78    79    2
   216   127   126    1
   217   127   128    1
   218   139   140    1
   219   143   141   am
   220   140   141    1
   221   128   129    2
   222   141   142    2
