@<TRIPOS>MOLECULE
tmp/3ha5A00.pdb
 224 222 0 0 0
SMALL
GASTEIGER

@<TRIPOS>ATOM
      1  N         19.1120  -15.4060   10.3210 N.3    20  ARG20      -0.1231
      2  CA        20.4780  -15.5360   10.8640 C.3    20  ARG20       0.1694
      3  C         20.9060  -14.2950   11.6570 C.2    20  ARG20       0.2593
      4  O         22.0830  -14.0080   11.7320 O.2    20  ARG20      -0.2718
      5  CB        21.5340  -15.8110    9.7740 C.3    20  ARG20       0.0321
      6  CG        21.1220  -16.6230    8.5880 C.3    20  ARG20       0.0489
      7  CD        21.7180  -18.0330    8.5870 C.3    20  ARG20       0.2205
      8  NE        23.0870  -18.0730    8.0650 N.pl3  20  ARG20      -0.0865
      9  CZ        23.4650  -18.6720    6.9380 C.cat  20  ARG20       0.5346
     10  NH1       22.5950  -19.3270    6.1610 N.pl3  20  ARG20       0.1354
     11  NH2       24.7440  -18.6410    6.6060 N.pl3  20  ARG20       0.1354
     12  N         19.9490  -13.5580   12.2320 N.am   21  THR21      -0.1939
     13  CA        20.2590  -12.3620   12.9940 C.3    21  THR21       0.2028
     14  C         20.8280  -12.7840   14.3510 C.2    21  THR21       0.2642
     15  O         20.2590  -13.6360   15.0600 O.2    21  THR21      -0.2714
     16  CB        19.0160  -11.4370   13.1580 C.3    21  THR21       0.1808
     17  OG1       18.5290  -11.0510   11.8640 O.3    21  THR21      -0.2208
     18  CG2       19.3410  -10.2020   13.9550 C.3    21  THR21       0.0379
     19  N         21.9400  -12.1650   14.7060 N.am   22  TYR22      -0.1959
     20  CA        22.7400  -12.5710   15.8470 C.3    22  TYR22       0.1771
     21  C         22.8310  -11.3350   16.7720 C.2    22  TYR22       0.2620
     22  O         23.9310  -10.7550   17.0200 O.2    22  TYR22      -0.2715
     23  CB        24.1280  -13.0360   15.3500 C.3    22  TYR22       0.0574
     24  CG        24.9460  -13.6910   16.4260 C.ar   22  TYR22      -0.0198
     25  CD1       26.3480  -13.7700   16.3400 C.ar   22  TYR22      -0.0009
     26  CD2       24.3120  -14.2220   17.5810 C.ar   22  TYR22      -0.0009
     27  CE1       27.1050  -14.4120   17.3870 C.ar   22  TYR22       0.0417
     28  CE2       25.0460  -14.8310   18.6250 C.ar   22  TYR22       0.0417
     29  CZ        26.4350  -14.9430   18.5170 C.ar   22  TYR22       0.1957
     30  OH        27.1280  -15.5420   19.5830 O.3    22  TYR22      -0.2866
     31  N         21.6540  -10.8850   17.2010 N.am   23  SER23      -0.1950
     32  CA        21.5260   -9.6720   17.9950 C.3    23  SER23       0.1924
     33  C         20.1350   -9.6370   18.5780 C.2    23  SER23       0.2314
     34  O         19.2770  -10.3670   18.1370 O.2    23  SER23      -0.2863
     35  CB        21.8240   -8.3860   17.1770 C.3    23  SER23       0.2116
     36  OG        21.0090   -8.2630   16.0110 O.3    23  SER23      -0.2180
     37  N         13.1590   -5.3580   14.8010 N.3    41  LYS41      -0.1245
     38  CA        14.3730   -4.7490   15.3020 C.3    41  LYS41       0.1561
     39  C         15.1220   -4.0340   14.1850 C.2    41  LYS41       0.2260
     40  O         15.6290   -2.8950   14.3600 O.2    41  LYS41      -0.2867
     41  CB        15.2700   -5.7980   15.9600 C.3    41  LYS41       0.0271
     42  CG        16.6270   -5.2400   16.4270 C.3    41  LYS41       0.0035
     43  CD        17.6630   -5.2930   15.3520 C.3    41  LYS41       0.0206
     44  CE        17.8460   -6.7130   14.8490 C.3    41  LYS41       0.1093
     45  NZ        18.5370   -7.6190   15.8200 N.3    41  LYS41      -0.1314
     46  N         26.1730   -0.3520    6.5770 N.3    59  ASP59      -0.1225
     47  CA        25.9220   -1.2650    7.6860 C.3    59  ASP59       0.1805
     48  C         27.2800   -1.7070    8.1660 C.2    59  ASP59       0.2598
     49  O         27.9330   -2.4850    7.4710 O.2    59  ASP59      -0.2718
     50  CB        25.0600   -2.4640    7.2450 C.3    59  ASP59       0.1424
     51  CG        24.7150   -3.3960    8.3900 C.2    59  ASP59       0.3668
     52  OD1       25.2990   -3.2530    9.4910 O.co2  59  ASP59      -0.2456
     53  OD2       23.8620   -4.3100    8.2220 O.co2  59  ASP59      -0.2456
     54  N         27.6950   -1.2380    9.3530 N.am   60  ILE60      -0.1966
     55  CA        28.9320   -1.7180    9.9870 C.3    60  ILE60       0.1727
     56  C         28.7560   -2.9960   10.8160 C.2    60  ILE60       0.2617
     57  O         28.2380   -2.9660   11.9300 O.2    60  ILE60      -0.2715
     58  CB        29.6220   -0.5980   10.8480 C.3    60  ILE60       0.0290
     59  CG1       29.9150    0.6360    9.9570 C.3    60  ILE60       0.0022
     60  CG2       30.9240   -1.1310   11.5410 C.3    60  ILE60       0.0023
     61  CD1       30.5100    1.8640   10.6920 C.3    60  ILE60       0.0001
     62  N         29.2420   -4.1110   10.2830 N.am   61  GLY61      -0.1940
     63  CA        29.0610   -5.4470   10.8710 C.3    61  GLY61       0.2014
     64  C         27.8160   -6.0580   10.3130 C.2    61  GLY61       0.2639
     65  O         26.8690   -6.2830   11.0510 O.2    61  GLY61      -0.2714
     66  N         27.7670   -6.3340    9.0070 N.am   62  CYS62      -0.1953
     67  CA        26.4550   -6.4770    8.3840 C.3    62  CYS62       0.1843
     68  C         25.8410   -7.9020    8.4740 C.2    62  CYS62       0.2626
     69  O         24.7330   -8.1560    7.9430 O.2    62  CYS62      -0.2714
     70  CB        26.5290   -5.9820    6.9460 C.3    62  CYS62       0.0997
     71  SG        27.6970   -6.9030    5.9290 S.3    62  CYS62      -0.0797
     72  N         26.5700   -8.7930    9.1450 N.am   63  GLY63      -0.1940
     73  CA        26.2570  -10.2090    9.2860 C.3    63  GLY63       0.2014
     74  C         25.9400  -10.8960    7.9730 C.2    63  GLY63       0.2638
     75  O         26.7530  -10.8680    7.0430 O.2    63  GLY63      -0.2714
     76  N         24.7450  -11.4990    7.9210 N.am   64  TRP64      -0.1973
     77  CA        24.2370  -12.2310    6.7590 C.3    64  TRP64       0.1640
     78  C         23.3490  -11.4210    5.8240 C.2    64  TRP64       0.2290
     79  O         22.7390  -12.0090    4.9120 O.2    64  TRP64      -0.2864
     80  CB        23.5140  -13.5270    7.1780 C.3    64  TRP64       0.0576
     81  CG        24.5430  -14.5710    7.2550 C.ar   64  TRP64       0.0006
     82  CD1       25.1770  -15.2180    6.1910 C.ar   64  TRP64       0.0946
     83  CD2       25.1850  -15.0050    8.4270 C.ar   64  TRP64       0.0152
     84  NE1       26.1730  -16.0400    6.6640 N.ar   64  TRP64      -0.2442
     85  CE2       26.1870  -15.9340    8.0390 C.ar   64  TRP64       0.0810
     86  CE3       24.9900  -14.7330    9.7610 C.ar   64  TRP64       0.0012
     87  CZ2       26.9860  -16.5730    8.9480 C.ar   64  TRP64       0.0191
     88  CZ3       25.8060  -15.3340   10.6730 C.ar   64  TRP64       0.0001
     89  CH2       26.8010  -16.2510   10.2640 C.ar   64  TRP64       0.0015
     90  N         19.6160   -6.8180    7.3300 N.3    67  THR67      -0.1218
     91  CA        19.4580   -5.3670    7.4980 C.3    67  THR67       0.1862
     92  C         19.6280   -4.6550    6.1860 C.2    67  THR67       0.2287
     93  O         18.7650   -3.8780    5.8210 O.2    67  THR67      -0.2866
     94  CB        20.4400   -4.8350    8.5250 C.3    67  THR67       0.1770
     95  OG1       20.2710   -5.6040    9.7190 O.3    67  THR67      -0.2211
     96  CG2       20.2570   -3.2830    8.7640 C.3    67  THR67       0.0375
     97  N         29.8580   -3.9660    5.7360 N.3    82  LEU82      -0.1231
     98  CA        31.2270   -4.3200    6.1390 C.3    82  LEU82       0.1693
     99  C         31.1340   -5.4970    7.0440 C.2    82  LEU82       0.2593
    100  O         30.3720   -5.5110    8.0080 O.2    82  LEU82      -0.2718
    101  CB        31.9060   -3.1980    6.9490 C.3    82  LEU82       0.0284
    102  CG        31.9210   -1.7660    6.4200 C.3    82  LEU82       0.0019
    103  CD1       32.7950   -0.9040    7.2920 C.3    82  LEU82       0.0001
    104  CD2       32.4120   -1.7360    4.9680 C.3    82  LEU82       0.0001
    105  N         31.9340   -6.4950    6.7370 N.am   83  THR83      -0.1939
    106  CA        31.9590   -7.6900    7.5310 C.3    83  THR83       0.2028
    107  C         33.3710   -8.2520    7.5980 C.2    83  THR83       0.2642
    108  O         34.2020   -7.9960    6.7230 O.2    83  THR83      -0.2714
    109  CB        30.9710   -8.7360    6.9860 C.3    83  THR83       0.1808
    110  OG1       30.9940   -9.8170    7.8810 O.3    83  THR83      -0.2208
    111  CG2       31.3410   -9.2340    5.5310 C.3    83  THR83       0.0379
    112  N         33.6420   -8.9800    8.6620 N.am   84  LEU84      -0.1963
    113  CA        34.9480   -9.5820    8.8430 C.3    84  LEU84       0.1728
    114  C         34.9550  -11.0730    8.4160 C.2    84  LEU84       0.2616
    115  O         36.0180  -11.6610    8.3230 O.2    84  LEU84      -0.2715
    116  CB        35.4140   -9.4220   10.3030 C.3    84  LEU84       0.0311
    117  CG        35.7310   -8.0290   10.8630 C.3    84  LEU84       0.0022
    118  CD1       36.3650   -8.2230   12.1910 C.3    84  LEU84       0.0001
    119  CD2       36.6440   -7.1400    9.9930 C.3    84  LEU84       0.0001
    120  N         33.7730  -11.6530    8.1370 N.am   85  SER85      -0.1950
    121  CA        33.6500  -13.0690    7.7340 C.3    85  SER85       0.1924
    122  C         33.5110  -13.2850    6.2260 C.2    85  SER85       0.2314
    123  O         32.6440  -12.6610    5.5700 O.2    85  SER85      -0.2863
    124  CB        32.4520  -13.6940    8.4510 C.3    85  SER85       0.2116
    125  OG        31.8300  -14.6730    7.6370 O.3    85  SER85      -0.2180
    126  N         29.9760  -14.7740    5.4600 N.3    88  GLN88      -0.1245
    127  CA        29.0290  -13.6700    5.4250 C.3    88  GLN88       0.1566
    128  C         29.1980  -12.8370    4.1590 C.2    88  GLN88       0.2260
    129  O         28.1980  -12.4770    3.5100 O.2    88  GLN88      -0.2867
    130  CB        29.1470  -12.8040    6.6650 C.3    88  GLN88       0.0367
    131  CG        28.7860  -13.5870    7.9100 C.3    88  GLN88       0.0905
    132  CD        28.9010  -12.7740    9.1990 C.2    88  GLN88       0.2608
    133  OE1       28.4230  -13.2000   10.2520 O.2    88  GLN88      -0.2717
    134  NE2       29.5350  -11.6110    9.1240 N.am   88  GLN88      -0.0878
    135  N         36.0300   -6.1570    5.2270 N.3   110  GLN110     -0.1231
    136  CA        36.9690   -5.1940    5.8740 C.3   110  GLN110      0.1698
    137  C         36.2580   -4.6030    7.0680 C.2   110  GLN110      0.2593
    138  O         35.0410   -4.7630    7.2000 O.2   110  GLN110     -0.2718
    139  CB        37.4630   -4.0890    4.9260 C.3   110  GLN110      0.0381
    140  CG        36.3610   -3.2190    4.3430 C.3   110  GLN110      0.0905
    141  CD        36.8660   -2.0430    3.4690 C.2   110  GLN110      0.2608
    142  OE1       37.3850   -2.2440    2.3820 O.2   110  GLN110     -0.2717
    143  NE2       36.6350   -0.8390    3.9110 N.am  110  GLN110     -0.0878
    144  N         37.0430   -3.9840    7.9420 N.am  111  GLY111     -0.1942
    145  CA        36.5610   -3.2710    9.1050 C.3   111  GLY111      0.2014
    146  C         36.2360   -1.8150    8.7840 C.2   111  GLY111      0.2639
    147  O         36.5510   -1.3010    7.6810 O.2   111  GLY111     -0.2714
    148  N         35.5470   -1.1680    9.7300 N.am  112  TRP112     -0.1959
    149  CA        35.2570    0.2540    9.6300 C.3   112  TRP112      0.1771
    150  C         36.5740    1.0510    9.5800 C.2   112  TRP112      0.2619
    151  O         36.6540    2.1080    8.9220 O.2   112  TRP112     -0.2715
    152  CB        34.3730    0.7120   10.7950 C.3   112  TRP112      0.0590
    153  CG        34.9900    0.4870   12.1570 C.ar  112  TRP112      0.0006
    154  CD1       34.7490   -0.5690   12.9720 C.ar  112  TRP112      0.0946
    155  CD2       35.9440    1.3220   12.8540 C.ar  112  TRP112      0.0152
    156  NE1       35.4640   -0.4600   14.1330 N.ar  112  TRP112     -0.2442
    157  CE2       36.2130    0.6880   14.0920 C.ar  112  TRP112      0.0810
    158  CE3       36.5910    2.5310   12.5540 C.ar  112  TRP112      0.0012
    159  CZ2       37.0920    1.2210   15.0430 C.ar  112  TRP112      0.0191
    160  CZ3       37.4790    3.0590   13.4820 C.ar  112  TRP112      0.0001
    161  CH2       37.7220    2.3980   14.7260 C.ar  112  TRP112      0.0015
    162  N         37.5950    0.5040   10.2250 N.am  113  GLU113     -0.1977
    163  CA        38.9300    1.1080   10.2810 C.3   113  GLU113      0.1602
    164  C         39.4630    1.4750    8.9080 C.2   113  GLU113      0.2287
    165  O         40.0900    2.5220    8.7590 O.2   113  GLU113     -0.2864
    166  CB        39.9500    0.1700   10.9630 C.3   113  GLU113      0.0415
    167  CG        39.6480   -0.2380   12.4310 C.3   113  GLU113      0.1163
    168  CD        38.7340   -1.4690   12.5550 C.2   113  GLU113      0.3649
    169  OE1       38.8870   -2.2220   13.5380 O.co2 113  GLU113     -0.2457
    170  OE2       37.8590   -1.6980   11.6890 O.co2 113  GLU113     -0.2457
    171  N         24.6220   -2.8170   14.3360 N.3   125  ILE125     -0.1231
    172  CA        23.8020   -3.5310   15.2990 C.3   125  ILE125      0.1692
    173  C         24.6580   -4.5960   15.8990 C.2   125  ILE125      0.2592
    174  O         24.9710   -5.5570   15.2250 O.2   125  ILE125     -0.2718
    175  CB        22.5530   -4.1190   14.6450 C.3   125  ILE125      0.0266
    176  CG1       21.6220   -2.9880   14.2270 C.3   125  ILE125      0.0019
    177  CG2       21.8080   -5.0630   15.5980 C.3   125  ILE125      0.0020
    178  CD1       20.6130   -3.4550   13.1380 C.3   125  ILE125      0.0001
    179  N         25.1140   -4.3470   17.1260 N.am  126  GLU126     -0.1966
    180  CA        25.9210   -5.2780   17.8990 C.3   126  GLU126      0.1733
    181  C         27.2000   -5.7640   17.2550 C.2   126  GLU126      0.2616
    182  O         27.6110   -6.9090   17.4460 O.2   126  GLU126     -0.2715
    183  CB        25.0650   -6.4280   18.4830 C.3   126  GLU126      0.0429
    184  CG        23.8680   -5.8580   19.3360 C.3   126  GLU126      0.1163
    185  CD        22.9960   -6.9800   19.9430 C.2   126  GLU126      0.3649
    186  OE1       21.7720   -6.7820   20.1150 O.co2 126  GLU126     -0.2457
    187  OE2       23.5370   -8.0610   20.2090 O.co2 126  GLU126     -0.2457
    188  N         27.9090   -4.8470   16.6000 N.am  127  ALA127     -0.1977
    189  CA        29.3090   -5.0710   16.2010 C.3   127  ALA127      0.1597
    190  C         30.2100   -4.3510   17.2070 C.2   127  ALA127      0.2287
    191  O         31.3750   -4.7000   17.3910 O.2   127  ALA127     -0.2864
    192  CB        29.5400   -4.5160   14.7740 C.3   127  ALA127      0.0319
    193  N         32.8500   -5.7180   19.7780 N.3   130  HIS130     -0.1226
    194  CA        34.1410   -6.2330   19.3070 C.3   130  HIS130      0.1752
    195  C         35.2560   -5.2170   19.2630 C.2   130  HIS130      0.2596
    196  O         36.3880   -5.6010   19.0900 O.2   130  HIS130     -0.2718
    197  CB        34.0310   -6.7860   17.8940 C.3   130  HIS130      0.0759
    198  CG        33.1170   -7.9590   17.7600 C.ar  130  HIS130      0.0818
    199  ND1       33.5610   -9.2630   17.8410 N.ar  130  HIS130     -0.2268
    200  CD2       31.7850   -8.0250   17.5120 C.ar  130  HIS130      0.1154
    201  CE1       32.5390  -10.0800   17.6440 C.ar  130  HIS130      0.1986
    202  NE2       31.4480   -9.3520   17.4500 N.ar  130  HIS130     -0.2212
    203  N         34.9440   -3.9180   19.3460 N.am  131  PHE131     -0.1976
    204  CA        35.9110   -2.8890   18.9100 C.3   131  PHE131      0.1639
    205  C         36.9910   -2.6400   19.9400 C.2   131  PHE131      0.2290
    206  O         38.1230   -2.3240   19.5980 O.2   131  PHE131     -0.2864
    207  CB        35.2200   -1.5440   18.6260 C.3   131  PHE131      0.0560
    208  CG        34.1780   -1.5720   17.5190 C.ar  131  PHE131     -0.0200
    209  CD1       34.0710   -2.6430   16.6320 C.ar  131  PHE131     -0.0042
    210  CD2       33.3240   -0.4780   17.3470 C.ar  131  PHE131     -0.0042
    211  CE1       33.1240   -2.6240   15.6070 C.ar  131  PHE131     -0.0003
    212  CE2       32.3780   -0.4650   16.3180 C.ar  131  PHE131     -0.0003
    213  CZ        32.2970   -1.5290   15.4420 C.ar  131  PHE131     -0.0000
    214  N         33.0950  -13.1070   22.3380 N.3   189  PHE189     -0.1241
    215  CA        33.5510  -12.0140   21.5150 C.3   189  PHE189      0.1605
    216  C         34.9940  -11.6860   21.8460 C.2   189  PHE189      0.2264
    217  O         35.2760  -10.6260   22.4060 O.2   189  PHE189     -0.2867
    218  CB        32.6310  -10.8070   21.7100 C.3   189  PHE189      0.0534
    219  CG        31.1760  -11.1540   21.5200 C.ar  189  PHE189     -0.0203
    220  CD1       30.2470  -10.9020   22.5200 C.ar  189  PHE189     -0.0042
    221  CD2       30.7500  -11.8160   20.3400 C.ar  189  PHE189     -0.0042
    222  CE1       28.9060  -11.2580   22.3350 C.ar  189  PHE189     -0.0003
    223  CE2       29.4030  -12.1800   20.1400 C.ar  189  PHE189     -0.0003
    224  CZ        28.4810  -11.9040   21.1400 C.ar  189  PHE189     -0.0000
@<TRIPOS>BOND
     1   142   141    2
     2   141   143   am
     3   141   140    1
     4   129   128    2
     5   128   127    1
     6   140   139    1
     7    79    78    2
     8   139   136    1
     9   104   102    1
    10   135   136    1
    11   127   126    1
    12   127   130    1
    13   111   109    1
    14   123   122    2
    15    97    98    1
    16    93    92    2
    17    78    77    1
    18   136   137    1
    19    71    70    1
    20    98   101    1
    21    98    99    1
    22    10     9    1
    23    92    91    1
    24    82    84   ar
    25    82    81   ar
    26   122   121    1
    27   102   101    1
    28   102   103    1
    29    46    47    1
    30    11     9    1
    31    84    85   ar
    32   130   131    1
    33   108   107    2
    34   105    99   am
    35   105   106    1
    36    77    80    1
    37    77    76    1
    38     9     8    2
    39    70    67    1
    40   109   106    1
    41   109   110    1
    42    75    74    2
    43    99   100    2
    44   137   138    2
    45   137   144   am
    46    80    81    1
    47    50    47    1
    48    50    51    1
    49    81    83   ar
    50    90    91    1
    51    49    48    2
    52    91    94    1
    53   106   107    1
    54   107   112   am
    55   125   124    1
    56   147   146    2
    57    47    48    1
    58   121   120    1
    59   121   124    1
    60   131   132    1
    61    76    74   am
    62   144   145    1
    63    69    68    2
    64    74    73    1
    65    85    83   ar
    66    85    87   ar
    67     8     7    1
    68   120   114   am
    69    48    54   am
    70    53    51   ar
    71   115   114    2
    72    67    68    1
    73    67    66    1
    74    51    52   ar
    75   114   113    1
    76    83    86   ar
    77    68    72   am
    78    94    96    1
    79    94    95    1
    80     7     6    1
    81     6     5    1
    82   112   113    1
    83   165   164    2
    84   146   145    1
    85   146   148   am
    86   113   116    1
    87   164   163    1
    88   151   150    2
    89    87    89   ar
    90    66    64   am
    91   134   132   am
    92    72    73    1
    93   132   133    2
    94    54    55    1
    95   150   149    1
    96   150   162   am
    97   149   148    1
    98   149   152    1
    99    86    88   ar
   100     5     2    1
   101    59    61    1
   102    59    58    1
   103    55    56    1
   104    55    58    1
   105   119   117    1
   106   162   163    1
   107    89    88   ar
   108   163   166    1
   109    62    56   am
   110    62    63    1
   111   116   117    1
   112    64    63    1
   113    64    65    2
   114     1     2    1
   115   152   153    1
   116    56    57    2
   117    58    60    1
   118   117   118    1
   119     2     3    1
   120   166   167    1
   121     3     4    2
   122     3    12   am
   123   170   168   ar
   124    17    16    1
   125   153   155   ar
   126   153   154   ar
   127    12    13    1
   128   167   168    1
   129   158   155   ar
   130   158   160   ar
   131   168   169   ar
   132   155   157   ar
   133   154   156   ar
   134    13    16    1
   135    13    14    1
   136   178   176    1
   137    16    18    1
   138   160   161   ar
   139   157   156   ar
   140   157   159   ar
   141    39    40    2
   142    39    38    1
   143   176   175    1
   144   171   172    1
   145    14    19   am
   146    14    15    2
   147   175   172    1
   148   175   177    1
   149    19    20    1
   150   161   159   ar
   151   192   189    1
   152    37    38    1
   153    44    43    1
   154    44    45    1
   155   174   173    2
   156   172   173    1
   157    38    41    1
   158    23    20    1
   159    23    24    1
   160    43    42    1
   161   213   211   ar
   162   213   212   ar
   163   211   209   ar
   164    20    21    1
   165   173   179   am
   166    41    42    1
   167    36    35    1
   168   189   188    1
   169   189   190    1
   170   212   210   ar
   171    25    24   ar
   172    25    27   ar
   173    24    26   ar
   174   188   181   am
   175   209   208   ar
   176    21    22    2
   177    21    31   am
   178   179   180    1
   179    35    32    1
   180    31    32    1
   181   190   191    2
   182   181   182    2
   183   181   180    1
   184   210   208   ar
   185    27    29   ar
   186   202   200   ar
   187   202   201   ar
   188   200   198   ar
   189   208   207    1
   190    26    28   ar
   191   201   199   ar
   192   198   199   ar
   193   198   197    1
   194   197   194    1
   195   180   183    1
   196    32    33    1
   197    34    33    2
   198   183   184    1
   199    29    28   ar
   200    29    30    1
   201   207   204    1
   202   204   203    1
   203   204   205    1
   204   196   195    2
   205   195   194    1
   206   195   203   am
   207   194   193    1
   208   184   185    1
   209   206   205    2
   210   185   186   ar
   211   185   187   ar
   212   223   221   ar
   213   223   224   ar
   214   221   219   ar
   215   224   222   ar
   216   215   218    1
   217   215   216    1
   218   215   214    1
   219   219   218    1
   220   219   220   ar
   221   216   217    2
   222   222   220   ar
