@<TRIPOS>MOLECULE
tmp/3ha6A00.pdb
 172 162 0 0 0
SMALL
GASTEIGER

@<TRIPOS>ATOM
      1  N        -31.7880   16.9040    8.1220 N.3    16  LEU16      -0.1231
      2  CA       -31.7970   17.8860    7.0380 C.3    16  LEU16       0.1693
      3  C        -30.4510   18.5980    6.9180 C.2    16  LEU16       0.2593
      4  O        -29.9530   18.8220    5.8180 O.2    16  LEU16      -0.2718
      5  CB       -32.9370   18.8950    7.2240 C.3    16  LEU16       0.0284
      6  CG       -34.3740   18.3630    7.1090 C.3    16  LEU16       0.0019
      7  CD1      -35.3690   19.3710    7.6650 C.3    16  LEU16       0.0001
      8  CD2      -34.7470   17.9710    5.6740 C.3    16  LEU16       0.0001
      9  N        -29.8560   18.9360    8.0550 N.am   17  GLY17      -0.1942
     10  CA       -28.5680   19.6120    8.0670 C.3    17  GLY17       0.2014
     11  C        -27.8210   19.4110    9.3640 C.2    17  GLY17       0.2639
     12  O        -28.4300   19.3240   10.4300 O.2    17  GLY17      -0.2714
     13  N        -26.4980   19.3170    9.2600 N.am   18  LYS18      -0.1963
     14  CA       -25.6200   19.2430   10.4290 C.3    18  LYS18       0.1728
     15  C        -25.1250   20.6450   10.7970 C.2    18  LYS18       0.2616
     16  O        -24.9350   21.4900    9.9240 O.2    18  LYS18      -0.2715
     17  CB       -24.4320   18.3140   10.1490 C.3    18  LYS18       0.0311
     18  CG       -23.4980   18.1060   11.3430 C.3    18  LYS18       0.0038
     19  CD       -22.2230   17.3720   10.9430 C.3    18  LYS18       0.0206
     20  CE       -21.2980   17.1930   12.1470 C.3    18  LYS18       0.1093
     21  NZ       -20.0480   16.4660   11.7630 N.3    18  LYS18      -0.1314
     22  N        -24.9320   20.8770   12.0950 N.am   19  GLY19      -0.1955
     23  CA       -24.3810   22.1260   12.6230 C.3    19  GLY19       0.1869
     24  C        -23.4500   21.8470   13.7900 C.2    19  GLY19       0.2309
     25  O        -23.3370   20.6980   14.2350 O.2    19  GLY19      -0.2863
     26  N        -25.3380   20.6840   17.0220 N.3    22  GLY22      -0.1225
     27  CA       -26.3820   19.6910   16.7730 C.3    22  GLY22       0.1811
     28  C        -27.0260   19.8640   15.4120 C.2    22  GLY22       0.2280
     29  O        -26.7200   20.8190   14.6920 O.2    22  GLY22      -0.2866
     30  N        -30.4300   19.5870   12.4290 N.3    24  VAL24      -0.1245
     31  CA       -31.8580   19.7520   12.1410 C.3    24  VAL24       0.1561
     32  C        -32.3660   18.4600   11.5270 C.2    24  VAL24       0.2260
     33  O        -31.7590   17.9210   10.6030 O.2    24  VAL24      -0.2867
     34  CB       -32.1390   20.8710   11.1210 C.3    24  VAL24       0.0252
     35  CG1      -33.4750   21.5240   11.4100 C.3    24  VAL24       0.0019
     36  CG2      -31.0720   21.8940   11.1780 C.3    24  VAL24       0.0019
     37  N        -39.1980   20.9810   10.8950 N.3    37  ALA37      -0.1245
     38  CA       -37.7710   20.8060   11.0830 C.3    37  ALA37       0.1562
     39  C        -37.4990   20.9620   12.5730 C.2    37  ALA37       0.2260
     40  O        -37.8020   22.0060   13.1580 O.2    37  ALA37      -0.2867
     41  CB       -37.0060   21.8470   10.2920 C.3    37  ALA37       0.0290
     42  N        -34.7000   21.3540   15.2360 N.3    39  LYS39      -0.1245
     43  CA       -33.3050   21.6920   15.4630 C.3    39  LYS39       0.1561
     44  C        -32.9130   21.3570   16.8960 C.2    39  LYS39       0.2260
     45  O        -33.5600   21.7950   17.8490 O.2    39  LYS39      -0.2867
     46  CB       -33.0620   23.1720   15.1690 C.3    39  LYS39       0.0271
     47  CG       -31.6150   23.6050   15.3150 C.3    39  LYS39       0.0035
     48  CD       -31.3920   24.9210   14.6160 C.3    39  LYS39       0.0206
     49  CE       -29.9270   25.1280   14.3020 C.3    39  LYS39       0.1093
     50  NZ       -29.7510   26.1800   13.2490 N.3    39  LYS39      -0.1314
     51  N        -38.4530   32.1560    7.7080 N.3    71  LEU71      -0.1245
     52  CA       -38.6960   30.8190    8.2610 C.3    71  LEU71       0.1561
     53  C        -39.2930   30.9000    9.6630 C.2    71  LEU71       0.2260
     54  O        -38.7440   31.5650   10.5380 O.2    71  LEU71      -0.2867
     55  CB       -37.4010   29.9970    8.2940 C.3    71  LEU71       0.0270
     56  CG       -37.5610   28.4860    8.5030 C.3    71  LEU71       0.0019
     57  CD1      -37.9750   27.7950    7.2050 C.3    71  LEU71       0.0001
     58  CD2      -36.2940   27.8500    9.0640 C.3    71  LEU71       0.0001
     59  N        -39.0080   24.4560   13.9080 N.3    87  LEU87      -0.1231
     60  CA       -38.9170   25.3720   12.7750 C.3    87  LEU87       0.1693
     61  C        -39.7560   24.8760   11.5990 C.2    87  LEU87       0.2592
     62  O        -39.9220   23.6640   11.4100 O.2    87  LEU87      -0.2718
     63  CB       -37.4520   25.5180   12.3430 C.3    87  LEU87       0.0284
     64  CG       -36.4270   26.1820   13.2700 C.3    87  LEU87       0.0019
     65  CD1      -35.0150   25.7000   12.9490 C.3    87  LEU87       0.0001
     66  CD2      -36.5000   27.7120   13.1950 C.3    87  LEU87       0.0001
     67  N        -40.2830   25.8220   10.8200 N.am   88  GLU88      -0.1966
     68  CA       -40.9600   25.5260    9.5520 C.3    88  GLU88       0.1733
     69  C        -40.0270   24.7140    8.6530 C.2    88  GLU88       0.2616
     70  O        -38.8050   24.9020    8.6820 O.2    88  GLU88      -0.2715
     71  CB       -41.3950   26.8380    8.8630 C.3    88  GLU88       0.0429
     72  CG       -41.6620   26.7510    7.3530 C.3    88  GLU88       0.1163
     73  CD       -41.9560   28.1000    6.6790 C.2    88  GLU88       0.3649
     74  OE1      -42.3110   28.0890    5.4800 O.co2  88  GLU88      -0.2457
     75  OE2      -41.8430   29.1630    7.3210 O.co2  88  GLU88      -0.2457
     76  N        -40.6080   23.7990    7.8780 N.am   89  TYR89      -0.1960
     77  CA       -39.8470   22.9980    6.9240 C.3    89  TYR89       0.1771
     78  C        -39.6810   23.7610    5.6120 C.2    89  TYR89       0.2619
     79  O        -40.6040   24.4290    5.1510 O.2    89  TYR89      -0.2715
     80  CB       -40.5320   21.6410    6.7090 C.3    89  TYR89       0.0574
     81  CG       -39.9380   20.7620    5.6190 C.ar   89  TYR89      -0.0198
     82  CD1      -38.5800   20.4490    5.6060 C.ar   89  TYR89      -0.0009
     83  CD2      -40.7480   20.2190    4.6190 C.ar   89  TYR89      -0.0009
     84  CE1      -38.0340   19.6420    4.6140 C.ar   89  TYR89       0.0417
     85  CE2      -40.2150   19.3990    3.6230 C.ar   89  TYR89       0.0417
     86  CZ       -38.8530   19.1180    3.6310 C.ar   89  TYR89       0.1957
     87  OH       -38.3100   18.3130    2.6580 O.3    89  TYR89      -0.2866
     88  N        -38.4880   23.6890    5.0340 N.am   90  ALA90      -0.1964
     89  CA       -38.2120   24.3230    3.7470 C.3    90  ALA90       0.1713
     90  C        -37.7910   23.2360    2.7550 C.2    90  ALA90       0.2458
     91  O        -36.6170   22.8500    2.7130 O.2    90  ALA90      -0.2730
     92  CB       -37.1350   25.3840    3.8910 C.3    90  ALA90       0.0333
     93  N        -38.7550   22.7310    1.9610 N.am   91  PRO91      -0.2727
     94  CA       -38.5470   21.5510    1.1230 C.3    91  PRO91       0.1402
     95  C        -37.3940   21.6360    0.1250 C.2    91  PRO91       0.2269
     96  O        -36.7620   20.6220   -0.1560 O.2    91  PRO91      -0.2865
     97  CB       -39.8870   21.4020    0.3910 C.3    91  PRO91       0.0296
     98  CG       -40.8750   22.0790    1.2670 C.3    91  PRO91       0.0237
     99  CD       -40.1280   23.2540    1.8220 C.3    91  PRO91       0.0939
    100  N        -34.4330   23.0730    0.3100 N.3    93  GLY93      -0.1210
    101  CA       -33.0960   23.2460    0.8830 C.3    93  GLY93       0.1956
    102  C        -32.6020   24.6760    0.9110 C.2    93  GLY93       0.2612
    103  O        -33.3940   25.6160    0.8140 O.2    93  GLY93      -0.2717
    104  N        -31.2870   24.8410    1.0400 N.am   94  THR94      -0.1952
    105  CA       -30.6700   26.1670    1.1600 C.3    94  THR94       0.1897
    106  C        -30.4160   26.8210   -0.2010 C.2    94  THR94       0.2313
    107  O        -30.2810   26.1320   -1.2110 O.2    94  THR94      -0.2863
    108  CB       -29.3300   26.1060    1.9410 C.3    94  THR94       0.1794
    109  OG1      -28.3610   25.3590    1.1960 O.3    94  THR94      -0.2208
    110  CG2      -29.5180   25.4550    3.3010 C.3    94  THR94       0.0378
    111  N        -27.7290   28.4310   -0.7120 N.3    96  TYR96      -0.1227
    112  CA       -26.3060   28.1530   -0.8500 C.3    96  TYR96       0.1736
    113  C        -26.0600   26.9220   -1.7230 C.2    96  TYR96       0.2595
    114  O        -25.1720   26.9330   -2.5740 O.2    96  TYR96      -0.2718
    115  CB       -25.6750   27.9750    0.5350 C.3    96  TYR96       0.0548
    116  CG       -24.3090   27.3230    0.5440 C.ar   96  TYR96      -0.0200
    117  CD1      -23.1580   28.0860    0.4050 C.ar   96  TYR96      -0.0009
    118  CD2      -24.1720   25.9450    0.7030 C.ar   96  TYR96      -0.0009
    119  CE1      -21.9020   27.5010    0.4170 C.ar   96  TYR96       0.0417
    120  CE2      -22.9150   25.3460    0.7110 C.ar   96  TYR96       0.0417
    121  CZ       -21.7880   26.1370    0.5740 C.ar   96  TYR96       0.1957
    122  OH       -20.5420   25.5730    0.5880 O.3    96  TYR96      -0.2866
    123  N        -26.8590   25.8780   -1.5040 N.am   97  ARG97      -0.1980
    124  CA       -26.7670   24.6370   -2.2660 C.3    97  ARG97       0.1597
    125  C        -27.1870   24.8270   -3.7230 C.2    97  ARG97       0.2287
    126  O        -26.5520   24.2830   -4.6350 O.2    97  ARG97      -0.2864
    127  CB       -27.6280   23.5490   -1.6160 C.3    97  ARG97       0.0334
    128  CG       -27.4470   22.1670   -2.2190 C.3    97  ARG97       0.0492
    129  CD       -26.0390   21.6470   -1.9700 C.3    97  ARG97       0.2205
    130  NE       -25.8740   20.2660   -2.4200 N.pl3  97  ARG97      -0.0865
    131  CZ       -25.3400   19.9130   -3.5880 C.cat  97  ARG97       0.5346
    132  NH1      -24.9160   20.8440   -4.4410 N.pl3  97  ARG97       0.1354
    133  NH2      -25.2290   18.6220   -3.9040 N.pl3  97  ARG97       0.1354
    134  N        -24.4250   26.5440   -5.4860 N.3   100  GLN100     -0.1245
    135  CA       -23.3350   25.6110   -5.7250 C.3   100  GLN100      0.1566
    136  C        -23.6030   24.7110   -6.9400 C.2   100  GLN100      0.2260
    137  O        -22.6680   24.2620   -7.6090 O.2   100  GLN100     -0.2867
    138  CB       -23.1120   24.7640   -4.4720 C.3   100  GLN100      0.0367
    139  CG       -21.6880   24.2630   -4.2790 C.3   100  GLN100      0.0905
    140  CD       -21.4460   23.7720   -2.8640 C.2   100  GLN100      0.2608
    141  OE1      -20.8150   24.4590   -2.0640 O.2   100  GLN100     -0.2717
    142  NE2      -21.9630   22.5800   -2.5430 N.am  100  GLN100     -0.0878
    143  N        -25.9070   30.6370    3.0420 N.3   137  GLU137     -0.1245
    144  CA       -26.1160   29.5660    4.0250 C.3   137  GLU137      0.1567
    145  C        -27.3510   29.7700    4.8840 C.2   137  GLU137      0.2260
    146  O        -28.0500   28.8030    5.2040 O.2   137  GLU137     -0.2867
    147  CB       -24.9070   29.4160    4.9470 C.3   137  GLU137      0.0388
    148  CG       -23.6920   28.7840    4.3070 C.3   137  GLU137      0.1160
    149  CD       -22.8260   29.7860    3.5570 C.2   137  GLU137      0.3649
    150  OE1      -23.3080   30.9050    3.2330 O.co2 137  GLU137     -0.2457
    151  OE2      -21.6530   29.4470    3.2940 O.co2 137  GLU137     -0.2457
    152  N        -33.0530   29.8250    2.9990 N.3   140  LEU140     -0.1245
    153  CA       -33.7180   28.5590    2.6350 C.3   140  LEU140      0.1561
    154  C        -34.7920   28.7480    1.5640 C.2   140  LEU140      0.2260
    155  O        -35.1250   29.8850    1.2050 O.2   140  LEU140     -0.2867
    156  CB       -34.3500   27.9040    3.8680 C.3   140  LEU140      0.0270
    157  CG       -33.5260   27.1040    4.8800 C.3   140  LEU140      0.0019
    158  CD1      -34.4080   26.7860    6.0680 C.3   140  LEU140      0.0001
    159  CD2      -32.9700   25.8090    4.3080 C.3   140  LEU140      0.0001
    160  N        -33.3940   32.6400    7.7240 N.3   150  ALA150     -0.1231
    161  CA       -33.4320   31.9490    8.9970 C.3   150  ALA150      0.1694
    162  C        -32.1920   32.3210    9.7960 C.2   150  ALA150      0.2592
    163  O        -31.6520   33.4290    9.6500 O.2   150  ALA150     -0.2718
    164  CB       -33.4960   30.4420    8.7710 C.3   150  ALA150      0.0304
    165  N        -31.7480   31.3950   10.6460 N.am  151  ASP151     -0.1974
    166  CA       -30.5200   31.5620   11.4020 C.3   151  ASP151      0.1709
    167  C        -30.4280   32.9710   12.0100 C.2   151  ASP151      0.2293
    168  O        -29.6180   33.8060   11.5820 O.2   151  ASP151     -0.2864
    169  CB       -29.3240   31.2510   10.5020 C.3   151  ASP151      0.1436
    170  CG       -29.2130   29.7780   10.1660 C.2   151  ASP151      0.3671
    171  OD1      -29.0400   28.9560   11.0870 O.co2 151  ASP151     -0.2456
    172  OD2      -29.2770   29.4310    8.9710 O.co2 151  ASP151     -0.2456
@<TRIPOS>BOND
     1   137   136    2
     2   136   135    1
     3   135   134    1
     4   135   138    1
     5   126   125    2
     6   138   139    1
     7   132   131    1
     8   139   140    1
     9   133   131    1
    10   125   124    1
    11   131   130    2
    12   140   142   am
    13   140   141    2
    14   114   113    2
    15   130   129    1
    16   124   127    1
    17   124   123    1
    18   128   129    1
    19   128   127    1
    20   113   123   am
    21   113   112    1
    22   107   106    2
    23   112   111    1
    24   112   115    1
    25   106   105    1
    26    96    95    2
    27    95    94    1
    28   100   101    1
    29    97    94    1
    30    97    98    1
    31   117   119   ar
    32   117   116   ar
    33   119   121   ar
    34   115   116    1
    35   116   118   ar
    36   121   122    1
    37   121   120   ar
    38   118   120   ar
    39   103   102    2
    40   101   102    1
    41   102   104   am
    42   104   105    1
    43    94    93    1
    44   105   108    1
    45   109   108    1
    46   155   154    2
    47    98    99    1
    48   154   153    1
    49    99    93    1
    50   108   110    1
    51    93    90   am
    52   153   152    1
    53   153   156    1
    54    87    86    1
    55    91    90    2
    56    90    89    1
    57   143   144    1
    58   150   149   ar
    59   151   149   ar
    60   149   148    1
    61    85    86   ar
    62    85    83   ar
    63    86    84   ar
    64    89    92    1
    65    89    88    1
    66   156   157    1
    67   144   145    1
    68   144   147    1
    69   148   147    1
    70   159   157    1
    71    84    82   ar
    72    83    81   ar
    73   157   158    1
    74   145   146    2
    75    88    78   am
    76    79    78    2
    77    74    73   ar
    78    82    81   ar
    79    78    77    1
    80    81    80    1
    81     8     6    1
    82     4     3    2
    83    73    75   ar
    84    73    72    1
    85    80    77    1
    86     3     2    1
    87     3     9   am
    88    77    76    1
    89     2     5    1
    90     2     1    1
    91     6     5    1
    92     6     7    1
    93    57    56    1
    94    72    71    1
    95    51    52    1
    96   160   161    1
    97    76    69   am
    98     9    10    1
    99    10    11    1
   100    52    55    1
   101    52    53    1
   102    55    56    1
   103    56    58    1
   104    69    70    2
   105    69    68    1
   106   164   161    1
   107    71    68    1
   108   172   170   ar
   109   161   162    1
   110    13    11   am
   111    13    14    1
   112    11    12    2
   113    68    67    1
   114   163   162    2
   115    53    54    2
   116   162   165   am
   117    16    15    2
   118    17    14    1
   119    17    18    1
   120   170   169    1
   121   170   171   ar
   122    41    38    1
   123    14    15    1
   124   169   166    1
   125    33    32    2
   126   165   166    1
   127    15    22   am
   128    67    61   am
   129    37    38    1
   130    19    18    1
   131    19    20    1
   132    38    39    1
   133    34    36    1
   134    34    35    1
   135    34    31    1
   136   166   167    1
   137    62    61    2
   138    32    31    1
   139   168   167    2
   140    61    60    1
   141    21    20    1
   142    22    23    1
   143    31    30    1
   144    63    60    1
   145    63    64    1
   146    39    40    2
   147    23    24    1
   148    60    59    1
   149    65    64    1
   150    66    64    1
   151    50    49    1
   152    24    25    2
   153    49    48    1
   154    48    47    1
   155    29    28    2
   156    46    47    1
   157    46    43    1
   158    42    43    1
   159    28    27    1
   160    43    44    1
   161    27    26    1
   162    44    45    2
