@<TRIPOS>MOLECULE
tmp/3ha8A00.pdb
 184 172 0 0 0
SMALL
GASTEIGER

@<TRIPOS>ATOM
      1  N         -0.7100   10.4580   20.1210 N.3    27  VAL27      -0.1231
      2  CA        -1.7300   10.3280   21.1500 C.3    27  VAL27       0.1696
      3  C         -2.2980   11.6620   21.6630 C.2    27  VAL27       0.2631
      4  O         -3.4590   11.7190   22.0740 O.2    27  VAL27      -0.2714
      5  CB        -1.2330    9.3760   22.2840 C.3    27  VAL27       0.0266
      6  CG1       -0.5210   10.1380   23.4020 C.3    27  VAL27       0.0020
      7  CG2       -2.3650    8.5300   22.8060 C.3    27  VAL27       0.0020
      8  N         -1.5040   12.7310   21.6120 N.am   28  GLY28      -0.1732
      9  CA        -1.9650   14.0320   22.1070 C.2    28  GLY28       0.1340
     10  C         -1.2260   15.2720   21.6230 C.2    28  GLY28       0.2521
     11  O          0.0110   15.3150   21.6340 O.2    28  GLY28      -0.2816
     12  N          0.1030   18.1640   22.4530 N.3    30  GLY30      -0.1225
     13  CA         0.6380   18.9570   23.5710 C.3    30  GLY30       0.1811
     14  C          1.1300   20.3500   23.1990 C.2    30  GLY30       0.2280
     15  O          1.1260   20.7320   22.0210 O.2    30  GLY30      -0.2866
     16  N          3.3190   13.6810   21.7920 N.3    35  VAL35      -0.1245
     17  CA         3.4330   12.4400   22.5410 C.3    35  VAL35       0.1561
     18  C          2.9040   11.2600   21.7350 C.2    35  VAL35       0.2260
     19  O          1.8150   11.3140   21.1630 O.2    35  VAL35      -0.2867
     20  CB         2.7210   12.5280   23.9250 C.3    35  VAL35       0.0252
     21  CG1        2.8740   11.2270   24.7090 C.3    35  VAL35       0.0019
     22  CG2        3.2670   13.7000   24.7430 C.3    35  VAL35       0.0019
     23  N          4.8330    5.9250   26.9860 N.3    48  ALA48      -0.1231
     24  CA         4.5680    7.2210   26.3770 C.3    48  ALA48       0.1694
     25  C          5.9080    7.8760   26.0540 C.2    48  ALA48       0.2592
     26  O          6.7960    7.9300   26.9070 O.2    48  ALA48      -0.2718
     27  CB         3.7590    8.0950   27.3240 C.3    48  ALA48       0.0304
     28  N          6.0610    8.3450   24.8210 N.am   49  VAL49      -0.1966
     29  CA         7.2830    9.0180   24.3850 C.3    49  VAL49       0.1727
     30  C          6.9590   10.4440   23.9600 C.2    49  VAL49       0.2616
     31  O          6.0750   10.6650   23.1270 O.2    49  VAL49      -0.2715
     32  CB         7.9610    8.2890   23.1880 C.3    49  VAL49       0.0290
     33  CG1        9.2980    8.9360   22.8500 C.3    49  VAL49       0.0023
     34  CG2        8.1320    6.7990   23.4690 C.3    49  VAL49       0.0023
     35  N          7.6770   11.4050   24.5310 N.am   50  LYS50      -0.1977
     36  CA         7.4860   12.8150   24.2020 C.3    50  LYS50       0.1596
     37  C          8.7040   13.3710   23.4750 C.2    50  LYS50       0.2287
     38  O          9.8340   13.1540   23.9070 O.2    50  LYS50      -0.2864
     39  CB         7.2140   13.6270   25.4730 C.3    50  LYS50       0.0298
     40  CG         6.8980   15.0890   25.2290 C.3    50  LYS50       0.0038
     41  CD         6.4530   15.7940   26.5070 C.3    50  LYS50       0.0206
     42  CE         5.8680   17.1670   26.1900 C.3    50  LYS50       0.1093
     43  NZ         5.3330   17.8680   27.3900 N.3    50  LYS50      -0.1314
     44  N         12.7160   20.9040   33.6060 N.3    68  GLU68      -0.1245
     45  CA        11.8490   19.7740   33.2980 C.3    68  GLU68       0.1567
     46  C         12.6080   18.4600   33.4540 C.2    68  GLU68       0.2260
     47  O         12.2070   17.5920   34.2320 O.2    68  GLU68      -0.2867
     48  CB        11.3060   19.9190   31.8750 C.3    68  GLU68       0.0388
     49  CG        10.2240   18.9230   31.4730 C.3    68  GLU68       0.1160
     50  CD         9.3020   19.4740   30.3820 C.2    68  GLU68       0.3649
     51  OE1        9.4830   20.6610   29.9870 O.co2  68  GLU68      -0.2457
     52  OE2        8.3960   18.7220   29.9310 O.co2  68  GLU68      -0.2457
     53  N         12.1440   15.4430   36.3890 N.3    72  LEU72      -0.1245
     54  CA        11.8080   14.0950   35.9380 C.3    72  LEU72       0.1561
     55  C         12.9090   13.0730   36.1980 C.2    72  LEU72       0.2260
     56  O         12.6210   11.9190   36.5190 O.2    72  LEU72      -0.2867
     57  CB        11.4410   14.1080   34.4520 C.3    72  LEU72       0.0270
     58  CG        10.2470   14.9760   34.0500 C.3    72  LEU72       0.0019
     59  CD1       10.2070   15.1350   32.5400 C.3    72  LEU72       0.0001
     60  CD2        8.9350   14.4110   34.5820 C.3    72  LEU72       0.0001
     61  N          4.9810   10.7860   38.1250 N.3    81  ILE81      -0.1245
     62  CA         5.5170   10.4490   36.8040 C.3    81  ILE81       0.1561
     63  C          7.0230   10.7020   36.7480 C.2    81  ILE81       0.2260
     64  O          7.4980   11.8220   36.9720 O.2    81  ILE81      -0.2867
     65  CB         4.7380   11.1170   35.6350 C.3    81  ILE81       0.0252
     66  CG1        3.5890   10.2050   35.2000 C.3    81  ILE81       0.0019
     67  CG2        5.6350   11.3330   34.4180 C.3    81  ILE81       0.0019
     68  CD1        2.2580   10.9030   35.0990 C.3    81  ILE81       0.0001
     69  N         10.9290    8.9710   34.8590 N.3    83  LEU83      -0.1245
     70  CA        11.5330    8.8050   33.5550 C.3    83  LEU83       0.1561
     71  C         12.1090    7.4050   33.3940 C.2    83  LEU83       0.2260
     72  O         13.0850    7.0500   34.0610 O.2    83  LEU83      -0.2867
     73  CB        12.6280    9.8630   33.3920 C.3    83  LEU83       0.0270
     74  CG        12.7960   10.6770   32.1080 C.3    83  LEU83       0.0019
     75  CD1       11.4630   11.1450   31.5200 C.3    83  LEU83       0.0001
     76  CD2       13.7080   11.8700   32.4040 C.3    83  LEU83       0.0001
     77  N         11.5910   12.0470   25.7590 N.3   101  LEU101     -0.1231
     78  CA        11.3550   11.5110   27.0920 C.3   101  LEU101      0.1693
     79  C         10.4690   10.2860   27.0090 C.2   101  LEU101      0.2592
     80  O          9.5100   10.2670   26.2450 O.2   101  LEU101     -0.2718
     81  CB        10.7010   12.5630   27.9890 C.3   101  LEU101      0.0284
     82  CG        11.3820   13.9240   28.1460 C.3   101  LEU101      0.0019
     83  CD1       10.4070   14.9210   28.7530 C.3   101  LEU101      0.0001
     84  CD2       12.6500   13.8280   28.9800 C.3   101  LEU101      0.0001
     85  N         10.7960    9.2690   27.8010 N.am  102  VAL102     -0.1966
     86  CA         9.9930    8.0500   27.8720 C.3   102  VAL102      0.1727
     87  C          9.4890    7.8200   29.2980 C.2   102  VAL102      0.2617
     88  O         10.2380    7.9810   30.2630 O.2   102  VAL102     -0.2715
     89  CB        10.7820    6.8050   27.4020 C.3   102  VAL102      0.0290
     90  CG1        9.8670    5.5840   27.3300 C.3   102  VAL102      0.0023
     91  CG2       11.4460    7.0520   26.0450 C.3   102  VAL102      0.0023
     92  N          8.2160    7.4440   29.4150 N.am  103  THR103     -0.1937
     93  CA         7.6010    7.1060   30.7010 C.3   103  THR103      0.2028
     94  C          6.5050    6.0520   30.5300 C.2   103  THR103      0.2642
     95  O          6.1770    5.6790   29.4010 O.2   103  THR103     -0.2714
     96  CB         7.0190    8.3530   31.3930 C.3   103  THR103      0.1808
     97  OG1        6.8140    8.0700   32.7810 O.3   103  THR103     -0.2208
     98  CG2        5.6940    8.7780   30.7540 C.3   103  THR103      0.0379
     99  N          5.9400    5.5820   31.6440 N.am  104  HIS104     -0.1959
    100  CA         4.8300    4.6250   31.6140 C.3   104  HIS104      0.1787
    101  C          3.6320    5.1920   30.8580 C.2   104  HIS104      0.2620
    102  O          3.2650    6.3550   31.0490 O.2   104  HIS104     -0.2715
    103  CB         4.3810    4.2750   33.0340 C.3   104  HIS104      0.0785
    104  CG         5.4220    3.5770   33.8540 C.ar  104  HIS104      0.0821
    105  ND1        5.7270    2.2410   33.6900 N.ar  104  HIS104     -0.2267
    106  CD2        6.2090    4.0230   34.8630 C.ar  104  HIS104      0.1154
    107  CE1        6.6690    1.8980   34.5510 C.ar  104  HIS104      0.1986
    108  NE2        6.9790    2.9610   35.2750 N.ar  104  HIS104     -0.2212
    109  N          3.0210    4.3760   30.0060 N.am  105  LEU105     -0.1963
    110  CA         1.7670    4.7610   29.3670 C.3   105  LEU105      0.1728
    111  C          0.6090    4.6430   30.3520 C.2   105  LEU105      0.2616
    112  O          0.3950    3.5810   30.9430 O.2   105  LEU105     -0.2715
    113  CB         1.4900    3.9060   28.1290 C.3   105  LEU105      0.0311
    114  CG         0.3470    4.3790   27.2290 C.3   105  LEU105      0.0022
    115  CD1        0.5890    5.8050   26.7220 C.3   105  LEU105      0.0001
    116  CD2        0.1280    3.4100   26.0630 C.3   105  LEU105      0.0001
    117  N         -0.1300    5.7390   30.5210 N.am  106  MET106     -0.1963
    118  CA        -1.2700    5.7840   31.4310 C.3   106  MET106      0.1736
    119  C         -2.5640    5.9150   30.6390 C.2   106  MET106      0.2617
    120  O         -2.6040    6.5940   29.6150 O.2   106  MET106     -0.2715
    121  CB        -1.1190    6.9450   32.4020 C.3   106  MET106      0.0427
    122  CG         0.2280    6.9880   33.1130 C.3   106  MET106      0.0599
    123  SD         0.5460    5.5990   34.2330 S.3   106  MET106     -0.1393
    124  CE        -0.6290    5.9090   35.5600 C.3   106  MET106      0.0692
    125  N         -3.6220    5.2720   31.1230 N.am  107  GLY107     -0.1940
    126  CA        -4.8630    5.1220   30.3560 C.3   107  GLY107      0.2014
    127  C         -5.7050    6.3740   30.1970 C.2   107  GLY107      0.2639
    128  O         -6.2480    6.6170   29.1230 O.2   107  GLY107     -0.2714
    129  N         -5.8210    7.1620   31.2650 N.am  108  ALA108     -0.1963
    130  CA        -6.6580    8.3680   31.2750 C.3   108  ALA108      0.1728
    131  C         -6.2480    9.3250   32.3940 C.2   108  ALA108      0.2616
    132  O         -5.4830    8.9510   33.2800 O.2   108  ALA108     -0.2715
    133  CB        -8.1270    7.9880   31.4290 C.3   108  ALA108      0.0334
    134  N         -6.7480   10.5580   32.3550 N.am  109  ASP109     -0.1971
    135  CA        -6.6260   11.4410   33.5080 C.3   109  ASP109      0.1709
    136  C         -7.7780   11.1900   34.4700 C.2   109  ASP109      0.2293
    137  O         -8.6500   10.3670   34.1880 O.2   109  ASP109     -0.2864
    138  CB        -6.5240   12.9220   33.1100 C.3   109  ASP109      0.1436
    139  CG        -7.7200   13.4170   32.3080 C.2   109  ASP109      0.3671
    140  OD1       -8.8220   12.8400   32.4270 O.co2 109  ASP109     -0.2456
    141  OD2       -7.5530   14.4060   31.5630 O.co2 109  ASP109     -0.2456
    142  N        -11.3740   12.0620   33.0800 N.3   112  ASN112     -0.1240
    143  CA       -11.9880   10.9970   32.2990 C.3   112  ASN112      0.1653
    144  C        -12.4770    9.8300   33.1560 C.2   112  ASN112      0.2266
    145  O        -13.0610    8.8730   32.6410 O.2   112  ASN112     -0.2867
    146  CB       -11.0190   10.4900   31.2300 C.3   112  ASN112      0.1155
    147  CG       -11.6740    9.5140   30.2710 C.2   112  ASN112      0.2627
    148  OD1      -11.4870    8.2970   30.3750 O.2   112  ASN112     -0.2716
    149  ND2      -12.4670   10.0400   29.3450 N.am  112  ASN112     -0.0877
    150  N         -6.8390   16.9350   35.7090 N.3   151  SER151     -0.1217
    151  CA        -6.1640   16.7250   34.4140 C.3   151  SER151      0.1889
    152  C         -4.6390   16.5710   34.5420 C.2   151  SER151      0.2288
    153  O         -3.9580   16.2160   33.5810 O.2   151  SER151     -0.2866
    154  CB        -6.5470   17.7950   33.3790 C.3   151  SER151      0.2089
    155  OG        -6.1300   19.0860   33.7770 O.3   151  SER151     -0.2183
    156  N         -3.5830   14.4530   36.8300 N.3   153  LEU153     -0.1231
    157  CA        -3.5130   13.1510   37.4840 C.3   153  LEU153      0.1693
    158  C         -3.7820   12.0270   36.5080 C.2   153  LEU153      0.2591
    159  O         -4.8720   11.9270   35.9430 O.2   153  LEU153     -0.2718
    160  CB        -4.4750   13.0850   38.6730 C.3   153  LEU153      0.0284
    161  CG        -4.2100   14.1230   39.7690 C.3   153  LEU153      0.0019
    162  CD1       -5.3480   14.1510   40.7650 C.3   153  LEU153      0.0001
    163  CD2       -2.8880   13.8650   40.4600 C.3   153  LEU153      0.0001
    164  N         -2.7700   11.1910   36.3040 N.am  154  ALA154     -0.1980
    165  CA        -2.8670   10.0760   35.3710 C.3   154  ALA154      0.1597
    166  C         -3.2890    8.8240   36.1170 C.2   154  ALA154      0.2287
    167  O         -2.7300    8.5020   37.1700 O.2   154  ALA154     -0.2864
    168  CB        -1.5380    9.8580   34.6750 C.3   154  ALA154      0.0319
    169  N          1.5280   14.4970   37.7920 N.3   164  LEU164     -0.1231
    170  CA         2.1890   14.9930   36.5910 C.3   164  LEU164      0.1693
    171  C          2.2010   16.5270   36.5300 C.2   164  LEU164      0.2592
    172  O          1.4840   17.1870   37.2800 O.2   164  LEU164     -0.2718
    173  CB         1.4780   14.3880   35.3700 C.3   164  LEU164      0.0284
    174  CG         1.6950   14.7940   33.9130 C.3   164  LEU164      0.0019
    175  CD1        1.7640   13.5650   33.0370 C.3   164  LEU164      0.0001
    176  CD2        0.5760   15.6880   33.4360 C.3   164  LEU164      0.0001
    177  N          3.0590   17.0680   35.6620 N.am  165  ASP165     -0.1974
    178  CA         2.9930   18.4590   35.1450 C.3   165  ASP165      0.1709
    179  C          2.9960   19.5910   36.1850 C.2   165  ASP165      0.2293
    180  O          1.9790   20.2590   36.3990 O.2   165  ASP165     -0.2864
    181  CB         1.8000   18.6240   34.1840 C.3   165  ASP165      0.1436
    182  CG         2.2110   19.1470   32.8100 C.2   165  ASP165      0.3671
    183  OD1        3.2390   18.6780   32.2560 O.co2 165  ASP165     -0.2456
    184  OD2        1.4860   20.0170   32.2730 O.co2 165  ASP165     -0.2456
@<TRIPOS>BOND
     1     1     2    1
     2     2     3    1
     3     2     5    1
     4    19    18    2
     5     8     3    1
     6     8     9    2
     7    10    11    2
     8    10     9    1
     9     3     4    2
    10    18    17    1
    11    16    17    1
    12    15    14    2
    13     5     7    1
    14     5     6    1
    15    12    13    1
    16    17    20    1
    17    33    32    1
    18    31    30    2
    19    32    34    1
    20    32    29    1
    21    14    13    1
    22    37    38    2
    23    37    36    1
    24    20    21    1
    25    20    22    1
    26    30    29    1
    27    30    35   am
    28    36    35    1
    29    36    39    1
    30    29    28    1
    31    28    25   am
    32    40    39    1
    33    40    41    1
    34    77    78    1
    35    91    89    1
    36    25    24    1
    37    25    26    2
    38   116   114    1
    39    42    41    1
    40    42    43    1
    41    80    79    2
    42    24    23    1
    43    24    27    1
    44   115   114    1
    45    79    78    1
    46    79    85   am
    47    78    81    1
    48   114   113    1
    49    90    89    1
    50    89    86    1
    51    85    86    1
    52    86    87    1
    53    81    82    1
    54   113   110    1
    55    82    83    1
    56    82    84    1
    57   128   127    2
    58    87    92   am
    59    87    88    2
    60   149   147   am
    61   110   109    1
    62   110   111    1
    63    95    94    2
    64    92    93    1
    65   120   119    2
    66    52    50   ar
    67    51    50   ar
    68   109   101   am
    69   127   126    1
    70   127   129   am
    71   147   148    2
    72   147   146    1
    73   111   117   am
    74   111   112    2
    75   126   125    1
    76    50    49    1
    77   117   118    1
    78    94    93    1
    79    94    99   am
    80   119   125   am
    81   119   118    1
    82    93    96    1
    83    98    96    1
    84   101   102    2
    85   101   100    1
    86   146   143    1
    87   129   130    1
    88   130   133    1
    89   130   131    1
    90    96    97    1
    91   118   121    1
    92    49    48    1
    93    75    74    1
    94   141   139   ar
    95   100    99    1
    96   100   103    1
    97    48    45    1
    98    74    76    1
    99    74    73    1
   100   183   182   ar
   101   184   182   ar
   102   143   142    1
   103   143   144    1
   104   139   140   ar
   105   139   138    1
   106   134   131   am
   107   134   135    1
   108   131   132    2
   109   121   122    1
   110    59    58    1
   111   145   144    2
   112   182   181    1
   113   103   104    1
   114   175   174    1
   115   138   135    1
   116   122   123    1
   117    45    46    1
   118    45    44    1
   119   154   155    1
   120   154   151    1
   121    73    70    1
   122    71    70    1
   123    71    72    2
   124   176   174    1
   125    46    47    2
   126   135   136    1
   127    70    69    1
   128   153   152    2
   129   105   104   ar
   130   105   107   ar
   131   104   106   ar
   132   174   173    1
   133    58    57    1
   134    58    60    1
   135   181   178    1
   136   137   136    2
   137   123   124    1
   138   151   152    1
   139   151   150    1
   140    67    65    1
   141    57    54    1
   142   107   108   ar
   143   168   165    1
   144   106   108   ar
   145    68    66    1
   146   178   177    1
   147   178   179    1
   148    66    65    1
   149   173   170    1
   150   165   166    1
   151   165   164    1
   152    65    62    1
   153   177   171   am
   154    54    55    1
   155    54    53    1
   156   159   158    2
   157   166   167    2
   158   179   180    2
   159    55    56    2
   160   164   158   am
   161   158   157    1
   162   171   170    1
   163   171   172    2
   164   170   169    1
   165    63    62    1
   166    63    64    2
   167    62    61    1
   168   156   157    1
   169   157   160    1
   170   160   161    1
   171   161   163    1
   172   161   162    1
