@<TRIPOS>MOLECULE
tmp/3habB07.pdb
 191 186 0 0 0
SMALL
GASTEIGER

@<TRIPOS>ATOM
      1  N         -1.0870   58.1650   26.9590 N.3    87  ARG87      -0.1245
      2  CA        -2.2680   57.5740   27.5940 C.3    87  ARG87       0.1563
      3  C         -3.3310   57.1500   26.5730 C.2    87  ARG87       0.2260
      4  O         -3.9460   56.0840   26.7260 O.2    87  ARG87      -0.2867
      5  CB        -2.8800   58.5120   28.6220 C.3    87  ARG87       0.0307
      6  CG        -3.9990   57.8660   29.4280 C.3    87  ARG87       0.0489
      7  CD        -4.7730   58.9150   30.2460 C.3    87  ARG87       0.2205
      8  NE        -3.9490   59.6080   31.2450 N.pl3  87  ARG87      -0.0865
      9  CZ        -3.7820   59.1990   32.5060 C.cat  87  ARG87       0.5346
     10  NH1       -4.3640   58.0810   32.9440 N.pl3  87  ARG87       0.1354
     11  NH2       -3.0470   59.9150   33.3400 N.pl3  87  ARG87       0.1354
     12  N         -3.1360   64.7130   27.0230 N.3   167  GLU167     -0.1231
     13  CA        -3.3290   64.3990   28.4460 C.3   167  GLU167      0.1699
     14  C         -4.3360   65.3020   29.1820 C.2   167  GLU167      0.2592
     15  O         -5.1390   64.8070   29.9790 O.2   167  GLU167     -0.2718
     16  CB        -1.9710   64.3980   29.1660 C.3   167  GLU167      0.0402
     17  CG        -2.0170   64.2050   30.6810 C.3   167  GLU167      0.1161
     18  CD        -2.3950   62.7950   31.1190 C.2   167  GLU167      0.3649
     19  OE1       -2.4780   61.8880   30.2590 O.co2 167  GLU167     -0.2457
     20  OE2       -2.6160   62.5970   32.3450 O.co2 167  GLU167     -0.2457
     21  N         -4.2790   66.6140   28.9410 N.am  168  GLU168     -0.1979
     22  CA        -4.9900   67.5750   29.7880 C.3   168  GLU168      0.1602
     23  C         -6.2180   68.2680   29.1820 C.2   168  GLU168      0.2287
     24  O         -7.0370   68.8220   29.9120 O.2   168  GLU168     -0.2864
     25  CB        -4.0270   68.6710   30.2770 C.3   168  GLU168      0.0415
     26  CG        -2.7600   68.1590   30.9640 C.3   168  GLU168      0.1163
     27  CD        -3.0250   67.3880   32.2450 C.2   168  GLU168      0.3649
     28  OE1       -4.2060   67.2380   32.6510 O.co2 168  GLU168     -0.2457
     29  OE2       -2.0380   66.9330   32.8650 O.co2 168  GLU168     -0.2457
     30  N         -8.1900   64.5900   26.2010 N.3   171  SER171     -0.1217
     31  CA        -8.2070   63.1700   26.6100 C.3   171  SER171      0.1889
     32  C         -8.2860   62.2270   25.3960 C.2   171  SER171      0.2288
     33  O         -8.9170   61.1590   25.4320 O.2   171  SER171     -0.2866
     34  CB        -9.3310   62.8850   27.6060 C.3   171  SER171      0.2089
     35  OG        -9.0540   63.4950   28.8500 O.3   171  SER171     -0.2183
     36  N        -15.0190   70.9280   35.6240 N.3   318  ARG318     -0.1231
     37  CA       -14.3970   69.9880   36.5560 C.3   318  ARG318      0.1694
     38  C        -12.8960   69.8630   36.2440 C.2   318  ARG318      0.2592
     39  O        -12.0560   70.1630   37.0900 O.2   318  ARG318     -0.2718
     40  CB       -15.1260   68.6370   36.5280 C.3   318  ARG318      0.0321
     41  CG       -16.5010   68.7230   37.2040 C.3   318  ARG318      0.0489
     42  CD       -17.1520   67.3640   37.3260 C.3   318  ARG318      0.2205
     43  NE       -18.3880   67.4120   38.1260 N.pl3 318  ARG318     -0.0865
     44  CZ       -19.6180   67.2400   37.6430 C.cat 318  ARG318      0.5346
     45  NH1      -19.8120   67.0080   36.3570 N.pl3 318  ARG318      0.1354
     46  NH2      -20.6570   67.2790   38.4560 N.pl3 318  ARG318      0.1354
     47  N        -12.5840   69.4790   35.0120 N.am  319  PHE319     -0.1962
     48  CA       -11.2140   69.4270   34.5130 C.3   319  PHE319      0.1771
     49  C        -11.0820   70.2850   33.2730 C.2   319  PHE319      0.2619
     50  O         -9.9620   70.5620   32.8350 O.2   319  PHE319     -0.2715
     51  CB       -10.7640   67.9830   34.2200 C.3   319  PHE319      0.0574
     52  CG       -10.6040   67.1360   35.4610 C.ar  319  PHE319     -0.0200
     53  CD1       -9.3650   67.0080   36.0800 C.ar  319  PHE319     -0.0042
     54  CD2      -11.6940   66.4830   36.0200 C.ar  319  PHE319     -0.0042
     55  CE1       -9.2080   66.2240   37.2390 C.ar  319  PHE319     -0.0003
     56  CE2      -11.5510   65.6960   37.1880 C.ar  319  PHE319     -0.0003
     57  CZ       -10.2960   65.5730   37.7970 C.ar  319  PHE319     -0.0000
     58  N        -12.2250   70.6880   32.7060 N.am  320  ARG320     -0.1977
     59  CA       -12.3030   71.5900   31.5430 C.3   320  ARG320      0.1597
     60  C        -13.7460   72.0070   31.3470 C.2   320  ARG320      0.2287
     61  O        -14.6380   71.3470   31.8840 O.2   320  ARG320     -0.2864
     62  CB       -11.7770   70.8940   30.2840 C.3   320  ARG320      0.0334
     63  CG       -12.5120   69.6110   29.9450 C.3   320  ARG320      0.0492
     64  CD       -11.5420   68.4980   29.6400 C.3   320  ARG320      0.2205
     65  NE       -12.2480   67.2680   29.3140 N.pl3 320  ARG320     -0.0865
     66  CZ       -11.6570   66.1020   29.0720 C.cat 320  ARG320      0.5346
     67  NH1      -10.3320   65.9900   29.1390 N.pl3 320  ARG320      0.1354
     68  NH2      -12.4040   65.0480   28.7680 N.pl3 320  ARG320      0.1354
     69  N         -5.7370   59.5010   47.0850 N.3   509  TYR509     -0.1241
     70  CA        -5.4970   60.2180   45.8320 C.3   509  TYR509      0.1605
     71  C         -5.5950   61.7240   46.1300 C.2   509  TYR509      0.2264
     72  O         -4.5730   62.4150   46.1890 O.2   509  TYR509     -0.2867
     73  CB        -6.4380   59.7670   44.7000 C.3   509  TYR509      0.0534
     74  CG        -6.0170   60.3790   43.3850 C.ar  509  TYR509     -0.0201
     75  CD1       -4.8650   59.9280   42.7090 C.ar  509  TYR509     -0.0009
     76  CD2       -6.7040   61.4580   42.8630 C.ar  509  TYR509     -0.0009
     77  CE1       -4.4600   60.5250   41.5100 C.ar  509  TYR509      0.0417
     78  CE2       -6.3120   62.0610   41.6780 C.ar  509  TYR509      0.0417
     79  CZ        -5.2000   61.5940   40.9990 C.ar  509  TYR509      0.1957
     80  OH        -4.8350   62.2370   39.8210 O.3   509  TYR509     -0.2866
     81  N        -17.8200   66.5080   42.8370 N.3   547  TYR547     -0.1241
     82  CA       -19.2180   66.0130   42.7990 C.3   547  TYR547      0.1605
     83  C        -20.0510   66.4250   44.0140 C.2   547  TYR547      0.2264
     84  O        -21.1270   65.8660   44.2670 O.2   547  TYR547     -0.2867
     85  CB       -19.2410   64.4730   42.5520 C.3   547  TYR547      0.0534
     86  CG       -18.2560   64.0810   41.4720 C.ar  547  TYR547     -0.0201
     87  CD1      -18.4620   64.4580   40.1510 C.ar  547  TYR547     -0.0009
     88  CD2      -17.0750   63.3870   41.7820 C.ar  547  TYR547     -0.0009
     89  CE1      -17.5410   64.1300   39.1410 C.ar  547  TYR547      0.0417
     90  CE2      -16.1520   63.0620   40.7880 C.ar  547  TYR547      0.0417
     91  CZ       -16.3950   63.4360   39.4670 C.ar  547  TYR547      0.1957
     92  OH       -15.4750   63.1270   38.4760 O.3   547  TYR547     -0.2866
     93  N          0.6980   58.8120   42.0320 N.3   592  SER592     -0.1202
     94  CA         0.4740   59.9770   41.1810 C.3   592  SER592      0.2020
     95  C          0.1910   61.1930   42.0750 C.2   592  SER592      0.2618
     96  O          1.0180   61.4950   42.9350 O.2   592  SER592     -0.2717
     97  CB        -0.6380   59.6830   40.1520 C.3   592  SER592      0.2103
     98  OG        -0.7610   60.7390   39.2270 O.3   592  SER592     -0.2182
     99  N         -0.9500   61.8770   41.9150 N.am  593  TYR593     -0.1975
    100  CA        -1.3290   62.9260   42.8900 C.3   593  TYR593      0.1639
    101  C         -1.3910   62.3370   44.3040 C.2   593  TYR593      0.2290
    102  O         -1.0670   63.0210   45.2880 O.2   593  TYR593     -0.2864
    103  CB        -2.6760   63.5990   42.5510 C.3   593  TYR593      0.0560
    104  CG        -2.8800   64.9660   43.2190 C.ar  593  TYR593     -0.0198
    105  CD1       -3.2130   65.0700   44.5780 C.ar  593  TYR593     -0.0009
    106  CD2       -2.7630   66.1460   42.4830 C.ar  593  TYR593     -0.0009
    107  CE1       -3.4030   66.3140   45.1880 C.ar  593  TYR593      0.0417
    108  CE2       -2.9570   67.4010   43.0830 C.ar  593  TYR593      0.0417
    109  CZ        -3.2680   67.4740   44.4330 C.ar  593  TYR593      0.1957
    110  OH        -3.4670   68.7070   45.0270 O.3   593  TYR593     -0.2866
    111  N          4.2090   63.4830   42.2440 N.3   618  VAL618     -0.1245
    112  CA         4.6310   64.8710   42.0620 C.3   618  VAL618      0.1561
    113  C          5.3810   65.2990   43.3320 C.2   618  VAL618      0.2260
    114  O          5.0070   64.9180   44.4570 O.2   618  VAL618     -0.2867
    115  CB         3.4270   65.8100   41.7450 C.3   618  VAL618      0.0252
    116  CG1        3.8180   67.2930   41.7990 C.3   618  VAL618      0.0019
    117  CG2        2.8340   65.4550   40.3800 C.3   618  VAL618      0.0019
    118  N          5.4630   71.5610   42.0790 N.3   621  TRP621     -0.1241
    119  CA         4.4900   71.9030   41.0160 C.3   621  TRP621      0.1605
    120  C          5.1070   72.4610   39.7360 C.2   621  TRP621      0.2264
    121  O          4.5880   72.2250   38.6460 O.2   621  TRP621     -0.2867
    122  CB         3.2790   72.7000   41.5500 C.3   621  TRP621      0.0550
    123  CG         2.3890   71.7650   42.3460 C.ar  621  TRP621      0.0003
    124  CD1        2.1860   71.7740   43.7040 C.ar  621  TRP621      0.0946
    125  CD2        1.6570   70.6280   41.8390 C.ar  621  TRP621      0.0152
    126  NE1        1.3600   70.7390   44.0670 N.ar  621  TRP621     -0.2442
    127  CE2        1.0250   70.0130   42.9520 C.ar  621  TRP621      0.0810
    128  CE3        1.4600   70.0820   40.5510 C.ar  621  TRP621      0.0012
    129  CZ2        0.2070   68.8730   42.8230 C.ar  621  TRP621      0.0191
    130  CZ3        0.6420   68.9370   40.4160 C.ar  621  TRP621      0.0001
    131  CH2        0.0240   68.3550   41.5490 C.ar  621  TRP621      0.0015
    132  N          5.5580   69.8080   36.9930 N.3   624  TYR624     -0.1241
    133  CA         4.4110   69.2040   36.3280 C.3   624  TYR624      0.1605
    134  C          3.9230   70.0730   35.1690 C.2   624  TYR624      0.2264
    135  O          4.3360   71.2320   35.0500 O.2   624  TYR624     -0.2867
    136  CB         3.2870   68.8170   37.3260 C.3   624  TYR624      0.0534
    137  CG         2.3690   67.7850   36.7220 C.ar  624  TYR624     -0.0201
    138  CD1        2.8790   66.5550   36.2850 C.ar  624  TYR624     -0.0009
    139  CD2        1.0050   68.0410   36.5370 C.ar  624  TYR624     -0.0009
    140  CE1        2.0770   65.6210   35.7010 C.ar  624  TYR624      0.0417
    141  CE2        0.1830   67.1010   35.9350 C.ar  624  TYR624      0.0417
    142  CZ         0.7240   65.9030   35.5250 C.ar  624  TYR624      0.1957
    143  OH        -0.0560   64.9650   34.9120 O.3   624  TYR624     -0.2866
    144  N         -2.6120   71.3810   33.4470 N.3   628  TYR628     -0.1241
    145  CA        -3.1550   70.8610   34.7010 C.3   628  TYR628      0.1605
    146  C         -2.7510   71.7750   35.8700 C.2   628  TYR628      0.2264
    147  O         -3.6100   72.2780   36.6080 O.2   628  TYR628     -0.2867
    148  CB        -2.6820   69.4210   34.9500 C.3   628  TYR628      0.0534
    149  CG        -3.1810   68.7950   36.2520 C.ar  628  TYR628     -0.0201
    150  CD1       -2.4960   69.0010   37.4590 C.ar  628  TYR628     -0.0009
    151  CD2       -4.3280   67.9870   36.2700 C.ar  628  TYR628     -0.0009
    152  CE1       -2.9430   68.4130   38.6570 C.ar  628  TYR628      0.0417
    153  CE2       -4.7950   67.4060   37.4660 C.ar  628  TYR628      0.0417
    154  CZ        -4.0900   67.6240   38.6490 C.ar  628  TYR628      0.1957
    155  OH        -4.5180   67.0330   39.8200 O.3   628  TYR628     -0.2866
    156  N         -4.1250   75.4100   36.2050 N.3   631  ARG631     -0.1245
    157  CA        -5.5740   75.4530   36.3720 C.3   631  ARG631      0.1563
    158  C         -5.8960   75.6860   37.8530 C.2   631  ARG631      0.2260
    159  O         -6.8250   76.4300   38.1930 O.2   631  ARG631     -0.2867
    160  CB        -6.1840   74.1370   35.8730 C.3   631  ARG631      0.0307
    161  CG        -7.7090   74.0850   35.8980 C.3   631  ARG631      0.0489
    162  CD        -8.1720   72.7060   35.5430 C.3   631  ARG631      0.2205
    163  NE        -7.7310   72.3090   34.2010 N.pl3 631  ARG631     -0.0865
    164  CZ        -7.3230   71.0880   33.8780 C.cat 631  ARG631      0.5346
    165  NH1       -7.2940   70.1350   34.8050 N.pl3 631  ARG631      0.1354
    166  NH2       -6.9760   70.8130   32.6190 N.pl3 631  ARG631      0.1354
    167  N          4.9340   61.4680   32.0970 N.3   672  ASN672     -0.1225
    168  CA         3.8740   62.2780   32.6750 C.3   672  ASN672      0.1785
    169  C          4.3520   63.0250   33.9450 C.2   672  ASN672      0.2597
    170  O          4.4580   64.2610   33.9640 O.2   672  ASN672     -0.2718
    171  CB         2.6690   61.3340   32.9480 C.3   672  ASN672      0.1169
    172  CG         1.3900   62.0670   33.2860 C.2   672  ASN672      0.2627
    173  OD1        1.3930   63.1700   33.8670 O.2   672  ASN672     -0.2716
    174  ND2        0.2710   61.4530   32.9250 N.am  672  ASN672     -0.0877
    175  N          4.6000   62.2600   35.0040 N.am  673  VAL673     -0.1980
    176  CA         5.2970   62.7300   36.1970 C.3   673  VAL673      0.1595
    177  C          6.7370   62.2340   36.0250 C.2   673  VAL673      0.2287
    178  O          7.0550   61.0520   36.2170 O.2   673  VAL673     -0.2864
    179  CB         4.6500   62.1980   37.5090 C.3   673  VAL673      0.0276
    180  CG1        5.4290   62.6860   38.7580 C.3   673  VAL673      0.0022
    181  CG2        3.1720   62.6430   37.6080 C.3   673  VAL673      0.0022
    182  N          3.9990   56.0620   33.7350 N.3   702  HIS702     -0.1241
    183  CA         3.1850   56.4670   34.8650 C.3   702  HIS702      0.1621
    184  C          2.2410   55.3730   35.3860 C.2   702  HIS702      0.2264
    185  O          1.8320   55.4060   36.5600 O.2   702  HIS702     -0.2867
    186  CB         2.4200   57.7430   34.5420 C.3   702  HIS702      0.0745
    187  CG         1.9900   58.4990   35.7560 C.ar  702  HIS702      0.0817
    188  ND1        2.8790   58.9110   36.7260 N.ar  702  HIS702     -0.2268
    189  CD2        0.7650   58.8930   36.1750 C.ar  702  HIS702      0.1154
    190  CE1        2.2200   59.5300   37.6890 C.ar  702  HIS702      0.1986
    191  NE2        0.9370   59.5390   37.3750 N.ar  702  HIS702     -0.2212
@<TRIPOS>BOND
     1    32    33    2
     2    32    31    1
     3    30    31    1
     4     3     4    2
     5     3     2    1
     6    31    34    1
     7     1     2    1
     8    12    13    1
     9     2     5    1
    10    34    35    1
    11    13    16    1
    12    13    14    1
    13     5     6    1
    14    68    66    1
    15    21    14   am
    16    21    22    1
    17    66    67    1
    18    66    65    2
    19    16    17    1
    20    23    22    1
    21    23    24    2
    22    14    15    2
    23    65    64    1
    24     6     7    1
    25    64    63    1
    26    22    25    1
    27    63    62    1
    28     7     8    1
    29    19    18   ar
    30    25    26    1
    31    62    59    1
    32    17    18    1
    33    26    27    1
    34    18    20   ar
    35     8     9    2
    36    60    59    1
    37    60    61    2
    38    59    58    1
    39   167   168    1
    40    27    28   ar
    41    27    29   ar
    42     9    10    1
    43     9    11    1
    44   166   164    1
    45   168   171    1
    46   168   169    1
    47    58    49   am
    48    50    49    2
    49   174   172   am
    50   171   172    1
    51    49    48    1
    52   172   173    2
    53   144   145    1
    54   182   183    1
    55   164   163    2
    56   164   165    1
    57   169   170    2
    58   169   175   am
    59   163   162    1
    60    51    48    1
    61    51    52    1
    62    48    47    1
    63   186   183    1
    64   186   187    1
    65   145   148    1
    66   145   146    1
    67   183   184    1
    68   143   142    1
    69   148   149    1
    70   175   176    1
    71    47    38   am
    72   135   134    2
    73   134   133    1
    74   184   185    2
    75    52    54   ar
    76    52    53   ar
    77   142   140   ar
    78   142   141   ar
    79   162   161    1
    80    36    37    1
    81   140   138   ar
    82   187   189   ar
    83   187   188   ar
    84   146   147    2
    85   160   161    1
    86   160   157    1
    87   141   139   ar
    88    54    56   ar
    89   177   176    1
    90   177   178    2
    91    53    55   ar
    92   189   191   ar
    93   176   179    1
    94   156   157    1
    95    38    37    1
    96    38    39    2
    97   149   151   ar
    98   149   150   ar
    99   151   153   ar
   100   138   137   ar
   101   133   132    1
   102   133   136    1
   103    45    44    1
   104   157   158    1
   105    40    37    1
   106    40    41    1
   107   139   137   ar
   108   137   136    1
   109   188   190   ar
   110    56    57   ar
   111    41    42    1
   112    55    57   ar
   113    42    43    1
   114   191   190   ar
   115   150   152   ar
   116   153   154   ar
   117   179   181    1
   118   179   180    1
   119    44    43    2
   120    44    46    1
   121   158   159    2
   122    92    91    1
   123   121   120    2
   124   154   152   ar
   125   154   155    1
   126    89    91   ar
   127    89    87   ar
   128    98    97    1
   129    91    90   ar
   130   120   119    1
   131    80    79    1
   132    87    86   ar
   133    97    94    1
   134   117   115    1
   135   130   128   ar
   136   130   131   ar
   137   128   125   ar
   138    90    88   ar
   139    79    77   ar
   140    79    78   ar
   141   119   122    1
   142   119   118    1
   143    94    93    1
   144    94    95    1
   145    86    88   ar
   146    86    85    1
   147    77    75   ar
   148   131   129   ar
   149   122   123    1
   150    78    76   ar
   151   115   116    1
   152   115   112    1
   153   125   123   ar
   154   125   127   ar
   155    99    95   am
   156    99   100    1
   157   112   111    1
   158   112   113    1
   159    95    96    2
   160   123   124   ar
   161   106   108   ar
   162   106   104   ar
   163   103   100    1
   164   103   104    1
   165    85    82    1
   166    75    74   ar
   167    82    81    1
   168    82    83    1
   169   129   127   ar
   170    76    74   ar
   171   100   101    1
   172   127   126   ar
   173   108   109   ar
   174   104   105   ar
   175   113   114    2
   176    74    73    1
   177   124   126   ar
   178    83    84    2
   179   101   102    2
   180   109   110    1
   181   109   107   ar
   182   105   107   ar
   183    73    70    1
   184    70    71    1
   185    70    69    1
   186    71    72    2
