@<TRIPOS>MOLECULE
tmp/3hacA06.pdb
 164 159 0 0 0
SMALL
GASTEIGER

@<TRIPOS>ATOM
      1  N         37.4440   61.2610   36.3090 N.3    87  ARG87      -0.1245
      2  CA        38.2970   60.7880   37.4170 C.3    87  ARG87       0.1563
      3  C         39.5040   61.7010   37.6620 C.2    87  ARG87       0.2260
      4  O         39.8490   61.9770   38.8170 O.2    87  ARG87      -0.2867
      5  CB        38.7830   59.3540   37.2020 C.3    87  ARG87       0.0307
      6  CG        39.4490   58.7360   38.4380 C.3    87  ARG87       0.0489
      7  CD        40.0980   57.4030   38.1180 C.3    87  ARG87       0.2205
      8  NE        39.1420   56.3940   37.6620 N.pl3  87  ARG87      -0.0865
      9  CZ        38.5240   55.5270   38.4550 C.cat  87  ARG87       0.5346
     10  NH1       38.7330   55.5600   39.7740 N.pl3  87  ARG87       0.1354
     11  NH2       37.6770   54.6330   37.9260 N.pl3  87  ARG87       0.1354
     12  N         40.5540   57.7610   31.2540 N.3   167  GLU167     -0.1231
     13  CA        40.2220   56.6930   32.1950 C.3   167  GLU167      0.1699
     14  C         41.1290   55.4540   32.0480 C.2   167  GLU167      0.2592
     15  O         41.5800   54.8850   33.0590 O.2   167  GLU167     -0.2718
     16  CB        38.7280   56.3070   32.0720 C.3   167  GLU167      0.0402
     17  CG        38.2940   55.0870   32.9280 C.3   167  GLU167      0.1161
     18  CD        38.2860   55.3390   34.4300 C.2   167  GLU167      0.3649
     19  OE1       38.4790   56.4980   34.8660 O.co2 167  GLU167     -0.2457
     20  OE2       38.0720   54.3540   35.1880 O.co2 167  GLU167     -0.2457
     21  N         41.4140   55.0820   30.8050 N.am  168  GLU168     -0.1966
     22  CA        41.9440   53.7590   30.4950 C.3   168  GLU168      0.1733
     23  C         43.3940   53.7040   30.0210 C.2   168  GLU168      0.2616
     24  O         44.0040   52.6470   30.0670 O.2   168  GLU168     -0.2715
     25  CB        41.0750   53.0930   29.4230 C.3   168  GLU168      0.0429
     26  CG        39.6020   52.9740   29.7910 C.3   168  GLU168      0.1163
     27  CD        39.3530   52.1130   31.0430 C.2   168  GLU168      0.3649
     28  OE1       40.3100   51.5340   31.6080 O.co2 168  GLU168     -0.2457
     29  OE2       38.1820   52.0180   31.4640 O.co2 168  GLU168     -0.2457
     30  N         43.9350   54.8080   29.5230 N.am  169  VAL169     -0.1977
     31  CA        45.2770   54.7470   28.9170 C.3   169  VAL169      0.1596
     32  C         46.2780   55.5240   29.7740 C.2   169  VAL169      0.2287
     33  O         47.1870   54.9260   30.3730 O.2   169  VAL169     -0.2864
     34  CB        45.2910   55.2180   27.4440 C.3   169  VAL169      0.0276
     35  CG1       46.7210   55.0800   26.8170 C.3   169  VAL169      0.0022
     36  CG2       44.2600   54.4370   26.6230 C.3   169  VAL169      0.0022
     37  N         45.5310   57.6130   32.5130 N.3   171  SER171     -0.1217
     38  CA        45.1440   57.9450   33.8950 C.3   171  SER171      0.1889
     39  C         45.4730   59.4030   34.2140 C.2   171  SER171      0.2288
     40  O         45.9940   59.7360   35.2860 O.2   171  SER171     -0.2866
     41  CB        45.8090   56.9910   34.8960 C.3   171  SER171      0.2089
     42  OG        45.4160   55.6600   34.6140 O.3   171  SER171     -0.2183
     43  N         48.1270   46.8710   32.9420 N.3   319  PHE319     -0.1241
     44  CA        46.9670   47.5860   32.3870 C.3   319  PHE319      0.1605
     45  C         47.3260   48.2760   31.0490 C.2   319  PHE319      0.2264
     46  O         46.4370   48.7220   30.3180 O.2   319  PHE319     -0.2867
     47  CB        46.4050   48.5950   33.4050 C.3   319  PHE319      0.0534
     48  CG        45.8230   47.9490   34.6580 C.ar  319  PHE319     -0.0203
     49  CD1       44.4690   47.6580   34.7380 C.ar  319  PHE319     -0.0042
     50  CD2       46.6360   47.6460   35.7480 C.ar  319  PHE319     -0.0042
     51  CE1       43.9200   47.0660   35.8880 C.ar  319  PHE319     -0.0003
     52  CE2       46.1070   47.0430   36.9050 C.ar  319  PHE319     -0.0003
     53  CZ        44.7400   46.7490   36.9620 C.ar  319  PHE319     -0.0000
     54  N         36.6230   42.4200   44.7850 N.3   509  TYR509     -0.1241
     55  CA        36.8530   43.1990   43.5750 C.3   509  TYR509      0.1605
     56  C         37.0780   42.2370   42.4100 C.2   509  TYR509      0.2264
     57  O         36.1850   42.0520   41.5910 O.2   509  TYR509     -0.2867
     58  CB        38.0170   44.1820   43.7200 C.3   509  TYR509      0.0534
     59  CG        38.0520   45.1200   42.5190 C.ar  509  TYR509     -0.0201
     60  CD1       37.0820   46.1380   42.3680 C.ar  509  TYR509     -0.0009
     61  CD2       38.9940   44.9440   41.5010 C.ar  509  TYR509     -0.0009
     62  CE1       37.0970   46.9890   41.2370 C.ar  509  TYR509      0.0417
     63  CE2       39.0140   45.7870   40.3690 C.ar  509  TYR509      0.0417
     64  CZ        38.0720   46.8060   40.2580 C.ar  509  TYR509      0.1957
     65  OH        38.0870   47.6320   39.1450 O.3   509  TYR509     -0.2866
     66  N         31.7070   48.3140   41.4920 N.3   592  SER592     -0.1202
     67  CA        32.3730   48.4230   40.2020 C.3   592  SER592      0.2020
     68  C         32.6160   47.0070   39.6140 C.2   592  SER592      0.2618
     69  O         31.6570   46.2490   39.4900 O.2   592  SER592     -0.2717
     70  CB        33.6640   49.2530   40.3830 C.3   592  SER592      0.2103
     71  OG        34.2130   49.5610   39.1350 O.3   592  SER592     -0.2182
     72  N         33.8520   46.6400   39.2420 N.am  593  TYR593     -0.1975
     73  CA        34.1260   45.2480   38.8280 C.3   593  TYR593      0.1639
     74  C         33.6580   44.2740   39.9240 C.2   593  TYR593      0.2290
     75  O         33.1230   43.1960   39.6310 O.2   593  TYR593     -0.2864
     76  CB        35.6210   44.9950   38.4880 C.3   593  TYR593      0.0560
     77  CG        35.8190   43.7420   37.6320 C.ar  593  TYR593     -0.0198
     78  CD1       35.7360   42.4590   38.1920 C.ar  593  TYR593     -0.0009
     79  CD2       36.0420   43.8420   36.2580 C.ar  593  TYR593     -0.0009
     80  CE1       35.8920   41.2980   37.4040 C.ar  593  TYR593      0.0417
     81  CE2       36.2040   42.6970   35.4570 C.ar  593  TYR593      0.0417
     82  CZ        36.1260   41.4300   36.0430 C.ar  593  TYR593      0.1957
     83  OH        36.2700   40.3020   35.2750 O.3   593  TYR593     -0.2866
     84  N         29.1080   46.5150   36.5730 N.3   618  VAL618     -0.1245
     85  CA        28.9990   46.1110   35.1740 C.3   618  VAL618      0.1561
     86  C         28.0020   44.9590   35.1200 C.2   618  VAL618      0.2260
     87  O         27.9780   44.1310   36.0350 O.2   618  VAL618     -0.2867
     88  CB        30.3650   45.6730   34.6190 C.3   618  VAL618      0.0252
     89  CG1       30.2250   44.9230   33.2610 C.3   618  VAL618      0.0019
     90  CG2       31.2610   46.8920   34.4590 C.3   618  VAL618      0.0019
     91  N         29.2500   43.1010   29.1170 N.3   621  TRP621     -0.1241
     92  CA        30.5170   43.7290   28.6870 C.3   621  TRP621      0.1605
     93  C         30.3710   44.6850   27.5000 C.2   621  TRP621      0.2264
     94  O         31.1320   45.6410   27.3770 O.2   621  TRP621     -0.2867
     95  CB        31.6620   42.7060   28.5130 C.3   621  TRP621      0.0550
     96  CG        32.1280   42.2550   29.9130 C.ar  621  TRP621      0.0003
     97  CD1       31.9420   41.0300   30.4940 C.ar  621  TRP621      0.0946
     98  CD2       32.7580   43.0800   30.9020 C.ar  621  TRP621      0.0152
     99  NE1       32.4340   41.0360   31.7860 N.ar  621  TRP621     -0.2442
    100  CE2       32.9440   42.2830   32.0590 C.ar  621  TRP621      0.0810
    101  CE3       33.2010   44.4180   30.9160 C.ar  621  TRP621      0.0012
    102  CZ2       33.5510   42.7780   33.2200 C.ar  621  TRP621      0.0191
    103  CZ3       33.8150   44.9130   32.0590 C.ar  621  TRP621      0.0001
    104  CH2       33.9800   44.0930   33.2090 C.ar  621  TRP621      0.0015
    105  N         30.3130   48.3270   28.5760 N.3   624  TYR624     -0.1241
    106  CA        31.5080   48.9920   29.1210 C.3   624  TYR624      0.1605
    107  C         32.4100   49.4930   28.0000 C.2   624  TYR624      0.2264
    108  O         32.1820   49.1750   26.8240 O.2   624  TYR624     -0.2867
    109  CB        32.2510   48.1280   30.1540 C.3   624  TYR624      0.0534
    110  CG        33.0880   48.9820   31.0830 C.ar  624  TYR624     -0.0201
    111  CD1       32.5030   50.0190   31.8200 C.ar  624  TYR624     -0.0009
    112  CD2       34.4680   48.7920   31.1830 C.ar  624  TYR624     -0.0009
    113  CE1       33.2710   50.8450   32.6370 C.ar  624  TYR624      0.0417
    114  CE2       35.2470   49.6190   31.9920 C.ar  624  TYR624      0.0417
    115  CZ        34.6440   50.6260   32.7230 C.ar  624  TYR624      0.1957
    116  OH        35.4070   51.4240   33.5420 O.3   624  TYR624     -0.2866
    117  N         39.2730   49.2190   28.0130 N.3   628  TYR628     -0.1241
    118  CA        39.3210   48.2410   29.1140 C.3   628  TYR628      0.1605
    119  C         38.7580   46.8830   28.6710 C.2   628  TYR628      0.2264
    120  O         39.4270   45.8600   28.7950 O.2   628  TYR628     -0.2867
    121  CB        38.5660   48.7450   30.3330 C.3   628  TYR628      0.0534
    122  CG        38.5980   47.8290   31.5440 C.ar  628  TYR628     -0.0201
    123  CD1       37.6300   46.8220   31.7190 C.ar  628  TYR628     -0.0009
    124  CD2       39.5720   47.9860   32.5230 C.ar  628  TYR628     -0.0009
    125  CE1       37.6430   45.9940   32.8400 C.ar  628  TYR628      0.0417
    126  CE2       39.6020   47.1560   33.6630 C.ar  628  TYR628      0.0417
    127  CZ        38.6340   46.1610   33.8090 C.ar  628  TYR628      0.1957
    128  OH        38.6510   45.3450   34.9310 O.3   628  TYR628     -0.2866
    129  N         40.5720   44.7230   25.9660 N.3   631  ARG631     -0.1245
    130  CA        41.8810   44.2600   26.4440 C.3   631  ARG631      0.1563
    131  C         41.7700   42.8150   26.9240 C.2   631  ARG631      0.2260
    132  O         42.6490   41.9730   26.6670 O.2   631  ARG631     -0.2867
    133  CB        42.3700   45.1580   27.5940 C.3   631  ARG631      0.0307
    134  CG        43.7650   44.8060   28.1030 C.3   631  ARG631      0.0489
    135  CD        44.1470   45.6990   29.2830 C.3   631  ARG631      0.2205
    136  NE        44.0920   47.1150   28.8860 N.pl3 631  ARG631     -0.0865
    137  CZ        43.6260   48.1120   29.6330 C.cat 631  ARG631      0.5346
    138  NH1       43.1400   47.8960   30.8530 N.pl3 631  ARG631      0.1354
    139  NH2       43.6520   49.3480   29.1480 N.pl3 631  ARG631      0.1354
    140  N         30.8650   56.4050   33.9680 N.3   672  ASN672     -0.1225
    141  CA        31.8560   55.3300   33.7970 C.3   672  ASN672      0.1785
    142  C         31.1500   53.9780   33.5420 C.2   672  ASN672      0.2597
    143  O         31.1450   53.4520   32.4160 O.2   672  ASN672     -0.2718
    144  CB        32.7450   55.2760   35.0620 C.3   672  ASN672      0.1169
    145  CG        34.0030   54.4240   34.8810 C.2   672  ASN672      0.2627
    146  OD1       34.0630   53.5340   34.0410 O.2   672  ASN672     -0.2716
    147  ND2       35.0290   54.7360   35.6510 N.am  672  ASN672     -0.0877
    148  N         30.5370   53.4330   34.5870 N.am  673  VAL673     -0.1980
    149  CA        29.6240   52.2910   34.4410 C.3   673  VAL673      0.1595
    150  C         28.2250   52.9020   34.3820 C.2   673  VAL673      0.2287
    151  O         27.6870   53.3560   35.3900 O.2   673  VAL673     -0.2864
    152  CB        29.7350   51.3010   35.6080 C.3   673  VAL673      0.0276
    153  CG1       28.7040   50.1420   35.4370 C.3   673  VAL673      0.0022
    154  CG2       31.1650   50.7520   35.7030 C.3   673  VAL673      0.0022
    155  N         30.3990   57.3950   39.5680 N.3   702  HIS702     -0.1241
    156  CA        30.9520   56.0820   39.9230 C.3   702  HIS702      0.1621
    157  C         31.4760   56.0150   41.3510 C.2   702  HIS702      0.2264
    158  O         31.4830   54.9510   41.9590 O.2   702  HIS702     -0.2867
    159  CB        32.0250   55.6170   38.9250 C.3   702  HIS702      0.0745
    160  CG        32.2130   54.1290   38.8980 C.ar  702  HIS702      0.0817
    161  ND1       31.1600   53.2470   38.7360 N.ar  702  HIS702     -0.2268
    162  CD2       33.3280   53.3640   39.0250 C.ar  702  HIS702      0.1154
    163  CE1       31.6200   52.0060   38.7680 C.ar  702  HIS702      0.1986
    164  NE2       32.9330   52.0490   38.9190 N.ar  702  HIS702     -0.2212
@<TRIPOS>BOND
     1   129   130    1
     2   130   131    1
     3   130   133    1
     4    36    34    1
     5   132   131    2
     6    35    34    1
     7   108   107    2
     8    94    93    2
     9    34    31    1
    10    93    92    1
    11   133   134    1
    12   107   106    1
    13   117   118    1
    14   134   135    1
    15    95    92    1
    16    95    96    1
    17   105   106    1
    18   119   120    2
    19   119   118    1
    20    92    91    1
    21   136   135    1
    22   136   137    2
    23    31    30    1
    24    31    32    1
    25   118   121    1
    26   106   109    1
    27   139   137    1
    28    25    26    1
    29    25    22    1
    30    30    23   am
    31   137   138    1
    32    32    33    2
    33    26    27    1
    34    96    97   ar
    35    96    98   ar
    36    23    24    2
    37    23    22    1
    38   109   110    1
    39    46    45    2
    40   121   122    1
    41    97    99   ar
    42    22    21    1
    43    21    14   am
    44    98   101   ar
    45    98   100   ar
    46   101   103   ar
    47    27    29   ar
    48    27    28   ar
    49    45    44    1
    50   110   112   ar
    51   110   111   ar
    52   112   114   ar
    53    12    13    1
    54   122   123   ar
    55   122   124   ar
    56   123   125   ar
    57    99   100   ar
    58   111   113   ar
    59   114   115   ar
    60    14    13    1
    61    14    15    2
    62   100   102   ar
    63   103   104   ar
    64    16    13    1
    65    16    17    1
    66    44    43    1
    67    44    47    1
    68   143   142    2
    69    37    38    1
    70   124   126   ar
    71   113   115   ar
    72   115   116    1
    73   125   127   ar
    74    17    18    1
    75   104   102   ar
    76    89    88    1
    77    47    48    1
    78   142   141    1
    79   142   148   am
    80   126   127   ar
    81   141   140    1
    82   141   144    1
    83   127   128    1
    84    38    39    1
    85    38    41    1
    86   146   145    2
    87    39    40    2
    88   150   149    1
    89   150   151    2
    90    18    19   ar
    91    18    20   ar
    92   149   148    1
    93   149   152    1
    94    90    88    1
    95    42    41    1
    96    88    85    1
    97    48    49   ar
    98    48    50   ar
    99    49    51   ar
   100   145   144    1
   101   145   147   am
   102    86    85    1
   103    86    87    2
   104    85    84    1
   105    83    82    1
   106   153   152    1
   107    81    82   ar
   108    81    79   ar
   109   152   154    1
   110    50    52   ar
   111    51    53   ar
   112    82    80   ar
   113    79    77   ar
   114     1     2    1
   115    52    53   ar
   116     5     2    1
   117     5     6    1
   118    80    78   ar
   119     2     3    1
   120    77    78   ar
   121    77    76    1
   122     8     7    1
   123     8     9    2
   124     3     4    2
   125    11     9    1
   126     7     6    1
   127     9    10    1
   128    76    73    1
   129   161   163   ar
   130   161   160   ar
   131   163   164   ar
   132    73    72    1
   133    73    74    1
   134   160   159    1
   135   160   162   ar
   136   164   162   ar
   137   159   156    1
   138    71    70    1
   139    65    64    1
   140    72    68   am
   141    69    68    2
   142   155   156    1
   143    68    67    1
   144    75    74    2
   145   156   157    1
   146    67    70    1
   147    67    66    1
   148    64    63   ar
   149    64    62   ar
   150    63    61   ar
   151    62    60   ar
   152   157   158    2
   153    61    59   ar
   154    57    56    2
   155    60    59   ar
   156    56    55    1
   157    59    58    1
   158    55    58    1
   159    55    54    1
