@<TRIPOS>MOLECULE
tmp/3haeQ00.pdb
 90 89 0 0 0
SMALL
GASTEIGER

@<TRIPOS>ATOM
      1  N         28.3120   25.0210   22.1820 N.3    47  TRP47      -0.1241
      2  CA        26.8260   24.7230   22.3550 C.3    47  TRP47       0.1605
      3  C         26.4530   25.1370   23.6940 C.2    47  TRP47       0.2264
      4  O         26.9340   24.5700   24.6980 O.2    47  TRP47      -0.2867
      5  CB        26.2560   23.2900   22.1860 C.3    47  TRP47       0.0550
      6  CG        24.6890   23.3270   22.2820 C.ar   47  TRP47       0.0003
      7  CD1       23.8070   23.7610   21.3040 C.ar   47  TRP47       0.0946
      8  CD2       23.8480   22.9590   23.4070 C.ar   47  TRP47       0.0152
      9  NE1       22.4870   23.6680   21.7430 N.ar   47  TRP47      -0.2442
     10  CE2       22.4880   23.1940   23.0250 C.ar   47  TRP47       0.0810
     11  CE3       24.1040   22.4700   24.7020 C.ar   47  TRP47       0.0012
     12  CZ2       21.4060   22.9580   23.8970 C.ar   47  TRP47       0.0191
     13  CZ3       23.0050   22.2250   25.5710 C.ar   47  TRP47       0.0001
     14  CH2       21.6810   22.4590   25.1510 C.ar   47  TRP47       0.0015
     15  N         19.7700   25.9390   23.1210 N.3    50  SER50      -0.1202
     16  CA        18.9370   25.7730   21.9530 C.3    50  SER50       0.2020
     17  C         17.4800   25.9300   22.3920 C.2    50  SER50       0.2619
     18  O         17.1310   25.6800   23.5630 O.2    50  SER50      -0.2717
     19  CB        19.1590   24.3950   21.3680 C.3    50  SER50       0.2103
     20  OG        19.4140   24.4860   19.9880 O.3    50  SER50      -0.2182
     21  N         16.6260   26.3750   21.4730 N.am   51  ILE51      -0.1965
     22  CA        15.1830   26.5370   21.7220 C.3    51  ILE51       0.1727
     23  C         14.5140   25.9310   20.4840 C.2    51  ILE51       0.2616
     24  O         15.1400   25.9070   19.4320 O.2    51  ILE51      -0.2715
     25  CB        14.8210   28.0300   21.9160 C.3    51  ILE51       0.0290
     26  CG1       13.3570   28.2140   22.3260 C.3    51  ILE51       0.0022
     27  CG2       15.0740   28.8400   20.6620 C.3    51  ILE51       0.0023
     28  CD1       13.0130   29.6440   22.5790 C.3    51  ILE51       0.0001
     29  N         13.3010   25.3990   20.5780 N.am   52  GLY52      -0.1955
     30  CA        12.7170   24.7140   19.4160 C.3    52  GLY52       0.1869
     31  C         11.6800   25.5060   18.6160 C.2    52  GLY52       0.2309
     32  O         11.3280   26.6460   18.9520 O.2    52  GLY52      -0.2863
     33  N          7.6220   26.0780   17.4360 N.3    54  SER54      -0.1202
     34  CA         6.7510   24.9760   18.0050 C.3    54  SER54       0.2020
     35  C          6.9000   24.6970   19.5230 C.2    54  SER54       0.2619
     36  O          7.4810   25.5220   20.2510 O.2    54  SER54      -0.2717
     37  CB         6.6330   23.7040   17.1260 C.3    54  SER54       0.2103
     38  OG         7.4650   22.6430   17.5820 O.3    54  SER54      -0.2182
     39  N          6.3530   23.5820   20.0130 N.am   55  GLY55      -0.1942
     40  CA         6.8070   23.0290   21.3040 C.3    55  GLY55       0.2014
     41  C          8.3240   22.7760   21.3610 C.2    55  GLY55       0.2639
     42  O          9.1060   23.1230   20.4200 O.2    55  GLY55      -0.2714
     43  N          8.7670   22.1780   22.4610 N.am   56  GLY56      -0.1939
     44  CA        10.1940   21.8870   22.6050 C.3    56  GLY56       0.2014
     45  C         10.9130   23.1480   22.9850 C.2    56  GLY56       0.2639
     46  O         10.2660   24.1130   23.3570 O.2    56  GLY56      -0.2714
     47  N         12.2490   23.1560   22.8400 N.am   57  GLY57      -0.1939
     48  CA        13.1680   24.2100   23.3970 C.3    57  GLY57       0.2014
     49  C         12.7170   24.2980   24.8320 C.2    57  GLY57       0.2640
     50  O         11.7800   23.6150   25.1720 O.2    57  GLY57      -0.2714
     51  N         13.3460   25.0300   25.7220 N.am   58  THR58      -0.1936
     52  CA        14.6970   25.4730   25.6900 C.3    58  THR58       0.2028
     53  C         15.5290   24.3860   26.3960 C.2    58  THR58       0.2642
     54  O         14.9910   23.5980   27.2000 O.2    58  THR58      -0.2714
     55  CB        14.7470   26.7030   26.5810 C.3    58  THR58       0.1808
     56  OG1       14.1090   26.3840   27.8280 O.3    58  THR58      -0.2208
     57  CG2       13.9460   27.8220   25.9630 C.3    58  THR58       0.0379
     58  N         16.8280   24.3440   26.1220 N.am   59  ALA59      -0.1977
     59  CA        17.7540   23.6480   27.0240 C.3    59  ALA59       0.1597
     60  C         19.0940   24.3990   27.1020 C.2    59  ALA59       0.2287
     61  O         19.3370   25.2810   26.2870 O.2    59  ALA59      -0.2864
     62  CB        17.9150   22.1930   26.6250 C.3    59  ALA59       0.0319
     63  N         18.4180   25.0110   13.3970 N.3    99  GLU99      -0.1245
     64  CA        18.2230   23.6590   12.8770 C.3    99  GLU99       0.1567
     65  C         16.9010   23.5390   12.0510 C.2    99  GLU99       0.2260
     66  O         15.8340   23.9810   12.4930 O.2    99  GLU99      -0.2867
     67  CB        18.4310   22.5670   13.9530 C.3    99  GLU99       0.0388
     68  CG        17.2920   22.3260   14.8780 C.3    99  GLU99       0.1160
     69  CD        17.6510   21.3640   16.0230 C.2    99  GLU99       0.3649
     70  OE1       18.7130   20.7360   15.9070 O.co2  99  GLU99      -0.2457
     71  OE2       16.8750   21.2290   17.0190 O.co2  99  GLU99      -0.2457
     72  N         13.9630   19.2470   14.3950 N.3   102  PRO102     -0.2102
     73  CA        14.5190   18.6900   15.6060 C.3   102  PRO102      0.1504
     74  C         15.6490   17.6600   15.4020 C.2   102  PRO102      0.2575
     75  O         15.4720   16.6360   14.7360 O.2   102  PRO102     -0.2718
     76  CB        13.2990   18.0070   16.2470 C.3   102  PRO102      0.0282
     77  CG        12.1570   18.7860   15.7880 C.3   102  PRO102      0.0208
     78  CD        12.4870   19.1120   14.3830 C.3   102  PRO102      0.0893
     79  N         16.7880   17.9450   16.0280 N.am  103  TYR103     -0.1977
     80  CA        17.8530   16.9780   16.2540 C.3   103  TYR103      0.1639
     81  C         18.6600   16.8000   14.9840 C.2   103  TYR103      0.2290
     82  O         19.6440   16.0370   14.9580 O.2   103  TYR103     -0.2864
     83  CB        17.3660   15.6120   16.8190 C.3   103  TYR103      0.0560
     84  CG        16.2400   15.6280   17.8550 C.ar  103  TYR103     -0.0198
     85  CD1       16.4090   16.2240   19.0900 C.ar  103  TYR103     -0.0009
     86  CD2       15.0100   15.0290   17.5830 C.ar  103  TYR103     -0.0009
     87  CE1       15.3900   16.2360   20.0260 C.ar  103  TYR103      0.0417
     88  CE2       14.0050   15.0320   18.5000 C.ar  103  TYR103      0.0417
     89  CZ        14.1890   15.6360   19.7330 C.ar  103  TYR103      0.1957
     90  OH        13.1620   15.6470   20.6840 O.3   103  TYR103     -0.2866
@<TRIPOS>BOND
     1    65    66    2
     2    65    64    1
     3    64    63    1
     4    64    67    1
     5    67    68    1
     6    78    72    1
     7    78    77    1
     8    72    73    1
     9    75    74    2
    10    68    69    1
    11    82    81    2
    12    81    80    1
    13    74    73    1
    14    74    79   am
    15    73    76    1
    16    77    76    1
    17    70    69   ar
    18    69    71   ar
    19    79    80    1
    20    80    83    1
    21    83    84    1
    22    37    38    1
    23    37    34    1
    24    33    34    1
    25    86    84   ar
    26    86    88   ar
    27    84    85   ar
    28    34    35    1
    29    88    89   ar
    30    31    32    2
    31    31    30    1
    32    85    87   ar
    33    30    29    1
    34    24    23    2
    35    35    39   am
    36    35    36    2
    37    89    87   ar
    38    89    90    1
    39    20    19    1
    40    39    40    1
    41    42    41    2
    42    23    29   am
    43    23    22    1
    44    27    25    1
    45    40    41    1
    46     7     9   ar
    47     7     6   ar
    48    41    43   am
    49    19    16    1
    50    21    22    1
    51    21    17   am
    52    22    25    1
    53     9    10   ar
    54    25    26    1
    55    16    17    1
    56    16    15    1
    57     1     2    1
    58     5     6    1
    59     5     2    1
    60     6     8   ar
    61    26    28    1
    62     2     3    1
    63    17    18    2
    64    43    44    1
    65    44    45    1
    66    47    45   am
    67    47    48    1
    68    45    46    2
    69    10     8   ar
    70    10    12   ar
    71    48    49    1
    72     8    11   ar
    73     3     4    2
    74    12    14   ar
    75    11    13   ar
    76    49    50    2
    77    49    51   am
    78    14    13   ar
    79    52    51    1
    80    52    53    1
    81    52    55    1
    82    57    55    1
    83    58    53   am
    84    58    59    1
    85    61    60    2
    86    53    54    2
    87    55    56    1
    88    62    59    1
    89    59    60    1
