@<TRIPOS>MOLECULE
tmp/3hatB01.pdb
 211 210 0 0 0
SMALL
GASTEIGER

@<TRIPOS>ATOM
      1  N         14.6160   -6.7590   11.9100 N.3    28  CYS28      -0.1235
      2  CA        14.2030   -6.3260   13.2640 C.3    28  CYS28       0.1677
      3  C         13.4720   -4.9790   13.2650 C.2    28  CYS28       0.2270
      4  O         13.1770   -4.3960   12.1860 O.2    28  CYS28      -0.2867
      5  CB        15.4870   -6.1120   14.0700 C.3    28  CYS28       0.0956
      6  SG        16.5150   -7.4930   14.7030 S.3    28  CYS28      -0.0801
      7  N         22.6130   -7.1050   18.3920 N.3    43  HIS43      -0.1241
      8  CA        22.3690   -8.4700   18.0500 C.3    43  HIS43       0.1621
      9  C         21.5850   -8.6450   16.7270 C.2    43  HIS43       0.2264
     10  O         21.4600   -9.7870   16.1640 O.2    43  HIS43      -0.2867
     11  CB        21.7110   -9.2640   19.1970 C.3    43  HIS43       0.0745
     12  CG        20.2350   -9.3380   19.2180 C.ar   43  HIS43       0.0817
     13  ND1       19.4770   -8.8930   20.3150 N.ar   43  HIS43      -0.2268
     14  CD2       19.3350   -9.7900   18.2940 C.ar   43  HIS43       0.1154
     15  CE1       18.1640   -9.0640   20.0440 C.ar   43  HIS43       0.1986
     16  NE2       18.0660   -9.5990   18.8440 N.ar   43  HIS43      -0.2212
     17  N         25.9790  -11.2410   15.5600 N.3    47  TYR47      -0.1241
     18  CA        25.6870  -12.4570   16.3110 C.3    47  TYR47       0.1605
     19  C         26.3810  -13.6970   15.6930 C.2    47  TYR47       0.2264
     20  O         25.7570  -14.4510   14.9710 O.2    47  TYR47      -0.2867
     21  CB        24.2110  -12.7300   16.3610 C.3    47  TYR47       0.0534
     22  CG        23.8130  -13.6490   17.4830 C.ar   47  TYR47      -0.0201
     23  CD1       24.1860  -13.2380   18.7540 C.ar   47  TYR47      -0.0009
     24  CD2       23.1170  -14.8240   17.3340 C.ar   47  TYR47      -0.0009
     25  CE1       23.8680  -13.9920   19.8980 C.ar   47  TYR47       0.0417
     26  CE2       22.7580  -15.5900   18.4160 C.ar   47  TYR47       0.0417
     27  CZ        23.1290  -15.1860   19.7150 C.ar   47  TYR47       0.1957
     28  OH        22.8280  -15.9440   20.8220 O.3    47  TYR47      -0.2866
     29  N         25.1210  -17.3170   15.3390 N.3    50  TRP50      -0.1241
     30  CA        24.3260  -17.6970   14.1740 C.3    50  TRP50       0.1605
     31  C         24.9780  -17.2290   12.8820 C.2    50  TRP50       0.2264
     32  O         24.2520  -17.2140   11.8730 O.2    50  TRP50      -0.2867
     33  CB        22.8960  -17.2920   14.1650 C.3    50  TRP50       0.0550
     34  CG        22.0770  -17.6440   15.3520 C.ar   50  TRP50       0.0003
     35  CD1       22.2100  -18.6550   16.2630 C.ar   50  TRP50       0.0946
     36  CD2       20.9000  -16.8630   15.7600 C.ar   50  TRP50       0.0152
     37  NE1       21.2070  -18.5540   17.2130 N.ar   50  TRP50      -0.2442
     38  CE2       20.3910  -17.4740   16.9140 C.ar   50  TRP50       0.0810
     39  CE3       20.2870  -15.7240   15.2450 C.ar   50  TRP50       0.0012
     40  CZ2       19.2750  -16.9580   17.5570 C.ar   50  TRP50       0.0191
     41  CZ3       19.1770  -15.2040   15.8430 C.ar   50  TRP50       0.0001
     42  CH2       18.6830  -15.8260   17.0060 C.ar   50  TRP50       0.0015
     43  N         25.7490  -14.3470   11.9540 N.3    52  LYS52      -0.1245
     44  CA        25.0850  -13.0520   11.6130 C.3    52  LYS52       0.1561
     45  C         26.0560  -11.8820   11.6730 C.2    52  LYS52       0.2260
     46  O         26.7440  -11.7050   12.7040 O.2    52  LYS52      -0.2867
     47  CB        23.8760  -12.7620   12.4720 C.3    52  LYS52       0.0271
     48  CG        23.1180  -11.5750   11.8800 C.3    52  LYS52       0.0035
     49  CD        22.0230  -11.0310   12.8080 C.3    52  LYS52       0.0206
     50  CE        20.8580  -12.0060   12.7800 C.3    52  LYS52       0.1093
     51  NZ        19.7490  -11.2740   13.4840 N.3    52  LYS52      -0.1314
     52  N         28.0300  -13.6810   26.4680 N.3    94  GLU94      -0.1231
     53  CA        27.2750  -14.3860   27.5790 C.3    94  GLU94       0.1699
     54  C         25.8480  -13.9750   27.7540 C.2    94  GLU94       0.2592
     55  O         24.9810  -14.8780   27.6470 O.2    94  GLU94      -0.2718
     56  CB        28.0590  -14.2750   28.8680 C.3    94  GLU94       0.0402
     57  CG        27.2950  -14.5570   30.1800 C.3    94  GLU94       0.1161
     58  CD        27.9550  -13.6740   31.2600 C.2    94  GLU94       0.3649
     59  OE1       28.9270  -13.0110   30.8390 O.co2  94  GLU94      -0.2457
     60  OE2       27.3860  -13.8230   32.3770 O.co2  94  GLU94      -0.2457
     61  N         25.5430  -12.7140   27.9990 N.am   95  ASN95      -0.1960
     62  CA        24.1150  -12.3970   28.1830 C.3    95  ASN95       0.1819
     63  C         23.5480  -11.3250   27.2670 C.2    95  ASN95       0.2621
     64  O         22.3860  -10.9810   27.6400 O.2    95  ASN95      -0.2715
     65  CB        23.9880  -12.0850   29.6850 C.3    95  ASN95       0.1195
     66  CG        25.0910  -11.0990   30.0930 C.2    95  ASN95       0.2630
     67  OD1       25.9260  -10.8370   29.2230 O.2    95  ASN95      -0.2716
     68  ND2       25.1150  -10.5800   31.3070 N.am   95  ASN95      -0.0877
     69  N         24.1250  -10.8010   26.1950 N.am   96  LEU96      -0.1977
     70  CA        23.5140   -9.7420   25.3750 C.3    96  LEU96       0.1596
     71  C         23.5280   -8.4060   26.1590 C.2    96  LEU96       0.2287
     72  O         22.6550   -7.5200   26.0980 O.2    96  LEU96      -0.2864
     73  CB        22.1420  -10.1360   24.7970 C.3    96  LEU96       0.0297
     74  CG        22.1310  -11.1730   23.6630 C.3    96  LEU96       0.0022
     75  CD1       21.0140  -10.9080   22.6490 C.3    96  LEU96       0.0001
     76  CD2       23.4570  -11.2140   22.9060 C.3    96  LEU96       0.0001
     77  N         20.1110  -16.9730   33.3960 N.3   171  ILE171     -0.1301
     78  CA        21.0090  -16.0240   32.7260 C.3   171  ILE171      0.1246
     79  C         21.5070  -14.9030   33.6490 C.3   171  ILE171      0.2009
     80  O         20.6690  -14.4800   34.3940 O.3   171  ILE171     -0.2188
     81  CB        20.2800  -15.3530   31.4450 C.3   171  ILE171      0.0202
     82  CG1       19.8270  -16.4230   30.4070 C.3   171  ILE171      0.0015
     83  CG2       21.1570  -14.2910   30.7660 C.3   171  ILE171      0.0016
     84  CD1       21.0300  -17.3100   29.9070 C.3   171  ILE171      0.0000
     85  N          3.9470   -9.8650   25.0850 N.3   191  ASP191     -0.1225
     86  CA         5.4160   -9.8450   25.0210 C.3   191  ASP191      0.1805
     87  C          5.8860   -9.5140   23.5910 C.2   191  ASP191      0.2598
     88  O          5.1210   -9.4540   22.6360 O.2   191  ASP191     -0.2718
     89  CB         5.8340  -11.1930   25.5770 C.3   191  ASP191      0.1424
     90  CG         7.2850  -11.4060   25.8950 C.2   191  ASP191      0.3668
     91  OD1        7.9600  -10.3970   26.2010 O.co2 191  ASP191     -0.2456
     92  OD2        7.8400  -12.5390   25.8720 O.co2 191  ASP191     -0.2456
     93  N          7.1720   -9.2870   23.4570 N.am  192  ALA192     -0.1966
     94  CA         7.8800   -9.0370   22.1960 C.3   192  ALA192      0.1728
     95  C          8.0880  -10.5010   21.7290 C.2   192  ALA192      0.2616
     96  O          7.6830  -11.4650   22.4460 O.2   192  ALA192     -0.2715
     97  CB         9.1600   -8.2430   22.4380 C.3   192  ALA192      0.0334
     98  N          8.6750  -10.8200   20.6200 N.am  193  CYS193     -0.1954
     99  CA         8.8930  -12.1910   20.1300 C.3   193  CYS193      0.1843
    100  C          9.8690  -12.0370   18.9560 C.2   193  CYS193      0.2625
    101  O         10.1780  -10.8490   18.6470 O.2   193  CYS193     -0.2714
    102  CB         7.5880  -12.8920   19.7220 C.3   193  CYS193      0.0997
    103  SG         7.6310  -14.7340   19.6840 S.3   193  CYS193     -0.0797
    104  N         10.2880  -13.1480   18.3740 N.am  194  GLU194     -0.1963
    105  CA        11.2040  -13.1100   17.2160 C.3   194  GLU194      0.1733
    106  C         10.7050  -12.0030   16.2630 C.2   194  GLU194      0.2616
    107  O          9.4770  -11.9010   16.0280 O.2   194  GLU194     -0.2715
    108  CB        11.2730  -14.4810   16.4810 C.3   194  GLU194      0.0429
    109  CG        11.5970  -15.5920   17.4720 C.3   194  GLU194      0.1163
    110  CD        13.0400  -15.6570   17.8960 C.2   194  GLU194      0.3649
    111  OE1       13.8190  -14.8370   17.4070 O.co2 194  GLU194     -0.2457
    112  OE2       13.4020  -16.5430   18.7300 O.co2 194  GLU194     -0.2457
    113  N         11.7230  -11.2450   15.7930 N.am  195  GLY195     -0.1955
    114  CA        11.5450  -10.1380   14.8880 C.3   195  GLY195      0.1869
    115  C         11.2380   -8.7700   15.4820 C.2   195  GLY195      0.2309
    116  O         11.3890   -7.7570   14.7600 O.2   195  GLY195     -0.2863
    117  N         12.8930   -7.4970   18.1140 N.3   197  SER197     -0.1217
    118  CA        14.1380   -6.9360   18.5130 C.3   197  SER197      0.1889
    119  C         14.4660   -5.5960   17.9050 C.2   197  SER197      0.2288
    120  O         14.2870   -5.4930   16.6890 O.2   197  SER197     -0.2866
    121  CB        15.2880   -7.8500   18.0740 C.3   197  SER197      0.2089
    122  OG        15.6100   -8.6170   19.2690 O.3   197  SER197     -0.2183
    123  N         13.9170   -3.5740   22.9070 N.3   217  VAL217     -0.1231
    124  CA        13.5910   -5.0060   22.9010 C.3   217  VAL217      0.1692
    125  C         14.8980   -5.8010   22.6260 C.2   217  VAL217      0.2593
    126  O         15.5420   -5.7100   21.5620 O.2   217  VAL217     -0.2718
    127  CB        12.5000   -5.4030   21.8750 C.3   217  VAL217      0.0266
    128  CG1       12.3060   -6.9470   21.9890 C.3   217  VAL217      0.0020
    129  CG2       11.2330   -4.5810   21.9410 C.3   217  VAL217      0.0020
    130  N         15.2240   -6.6240   23.6290 N.am  218  SER218     -0.1938
    131  CA        16.4350   -7.3950   23.4880 C.3   218  SER218      0.2055
    132  C         16.3500   -8.8920   23.4350 C.2   218  SER218      0.2643
    133  O         16.8110   -9.4960   22.4180 O.2   218  SER218     -0.2714
    134  CB        17.3800   -6.9250   24.6290 C.3   218  SER218      0.2130
    135  OG        18.5500   -7.7220   24.4590 O.3   218  SER218     -0.2179
    136  N         15.8090   -9.5320   24.4640 N.am  219  TRP219     -0.1959
    137  CA        15.8170  -11.0650   24.4280 C.3   219  TRP219      0.1771
    138  C         14.8110  -11.5580   25.4210 C.2   219  TRP219      0.2620
    139  O         14.2480  -10.7430   26.1470 O.2   219  TRP219     -0.2715
    140  CB        17.1910  -11.6080   24.7840 C.3   219  TRP219      0.0590
    141  CG        17.7170  -11.2840   26.1420 C.ar  219  TRP219      0.0006
    142  CD1       18.5260  -10.2470   26.5190 C.ar  219  TRP219      0.0946
    143  CD2       17.5560  -12.0650   27.3800 C.ar  219  TRP219      0.0152
    144  NE1       18.8760  -10.2540   27.8370 N.ar  219  TRP219     -0.2442
    145  CE2       18.2770  -11.3950   28.4010 C.ar  219  TRP219      0.0810
    146  CE3       16.8690  -13.2500   27.6750 C.ar  219  TRP219      0.0012
    147  CZ2       18.2980  -11.8800   29.7030 C.ar  219  TRP219      0.0191
    148  CZ3       16.8950  -13.7430   28.9540 C.ar  219  TRP219      0.0001
    149  CH2       17.6050  -13.0280   29.9280 C.ar  219  TRP219      0.0015
    150  N         14.6120  -12.8240   25.4240 N.am  220  GLY220     -0.1940
    151  CA        13.6230  -13.4370   26.3720 C.3   220  GLY220      0.2014
    152  C         13.6640  -14.9590   26.1430 C.2   220  GLY220      0.2642
    153  O         14.3050  -15.3390   25.1850 O.2   220  GLY220     -0.2714
    154  N         12.9760  -15.6840   27.0020 N.am  221  GLU221     -0.1917
    155  CA        12.9190  -17.1860   26.8560 C.3   221  GLU221      0.1949
    156  C         11.5160  -17.5520   26.3680 C.2   221  GLU221      0.2659
    157  O         10.4930  -17.4260   27.0970 O.2   221  GLU221     -0.2711
    158  CB        13.3920  -17.8500   28.1370 C.2   221  GLU221      0.0111
    159  CG        14.7220  -17.3870   28.7130 C.2   221  GLU221      0.0838
    160  CD        15.0880  -17.7760   30.1300 C.2   221  GLU221      0.3877
    161  OE1       14.3640  -17.6080   31.1330 O.co2 221  GLU221     -0.2406
    162  OE2       16.2240  -18.2730   30.2980 O.co2 221  GLU221     -0.2406
    163  N         11.4790  -17.9380   25.0910 N.am  222  GLY222     -0.1937
    164  CA        10.1360  -18.2670   24.4640 C.3   222  GLY222      0.2014
    165  C          9.4230  -16.9270   24.2020 C.2   222  GLY222      0.2639
    166  O         10.1540  -15.9310   23.9210 O.2   222  GLY222     -0.2714
    167  N          8.1150  -16.8360   24.2820 N.am  223  CYS223     -0.1967
    168  CA         7.3820  -15.5420   24.0570 C.3   223  CYS223      0.1712
    169  C          6.0690  -15.6720   24.8360 C.2   223  CYS223      0.2296
    170  O          5.3290  -16.6870   24.5960 O.2   223  CYS223     -0.2864
    171  CB         7.1280  -15.1930   22.6110 C.3   223  CYS223      0.0983
    172  SG         8.5170  -15.2270   21.4810 S.3   223  CYS223     -0.0798
    173  N          9.6120  -13.1000   31.5980 N.3   229  TYR229     -0.1227
    174  CA         9.5620  -11.6910   31.2030 C.3   229  TYR229      0.1736
    175  C         10.3800  -11.3130   29.9970 C.2   229  TYR229      0.2596
    176  O         11.2500  -12.0770   29.5760 O.2   229  TYR229     -0.2718
    177  CB        10.1030  -10.8620   32.4130 C.3   229  TYR229      0.0548
    178  CG         9.2750  -11.3310   33.5670 C.ar  229  TYR229     -0.0200
    179  CD1        7.9890  -10.7750   33.7160 C.ar  229  TYR229     -0.0009
    180  CD2        9.6980  -12.2890   34.4760 C.ar  229  TYR229     -0.0009
    181  CE1        7.1250  -11.1030   34.7380 C.ar  229  TYR229      0.0417
    182  CE2        8.8720  -12.6550   35.5590 C.ar  229  TYR229      0.0417
    183  CZ         7.5940  -12.0710   35.6280 C.ar  229  TYR229      0.1957
    184  OH         6.7130  -12.4400   36.6400 O.3   229  TYR229     -0.2866
    185  N         10.1180  -10.1350   29.4610 N.am  230  GLY230     -0.1942
    186  CA        10.8720   -9.5610   28.3030 C.3   230  GLY230      0.2014
    187  C         12.0370   -8.7760   29.0120 C.2   230  GLY230      0.2639
    188  O         11.8160   -8.2810   30.1340 O.2   230  GLY230     -0.2714
    189  N         13.1910   -8.7820   28.3700 N.am  231  PHE231     -0.1959
    190  CA        14.4380   -8.1400   28.7300 C.3   231  PHE231      0.1771
    191  C         14.7850   -7.1090   27.6220 C.2   231  PHE231      0.2619
    192  O         14.7470   -7.3730   26.3640 O.2   231  PHE231     -0.2715
    193  CB        15.6100   -9.0660   29.0150 C.3   231  PHE231      0.0574
    194  CG        15.3910   -9.7700   30.3500 C.ar  231  PHE231     -0.0200
    195  CD1       14.5440  -10.8940   30.4130 C.ar  231  PHE231     -0.0042
    196  CD2       16.0290   -9.3080   31.5160 C.ar  231  PHE231     -0.0042
    197  CE1       14.3430  -11.5790   31.6210 C.ar  231  PHE231     -0.0003
    198  CE2       15.8210   -9.9730   32.7400 C.ar  231  PHE231     -0.0003
    199  CZ        14.9620  -11.0950   32.7890 C.ar  231  PHE231     -0.0000
    200  N         15.0890   -5.9330   28.1920 N.am  232  TYR232     -0.1974
    201  CA        15.4050   -4.7310   27.4240 C.3   232  TYR232      0.1639
    202  C         16.6710   -4.0030   27.6840 C.2   232  TYR232      0.2290
    203  O         17.0580   -3.9480   28.8610 O.2   232  TYR232     -0.2864
    204  CB        14.2750   -3.7090   27.7860 C.3   232  TYR232      0.0560
    205  CG        12.9180   -4.1990   27.3210 C.ar  232  TYR232     -0.0198
    206  CD1       12.2460   -5.1460   28.1170 C.ar  232  TYR232     -0.0009
    207  CD2       12.3010   -3.8300   26.1260 C.ar  232  TYR232     -0.0009
    208  CE1       10.9740   -5.6440   27.7540 C.ar  232  TYR232      0.0417
    209  CE2       11.0370   -4.3330   25.7730 C.ar  232  TYR232      0.0417
    210  CZ        10.3900   -5.2430   26.5550 C.ar  232  TYR232      0.1957
    211  OH         9.1740   -5.7500   26.2390 O.3   232  TYR232     -0.2866
@<TRIPOS>BOND
     1    44    45    1
     2    44    43    1
     3    44    47    1
     4    45    46    2
     5    32    31    2
     6    48    47    1
     7    48    49    1
     8     1     2    1
     9     4     3    2
    10    50    49    1
    11    50    51    1
    12    31    30    1
    13     2     3    1
    14     2     5    1
    15     5     6    1
    16    33    30    1
    17    33    34    1
    18    30    29    1
    19   116   115    2
    20   114   115    1
    21   114   113    1
    22    20    19    2
    23    39    36   ar
    24    39    41   ar
    25    34    36   ar
    26    34    35   ar
    27    17    18    1
    28    19    18    1
    29    36    38   ar
    30   113   106   am
    31    41    42   ar
    32   107   106    2
    33    10     9    2
    34   106   105    1
    35    35    37   ar
    36    18    21    1
    37    21    22    1
    38   108   105    1
    39   108   109    1
    40   120   119    2
    41     9     8    1
    42    38    37   ar
    43    38    40   ar
    44    42    40   ar
    45   105   104    1
    46    24    22   ar
    47    24    26   ar
    48   111   110   ar
    49   109   110    1
    50    22    23   ar
    51   110   112   ar
    52   119   118    1
    53     8     7    1
    54     8    11    1
    55   121   118    1
    56   121   122    1
    57   117   118    1
    58    14    16   ar
    59    14    12   ar
    60   104   100   am
    61    26    27   ar
    62   101   100    2
    63    23    25   ar
    64    16    15   ar
    65   100    99    1
    66    11    12    1
    67    12    13   ar
    68   103   102    1
    69   103   172    1
    70    27    25   ar
    71    27    28    1
    72   102    99    1
    73    15    13   ar
    74    99    98    1
    75    98    95   am
    76   172   171    1
    77   126   125    2
    78    95    94    1
    79    95    96    2
    80   127   129    1
    81   127   128    1
    82   127   124    1
    83    94    97    1
    84    94    93    1
    85   133   132    2
    86   171   168    1
    87   125   124    1
    88   125   130   am
    89    88    87    2
    90    75    74    1
    91   124   123    1
    92    76    74    1
    93   132   131    1
    94   132   136   am
    95    93    87   am
    96   131   130    1
    97   131   134    1
    98    87    86    1
    99    74    73    1
   100   166   165    2
   101   168   167    1
   102   168   169    1
   103   165   167   am
   104   165   164    1
   105   137   136    1
   106   137   140    1
   107   137   138    1
   108   135   134    1
   109   164   163    1
   110   170   169    2
   111   140   141    1
   112    73    70    1
   113    86    85    1
   114    86    89    1
   115   163   156   am
   116   153   152    2
   117    70    71    1
   118    70    69    1
   119   138   150   am
   120   138   139    2
   121   150   151    1
   122    89    90    1
   123   209   207   ar
   124   209   210   ar
   125    92    90   ar
   126    90    91   ar
   127    72    71    2
   128   207   205   ar
   129   141   142   ar
   130   141   143   ar
   131   152   151    1
   132   152   154   am
   133    69    63   am
   134   211   210    1
   135   192   191    2
   136   156   155    1
   137   156   157    2
   138    52    53    1
   139   142   144   ar
   140   210   208   ar
   141   155   154    1
   142   155   158    1
   143    63    64    2
   144    63    62    1
   145   205   204    1
   146   205   206   ar
   147   143   146   ar
   148   143   145   ar
   149   201   202    1
   150   201   204    1
   151   201   200    1
   152    53    54    1
   153    53    56    1
   154   191   200   am
   155   191   190    1
   156    55    54    2
   157   146   148   ar
   158   202   203    2
   159   208   206   ar
   160    54    61   am
   161   144   145   ar
   162    61    62    1
   163   158   159    2
   164    62    65    1
   165   186   187    1
   166   186   185    1
   167   189   190    1
   168   189   187   am
   169   145   147   ar
   170   159   160    1
   171   190   193    1
   172    56    57    1
   173   148   149   ar
   174   187   188    2
   175   193   194    1
   176    67    66    2
   177   185   175   am
   178   176   175    2
   179    65    66    1
   180   147   149   ar
   181    84    82    1
   182   175   174    1
   183    66    68   am
   184   160   162   ar
   185   160   161   ar
   186    57    58    1
   187   194   195   ar
   188   194   196   ar
   189    82    81    1
   190   195   197   ar
   191    83    81    1
   192    59    58   ar
   193   174   173    1
   194   174   177    1
   195    58    60   ar
   196    81    78    1
   197   196   198   ar
   198   197   199   ar
   199   177   178    1
   200    78    77    1
   201    78    79    1
   202   198   199   ar
   203   178   179   ar
   204   178   180   ar
   205    79    80    1
   206   179   181   ar
   207   180   182   ar
   208   181   183   ar
   209   182   183   ar
   210   183   184    1
