@<TRIPOS>MOLECULE
tmp/3hatB00.pdb
 168 159 0 0 0
SMALL
GASTEIGER

@<TRIPOS>ATOM
      1  N         11.8500    0.0340   10.3040 N.3    17  MET17      -0.1245
      2  CA        11.8360   -1.4320    9.9620 C.3    17  MET17       0.1570
      3  C         13.2690   -1.7370    9.5280 C.2    17  MET17       0.2261
      4  O         13.8080   -0.9790    8.7150 O.2    17  MET17      -0.2867
      5  CB        10.7750   -1.9470    9.0420 C.3    17  MET17       0.0387
      6  CG        11.1720   -3.1930    8.2500 C.3    17  MET17       0.0595
      7  SD         9.7320   -3.8760    7.3270 S.3    17  MET17      -0.1393
      8  CE         8.3370   -3.5640    8.3640 C.3    17  MET17       0.0692
      9  N         15.2120   -3.9040    7.4360 N.3    19  PHE19      -0.1241
     10  CA        14.9270   -4.7390    6.2340 C.3    19  PHE19       0.1605
     11  C         16.1790   -5.0310    5.4080 C.2    19  PHE19       0.2264
     12  O         17.0500   -4.2420    5.0040 O.2    19  PHE19      -0.2867
     13  CB        13.7970   -4.0640    5.4520 C.3    19  PHE19       0.0534
     14  CG        13.2400   -4.7580    4.2650 C.ar   19  PHE19      -0.0203
     15  CD1       12.2150   -5.7000    4.4100 C.ar   19  PHE19      -0.0042
     16  CD2       13.7460   -4.4920    2.9690 C.ar   19  PHE19      -0.0042
     17  CE1       11.7140   -6.3740    3.3120 C.ar   19  PHE19      -0.0003
     18  CE2       13.2570   -5.1410    1.8400 C.ar   19  PHE19      -0.0003
     19  CZ        12.2170   -6.1050    2.0410 C.ar   19  PHE19      -0.0000
     20  N         17.9290   -6.6090    2.1910 N.3    21  LYS21      -0.1245
     21  CA        17.8900   -6.4650    0.7430 C.3    21  LYS21       0.1561
     22  C         17.6380   -7.7960    0.0480 C.2    21  LYS21       0.2260
     23  O         16.6030   -7.8380   -0.6650 O.2    21  LYS21      -0.2867
     24  CB        19.1410   -5.7740    0.1640 C.3    21  LYS21       0.0271
     25  CG        18.8360   -4.3010   -0.1750 C.3    21  LYS21       0.0035
     26  CD        19.9230   -3.3210    0.1830 C.3    21  LYS21       0.0206
     27  CE        21.1030   -3.1520   -0.7630 C.3    21  LYS21       0.1093
     28  NZ        21.7080   -1.8030   -0.5860 N.3    21  LYS21      -0.1314
     29  N         14.8680  -10.2870    0.5820 N.3    24  GLN24      -0.1231
     30  CA        14.1610   -9.0690    1.0090 C.3    24  GLN24       0.1698
     31  C         13.4430   -9.5730    2.2560 C.2    24  GLN24       0.2595
     32  O         12.6750  -10.5590    2.0580 O.2    24  GLN24      -0.2718
     33  CB        13.2080   -8.4790   -0.0330 C.3    24  GLN24       0.0381
     34  CG        13.8850   -7.5710   -1.0440 C.3    24  GLN24       0.0905
     35  CD        13.1550   -6.5340   -1.8390 C.2    24  GLN24       0.2608
     36  OE1       13.3620   -6.3300   -3.0530 O.2    24  GLN24      -0.2717
     37  NE2       12.2360   -5.7200   -1.2930 N.am   24  GLN24      -0.0878
     38  N         13.7020   -9.0060    3.4120 N.am   25  GLU25      -0.1920
     39  CA        13.0090   -9.5250    4.6110 C.3    25  GLU25       0.1949
     40  C         13.2700   -8.6510    5.8290 C.2    25  GLU25       0.2658
     41  O         14.2620   -7.9090    5.9520 O.2    25  GLU25      -0.2711
     42  CB        13.3570  -10.9930    4.9370 C.2    25  GLU25       0.0111
     43  CG        14.8050  -11.3680    5.0100 C.2    25  GLU25       0.0838
     44  CD        15.3930  -12.5910    5.6390 C.2    25  GLU25       0.3877
     45  OE1       14.5280  -13.4440    5.9940 O.co2  25  GLU25      -0.2406
     46  OE2       16.6290  -12.7380    5.7890 O.co2  25  GLU25      -0.2406
     47  N         12.3080   -8.7560    6.7540 N.am   26  LEU26      -0.1974
     48  CA        12.2990   -8.0490    8.0150 C.3    26  LEU26       0.1596
     49  C         13.3170   -8.7250    8.9390 C.2    26  LEU26       0.2287
     50  O         13.1350   -9.8980    9.3180 O.2    26  LEU26      -0.2864
     51  CB        10.9370   -8.0260    8.7320 C.3    26  LEU26       0.0297
     52  CG        10.9680   -7.4930   10.1630 C.3    26  LEU26       0.0022
     53  CD1       10.8840   -5.9780   10.2560 C.3    26  LEU26       0.0001
     54  CD2        9.7870   -8.0270   10.9420 C.3    26  LEU26       0.0001
     55  N         18.6880   -2.0030    4.5080 N.3    60  LEU60      -0.1245
     56  CA        17.7280   -0.9560    4.2390 C.3    60  LEU60       0.1561
     57  C         16.9040   -0.6650    5.5320 C.2    60  LEU60       0.2260
     58  O         16.4290   -1.5440    6.2640 O.2    60  LEU60      -0.2867
     59  CB        16.7970   -1.1950    3.0010 C.3    60  LEU60       0.0270
     60  CG        17.1560   -0.4630    1.7470 C.3    60  LEU60       0.0019
     61  CD1       18.6450   -0.2180    1.5100 C.3    60  LEU60       0.0001
     62  CD2       16.6960   -1.3250    0.5520 C.3    60  LEU60       0.0001
     63  N         13.5400    1.3900    6.7910 N.3    62  ARG62      -0.1245
     64  CA        12.2540    1.8580    6.3530 C.3    62  ARG62       0.1563
     65  C         11.3930    2.4780    7.4760 C.2    62  ARG62       0.2260
     66  O         10.8210    1.7590    8.3230 O.2    62  ARG62      -0.2867
     67  CB        11.5750    0.6960    5.6520 C.3    62  ARG62       0.0307
     68  CG        12.4630   -0.0520    4.6370 C.3    62  ARG62       0.0489
     69  CD        11.7770   -1.2970    4.2260 C.3    62  ARG62       0.2205
     70  NE        10.4850   -1.1080    3.5890 N.pl3  62  ARG62      -0.0865
     71  CZ         9.5980   -1.8740    2.9610 C.cat  62  ARG62       0.5346
     72  NH1        9.7790   -3.2000    2.7300 N.pl3  62  ARG62       0.1354
     73  NH2        8.3870   -1.4790    2.4860 N.pl3  62  ARG62       0.1354
     74  N          3.1360   -4.3400    7.2930 N.3    68  ARG68      -0.1231
     75  CA         4.3310   -5.1510    7.4380 C.3    68  ARG68       0.1694
     76  C          5.1430   -5.2610    6.1540 C.2    68  ARG68       0.2593
     77  O          6.2960   -4.8820    5.9700 O.2    68  ARG68      -0.2718
     78  CB         3.9690   -6.5290    7.9930 C.3    68  ARG68       0.0321
     79  CG         5.2990   -7.2970    8.2400 C.3    68  ARG68       0.0489
     80  CD         4.9330   -8.4980    9.0880 C.3    68  ARG68       0.2205
     81  NE         4.0620   -9.3550    8.3260 N.pl3  68  ARG68      -0.0865
     82  CZ         4.1980  -10.3390    7.4600 C.cat  68  ARG68       0.5346
     83  NH1        5.3650  -10.8720    7.1410 N.pl3  68  ARG68       0.1354
     84  NH2        3.1210  -10.8960    6.8650 N.pl3  68  ARG68       0.1354
     85  N          4.4800   -5.7680    5.1580 N.am   69  THR69      -0.1939
     86  CA         4.7620   -6.1260    3.7920 C.3    69  THR69       0.2028
     87  C          4.6130   -5.2910    2.5690 C.2    69  THR69       0.2642
     88  O          5.5520   -5.3350    1.7490 O.2    69  THR69      -0.2714
     89  CB         3.7300   -7.3610    3.5570 C.3    69  THR69       0.1808
     90  OG1        4.6210   -8.4670    3.9700 O.3    69  THR69      -0.2208
     91  CG2        3.0910   -7.2520    2.2100 C.3    69  THR69       0.0379
     92  N          3.5040   -4.5580    2.4140 N.am   70  ARG70      -0.1963
     93  CA         3.3460   -3.7230    1.2060 C.3    70  ARG70       0.1729
     94  C          4.3280   -2.5430    1.2080 C.2    70  ARG70       0.2616
     95  O          4.8210   -2.1010    2.2710 O.2    70  ARG70      -0.2715
     96  CB         1.9290   -3.1730    1.0860 C.3    70  ARG70       0.0348
     97  CG         0.8140   -3.9400    1.7410 C.3    70  ARG70       0.0492
     98  CD         0.4330   -5.2950    1.3200 C.3    70  ARG70       0.2205
     99  NE        -0.8330   -5.7400    1.8110 N.pl3  70  ARG70      -0.0865
    100  CZ        -1.8860   -6.4690    1.4710 C.cat  70  ARG70       0.5346
    101  NH1       -2.2280   -7.1100    0.3320 N.pl3  70  ARG70       0.1354
    102  NH2       -2.8340   -6.7820    2.4120 N.pl3  70  ARG70       0.1354
    103  N          4.6000   -2.0250    0.0020 N.am   71  TYR71      -0.1974
    104  CA         5.4870   -0.8400   -0.0660 C.3    71  TYR71       0.1639
    105  C          4.5880    0.3930    0.0230 C.2    71  TYR71       0.2290
    106  O          4.0610    0.8520   -0.9830 O.2    71  TYR71      -0.2864
    107  CB         6.3420   -0.9330   -1.2970 C.3    71  TYR71       0.0560
    108  CG         6.8620    0.4610   -1.6380 C.ar   71  TYR71      -0.0198
    109  CD1        7.7540    1.0910   -0.7940 C.ar   71  TYR71      -0.0009
    110  CD2        6.4390    1.1340   -2.7880 C.ar   71  TYR71      -0.0009
    111  CE1        8.2400    2.3580   -1.0890 C.ar   71  TYR71       0.0417
    112  CE2        6.9200    2.4200   -3.0710 C.ar   71  TYR71       0.0417
    113  CZ         7.8200    3.0260   -2.2270 C.ar   71  TYR71       0.1957
    114  OH         8.3070    4.2540   -2.5140 O.3    71  TYR71      -0.2866
    115  N          3.5830    3.4440   -0.5010 N.3    73  ARG73      -0.1301
    116  CA         3.8310    4.3600   -1.5680 C.3    73  ARG73       0.1248
    117  C          3.9070    5.8320   -1.1700 C.3    73  ARG73       0.2009
    118  O          5.1800    6.1830   -1.1950 O.3    73  ARG73      -0.2188
    119  CB         3.0310    4.1930   -2.8910 C.3    73  ARG73       0.0254
    120  CG         3.9350    4.7140   -4.0360 C.3    73  ARG73       0.0485
    121  CD         3.6540    4.0380   -5.3760 C.3    73  ARG73       0.2205
    122  NE         2.6210    4.7040   -6.0880 N.pl3  73  ARG73      -0.0865
    123  CZ         1.3410    4.6880   -6.3010 C.cat  73  ARG73       0.5346
    124  NH1        0.4870    3.7760   -5.9040 N.pl3  73  ARG73       0.1354
    125  NH2        0.9770    5.8840   -6.8610 N.pl3  73  ARG73       0.1354
    126  N          5.6970    5.8190    3.4100 N.3    76  GLU76      -0.1182
    127  CA         7.0340    5.4220    3.8150 C.3    76  GLU76       0.1915
    128  C          8.1860    6.0130    3.0640 C.2    76  GLU76       0.2634
    129  O          8.0970    6.5430    1.9730 O.2    76  GLU76      -0.2714
    130  CB         7.1870    3.9250    3.8560 C.2    76  GLU76       0.0085
    131  CG         6.9670    2.9780    2.7250 C.2    76  GLU76       0.0835
    132  CD         7.3520    1.5400    2.8190 C.2    76  GLU76       0.3877
    133  OE1        8.6120    1.4300    2.8350 O.co2  76  GLU76      -0.2406
    134  OE2        6.5920    0.5850    2.8810 O.co2  76  GLU76      -0.2406
    135  N          9.3620    5.9720    3.6640 N.am   77  LYS77      -0.1963
    136  CA        10.6610    6.4620    3.1650 C.3    77  LYS77       0.1728
    137  C         11.7360    5.4000    3.4630 C.2    77  LYS77       0.2616
    138  O         11.8560    4.9130    4.5960 O.2    77  LYS77      -0.2715
    139  CB        11.1130    7.8070    3.6880 C.3    77  LYS77       0.0311
    140  CG        10.5680    9.0360    2.9130 C.3    77  LYS77       0.0038
    141  CD         9.3220    9.6590    3.5780 C.3    77  LYS77       0.0206
    142  CE         9.5060   10.6910    4.6770 C.3    77  LYS77       0.1093
    143  NZ         8.3840   11.6580    4.9500 N.3    77  LYS77      -0.1314
    144  N         12.4910    5.0260    2.4450 N.am   78  ILE78      -0.1977
    145  CA        13.5360    4.0160    2.5960 C.3    78  ILE78       0.1596
    146  C         14.8550    4.7240    2.6580 C.2    78  ILE78       0.2287
    147  O         14.9810    5.7200    1.9440 O.2    78  ILE78      -0.2864
    148  CB        13.3920    2.9950    1.4480 C.3    78  ILE78       0.0276
    149  CG1       11.9320    2.4810    1.5120 C.3    78  ILE78       0.0022
    150  CG2       14.3920    1.8340    1.5910 C.3    78  ILE78       0.0022
    151  CD1       11.4060    1.5130    0.4390 C.3    78  ILE78       0.0001
    152  N         19.2930    4.3030    3.2010 N.3    80  MET80      -0.1245
    153  CA        20.5670    3.6010    3.0670 C.3    80  MET80       0.1570
    154  C         21.3830    4.0840    4.2950 C.2    80  MET80       0.2261
    155  O         21.4720    5.3060    4.5820 O.2    80  MET80      -0.2867
    156  CB        21.2760    3.8930    1.7680 C.3    80  MET80       0.0387
    157  CG        20.4120    3.5480    0.5590 C.3    80  MET80       0.0595
    158  SD        21.4980    3.9730   -0.9280 S.3    80  MET80      -0.1393
    159  CE        21.2140    2.3550   -1.7550 C.3    80  MET80       0.0692
    160  N         21.3920   10.2900    4.3370 N.3   107  LYS107     -0.1245
    161  CA        20.8780   11.6960    4.1380 C.3   107  LYS107      0.1561
    162  C         19.6940   11.7870    5.1060 C.2   107  LYS107      0.2260
    163  O         19.0240   10.7480    5.2970 O.2   107  LYS107     -0.2867
    164  CB        20.5050   11.8970    2.6440 C.3   107  LYS107      0.0271
    165  CG        19.3610   11.0310    2.1360 C.3   107  LYS107      0.0035
    166  CD        19.1020   11.4230    0.7010 C.3   107  LYS107      0.0206
    167  CE        18.3880   10.3210   -0.0890 C.3   107  LYS107      0.1093
    168  NZ        17.0740   10.0270    0.4410 N.3   107  LYS107     -0.1314
@<TRIPOS>BOND
     1   125   123    1
     2   123   122    2
     3   123   124    1
     4   122   121    1
     5   121   120    1
     6   120   119    1
     7   112   110   ar
     8   112   113   ar
     9    36    35    2
    10   119   116    1
    11   110   108   ar
    12   114   113    1
    13   113   111   ar
    14    35    37   am
    15    35    34    1
    16   159   158    1
    17   108   107    1
    18   108   109   ar
    19   116   117    1
    20   116   115    1
    21   107   104    1
    22   118   117    1
    23   111   109   ar
    24    34    33    1
    25   106   105    2
    26   158   157    1
    27    27    28    1
    28    27    26    1
    29    23    22    2
    30    25    24    1
    31    25    26    1
    32   167   168    1
    33   167   166    1
    34   104   103    1
    35   104   105    1
    36    33    30    1
    37   103    94   am
    38    22    21    1
    39    24    21    1
    40   101   100    1
    41   151   149    1
    42    62    60    1
    43   157   156    1
    44    29    30    1
    45   166   165    1
    46    21    20    1
    47    30    31    1
    48    96    93    1
    49    96    97    1
    50    93    94    1
    51    93    92    1
    52    94    95    2
    53    98    97    1
    54    98    99    1
    55   148   149    1
    56   148   150    1
    57   148   145    1
    58   100    99    2
    59   100   102    1
    60    61    60    1
    61    60    59    1
    62    88    87    2
    63   156   153    1
    64    18    19   ar
    65    18    16   ar
    66   147   146    2
    67   129   128    2
    68    19    17   ar
    69    32    31    2
    70   165   164    1
    71    91    89    1
    72    31    38   am
    73    92    87   am
    74   144   145    1
    75   144   137   am
    76    73    71    1
    77    87    86    1
    78   145   146    1
    79   164   161    1
    80   131   132    1
    81   131   130    2
    82    72    71    1
    83   132   133   ar
    84   132   134   ar
    85   140   141    1
    86   140   139    1
    87    71    70    2
    88    16    14   ar
    89    59    56    1
    90   128   135   am
    91   128   127    1
    92   153   152    1
    93   153   154    1
    94   136   137    1
    95   136   135    1
    96   136   139    1
    97    17    15   ar
    98   126   127    1
    99    38    39    1
   100   137   138    2
   101    89    86    1
   102    89    90    1
   103   141   142    1
   104    70    69    1
   105    86    85    1
   106   127   130    1
   107   161   160    1
   108   161   162    1
   109    69    68    1
   110    56    55    1
   111    56    57    1
   112    14    15   ar
   113    14    13    1
   114   154   155    2
   115    39    42    1
   116    39    40    1
   117    68    67    1
   118   142   143    1
   119    42    43    2
   120    12    11    2
   121    43    44    1
   122   162   163    2
   123    85    76   am
   124    11    10    1
   125    13    10    1
   126    57    58    2
   127    44    46   ar
   128    44    45   ar
   129    67    64    1
   130    40    41    2
   131    40    47   am
   132    77    76    2
   133    76    75    1
   134    10     9    1
   135    64    63    1
   136    64    65    1
   137    47    48    1
   138    84    82    1
   139    83    82    1
   140    74    75    1
   141     7     6    1
   142     7     8    1
   143    75    78    1
   144    82    81    2
   145    65    66    2
   146    78    79    1
   147    48    51    1
   148    48    49    1
   149    79    80    1
   150     6     5    1
   151    81    80    1
   152     4     3    2
   153    51    52    1
   154    49    50    2
   155     5     2    1
   156     3     2    1
   157     2     1    1
   158    52    53    1
   159    52    54    1
