@<TRIPOS>MOLECULE
tmp/3hbfA01.pdb
 178 174 0 0 0
SMALL
GASTEIGER

@<TRIPOS>ATOM
      1  N         29.9740   -2.3530   11.4350 N.3    10  PHE10      -0.1241
      2  CA        29.8010   -3.6360   10.7420 C.3    10  PHE10       0.1605
      3  C         30.2170   -3.3560    9.3000 C.2    10  PHE10       0.2264
      4  O         29.6590   -2.4770    8.6370 O.2    10  PHE10      -0.2867
      5  CB        28.3380   -4.0890   10.7950 C.3    10  PHE10       0.0534
      6  CG        28.1440   -5.5370   10.4270 C.ar   10  PHE10      -0.0203
      7  CD1       28.7710   -6.5420   11.1660 C.ar   10  PHE10      -0.0042
      8  CD2       27.3390   -5.8950    9.3510 C.ar   10  PHE10      -0.0042
      9  CE1       28.5980   -7.8880   10.8400 C.ar   10  PHE10      -0.0003
     10  CE2       27.1580   -7.2420    9.0120 C.ar   10  PHE10      -0.0003
     11  CZ        27.7910   -8.2380    9.7620 C.ar   10  PHE10      -0.0000
     12  N         29.6600   -4.9630    6.5310 N.3    12  PHE12      -0.1241
     13  CA        28.8260   -5.4620    5.4440 C.3    12  PHE12       0.1605
     14  C         27.4480   -4.8090    5.3650 C.2    12  PHE12       0.2264
     15  O         26.8850   -4.3970    6.3820 O.2    12  PHE12      -0.2867
     16  CB        28.6940   -6.9780    5.5880 C.3    12  PHE12       0.0534
     17  CG        30.0100   -7.6640    5.7990 C.ar   12  PHE12      -0.0203
     18  CD1       30.8950   -7.8330    4.7380 C.ar   12  PHE12      -0.0042
     19  CD2       30.3970   -8.0780    7.0680 C.ar   12  PHE12      -0.0042
     20  CE1       32.1640   -8.4060    4.9380 C.ar   12  PHE12      -0.0003
     21  CE2       31.6450   -8.6460    7.2730 C.ar   12  PHE12      -0.0003
     22  CZ        32.5340   -8.8090    6.2020 C.ar   12  PHE12      -0.0000
     23  N         25.5710   -0.4990    6.8080 N.3    15  HIS15      -0.1241
     24  CA        25.7310   -0.3780    8.2460 C.3    15  HIS15       0.1621
     25  C         26.8000    0.6260    8.6490 C.2    15  HIS15       0.2264
     26  O         26.5610    1.4580    9.5120 O.2    15  HIS15      -0.2867
     27  CB        26.0610   -1.7570    8.8370 C.3    15  HIS15       0.0745
     28  CG        24.8710   -2.6520    8.9520 C.ar   15  HIS15       0.0817
     29  ND1       24.1980   -2.8360   10.1400 N.ar   15  HIS15      -0.2268
     30  CD2       24.1750   -3.3400    8.0140 C.ar   15  HIS15       0.1154
     31  CE1       23.1350   -3.5920    9.9300 C.ar   15  HIS15       0.1986
     32  NE2       23.0980   -3.9120    8.6480 N.ar   15  HIS15      -0.2212
     33  N         28.3190  -15.0910    1.7950 N.3    78  ARG78      -0.1245
     34  CA        28.1440  -14.9060    3.2340 C.3    78  ARG78       0.1563
     35  C         29.3900  -15.4140    3.9700 C.2    78  ARG78       0.2260
     36  O         29.5970  -15.1300    5.1530 O.2    78  ARG78      -0.2867
     37  CB        26.9060  -15.6740    3.7120 C.3    78  ARG78       0.0307
     38  CG        25.6090  -15.1470    3.1200 C.3    78  ARG78       0.0489
     39  CD        24.3920  -15.9670    3.5300 C.3    78  ARG78       0.2205
     40  NE        23.1550  -15.2530    3.2040 N.pl3  78  ARG78      -0.0865
     41  CZ        21.9430  -15.6020    3.6310 C.cat  78  ARG78       0.5346
     42  NH1       21.7900  -16.6680    4.4060 N.pl3  78  ARG78       0.1354
     43  NH2       20.8870  -14.8700    3.3020 N.pl3  78  ARG78       0.1354
     44  N         31.5600  -12.8790    5.6200 N.3    81  ILE81      -0.1231
     45  CA        30.8380  -12.2830    6.7440 C.3    81  ILE81       0.1692
     46  C         31.0200  -13.2120    7.9480 C.2    81  ILE81       0.2592
     47  O         31.3470  -12.7720    9.0520 O.2    81  ILE81      -0.2718
     48  CB        29.3110  -12.1350    6.4460 C.3    81  ILE81       0.0266
     49  CG1       29.0570  -11.0350    5.3980 C.3    81  ILE81       0.0019
     50  CG2       28.5660  -11.7790    7.7180 C.3    81  ILE81       0.0020
     51  CD1       29.5990  -11.3460    4.0320 C.3    81  ILE81       0.0001
     52  N         30.8080  -14.5040    7.7250 N.am   82  PHE82      -0.1976
     53  CA        30.9630  -15.4860    8.7880 C.3    82  PHE82       0.1639
     54  C         32.3940  -15.4470    9.3240 C.2    82  PHE82       0.2290
     55  O         32.6050  -15.4860   10.5330 O.2    82  PHE82      -0.2864
     56  CB        30.6320  -16.8910    8.2670 C.3    82  PHE82       0.0560
     57  CG        29.1860  -17.0790    7.8960 C.ar   82  PHE82      -0.0200
     58  CD1       28.7930  -18.1600    7.1080 C.ar   82  PHE82      -0.0042
     59  CD2       28.2130  -16.1790    8.3320 C.ar   82  PHE82      -0.0042
     60  CE1       27.4400  -18.3460    6.7530 C.ar   82  PHE82      -0.0003
     61  CE2       26.8600  -16.3500    7.9850 C.ar   82  PHE82      -0.0003
     62  CZ        26.4760  -17.4350    7.1950 C.ar   82  PHE82      -0.0000
     63  N         24.4520   -4.9060   16.1620 N.3   115  PHE115     -0.1241
     64  CA        24.8180   -6.3070   15.8980 C.3   115  PHE115      0.1605
     65  C         25.9100   -6.7530   16.8850 C.2   115  PHE115      0.2264
     66  O         25.9680   -7.9150   17.2760 O.2   115  PHE115     -0.2867
     67  CB        25.3920   -6.4820   14.4730 C.3   115  PHE115      0.0534
     68  CG        24.3610   -6.4750   13.3650 C.ar  115  PHE115     -0.0203
     69  CD1       22.9920   -6.4380   13.6420 C.ar  115  PHE115     -0.0042
     70  CD2       24.7700   -6.5460   12.0280 C.ar  115  PHE115     -0.0042
     71  CE1       22.0410   -6.4760   12.5990 C.ar  115  PHE115     -0.0003
     72  CE2       23.8280   -6.5840   10.9770 C.ar  115  PHE115     -0.0003
     73  CZ        22.4590   -6.5500   11.2720 C.ar  115  PHE115     -0.0000
     74  N         20.9500    0.4730   16.2560 N.3   134  TRP134     -0.1241
     75  CA        20.2540   -0.4940   15.4140 C.3   134  TRP134      0.1605
     76  C         19.9480    0.3110   14.1570 C.2   134  TRP134      0.2264
     77  O         19.2070    1.2980   14.2080 O.2   134  TRP134     -0.2867
     78  CB        18.9550   -0.9700   16.0750 C.3   134  TRP134      0.0550
     79  CG        18.1160   -1.8830   15.2020 C.ar  134  TRP134      0.0003
     80  CD1       16.9490   -1.5660   14.5750 C.ar  134  TRP134      0.0946
     81  CD2       18.3970   -3.2450   14.8590 C.ar  134  TRP134      0.0152
     82  NE1       16.4790   -2.6450   13.8580 N.ar  134  TRP134     -0.2442
     83  CE2       17.3470   -3.6900   14.0160 C.ar  134  TRP134      0.0810
     84  CE3       19.4360   -4.1360   15.1790 C.ar  134  TRP134      0.0012
     85  CZ2       17.3050   -4.9890   13.4860 C.ar  134  TRP134      0.0191
     86  CZ3       19.3940   -5.4290   14.6520 C.ar  134  TRP134      0.0001
     87  CH2       18.3330   -5.8380   13.8140 C.ar  134  TRP134      0.0015
     88  N         18.2590   -0.7050   11.5110 N.3   136  ALA136     -0.1245
     89  CA        17.0160   -1.0720   10.8300 C.3   136  ALA136      0.1562
     90  C         15.7810   -0.5780   11.5990 C.2   136  ALA136      0.2260
     91  O         15.9000    0.2830   12.4640 O.2   136  ALA136     -0.2867
     92  CB        16.9550   -2.5920   10.6200 C.3   136  ALA136      0.0290
     93  N         11.6630   -5.0110   13.4770 N.3   140  SER140     -0.1217
     94  CA        12.5910   -6.1500   13.4080 C.3   140  SER140      0.1889
     95  C         13.3510   -6.2850   14.7230 C.2   140  SER140      0.2288
     96  O         13.5440   -7.3980   15.2160 O.2   140  SER140     -0.2866
     97  CB        13.5890   -6.0130   12.2420 C.3   140  SER140      0.2089
     98  OG        14.1610   -4.7150   12.1980 O.3   140  SER140     -0.2183
     99  N         13.7870   -9.4360   17.3730 N.3   144  HIS144     -0.1241
    100  CA        15.0090  -10.0660   17.8660 C.3   144  HIS144      0.1621
    101  C         15.0180  -10.1420   19.3770 C.2   144  HIS144      0.2264
    102  O         15.4770  -11.1230   19.9520 O.2   144  HIS144     -0.2867
    103  CB        16.2390   -9.3330   17.3540 C.3   144  HIS144      0.0745
    104  CG        16.4700   -9.5500   15.8950 C.ar  144  HIS144      0.0817
    105  ND1       16.6940  -10.8020   15.3680 N.ar  144  HIS144     -0.2268
    106  CD2       16.4030   -8.7010   14.8410 C.ar  144  HIS144      0.1154
    107  CE1       16.7520  -10.7190   14.0500 C.ar  144  HIS144      0.1986
    108  NE2       16.5770   -9.4540   13.7050 N.ar  144  HIS144     -0.2212
    109  N         12.4150  -12.3260   10.4500 N.3   180  PRO180     -0.2102
    110  CA        13.7500  -11.9390    9.9810 C.3   180  PRO180      0.1504
    111  C         14.5580  -13.2270   10.0510 C.2   180  PRO180      0.2575
    112  O         14.3950  -14.0060   10.9920 O.2   180  PRO180     -0.2718
    113  CB        14.1950  -10.9260   11.0270 C.3   180  PRO180      0.0282
    114  CG        12.9040  -10.2700   11.4260 C.3   180  PRO180      0.0208
    115  CD        11.9370  -11.4300   11.5200 C.3   180  PRO180      0.0893
    116  N         15.4110  -13.4880    9.0690 N.am  181  GLU181     -0.1980
    117  CA        16.1560  -14.7390    9.1250 C.3   181  GLU181      0.1602
    118  C         17.0660  -14.8450   10.3420 C.2   181  GLU181      0.2287
    119  O         17.7450  -13.8870   10.7090 O.2   181  GLU181     -0.2864
    120  CB        16.9520  -14.9730    7.8360 C.3   181  GLU181      0.0415
    121  CG        17.6190  -13.7700    7.2250 C.3   181  GLU181      0.1163
    122  CD        18.6400  -14.1650    6.1560 C.2   181  GLU181      0.3649
    123  OE1       19.1200  -13.2770    5.4370 O.co2 181  GLU181     -0.2457
    124  OE2       18.9710  -15.3680    6.0430 O.co2 181  GLU181     -0.2457
    125  N         23.6820  -20.4560   11.8770 N.3   189  VAL189     -0.1245
    126  CA        24.7410  -19.6790   11.2470 C.3   189  VAL189      0.1561
    127  C         25.2300  -18.6020   12.2260 C.2   189  VAL189      0.2260
    128  O         24.4850  -18.1530   13.0970 O.2   189  VAL189     -0.2867
    129  CB        24.2570  -19.0110    9.9350 C.3   189  VAL189      0.0252
    130  CG1       23.7520  -20.0770    8.9730 C.3   189  VAL189      0.0019
    131  CG2       23.1700  -17.9970   10.2220 C.3   189  VAL189      0.0019
    132  N         25.5890  -15.5190   11.9150 N.3   191  PHE191     -0.1227
    133  CA        24.7760  -14.3200   11.8960 C.3   191  PHE191      0.1736
    134  C         23.6360  -14.4130   12.9060 C.2   191  PHE191      0.2595
    135  O         23.4120  -13.4900   13.6940 O.2   191  PHE191     -0.2718
    136  CB        24.2080  -14.0670   10.5040 C.3   191  PHE191      0.0547
    137  CG        24.1420  -12.6170   10.1510 C.ar  191  PHE191     -0.0202
    138  CD1       25.1180  -12.0420    9.3430 C.ar  191  PHE191     -0.0042
    139  CD2       23.1490  -11.8040   10.6930 C.ar  191  PHE191     -0.0042
    140  CE1       25.1130  -10.6770    9.0810 C.ar  191  PHE191     -0.0003
    141  CE2       23.1300  -10.4470   10.4440 C.ar  191  PHE191     -0.0003
    142  CZ        24.1170   -9.8720    9.6340 C.ar  191  PHE191     -0.0000
    143  N         22.9280  -15.5360   12.8870 N.am  192  ALA192     -0.1980
    144  CA        21.8010  -15.7570   13.7910 C.3   192  ALA192      0.1597
    145  C         22.2280  -15.7480   15.2620 C.2   192  ALA192      0.2287
    146  O         21.5550  -15.1500   16.1090 O.2   192  ALA192     -0.2864
    147  CB        21.1110  -17.0750   13.4360 C.3   192  ALA192      0.0319
    148  N         22.7910  -12.0710   16.3790 N.3   195  LEU195     -0.1245
    149  CA        21.5470  -11.3290   16.6240 C.3   195  LEU195      0.1561
    150  C         20.8410  -11.8250   17.8970 C.2   195  LEU195      0.2260
    151  O         20.3360  -11.0200   18.6880 O.2   195  LEU195     -0.2867
    152  CB        20.6000  -11.4660   15.4240 C.3   195  LEU195      0.0270
    153  CG        21.1100  -10.8530   14.1200 C.3   195  LEU195      0.0019
    154  CD1       20.2850  -11.3510   12.9490 C.3   195  LEU195      0.0001
    155  CD2       21.0660   -9.3240   14.2300 C.3   195  LEU195      0.0001
    156  N         16.1640  -11.1850    1.7820 N.3   363  PHE363     -0.1227
    157  CA        16.7030  -11.7970    2.9880 C.3   363  PHE363      0.1736
    158  C         16.6670  -10.8670    4.1910 C.2   363  PHE363      0.2596
    159  O         16.1010   -9.7820    4.1230 O.2   363  PHE363     -0.2718
    160  CB        18.1380  -12.2810    2.7100 C.3   363  PHE363      0.0547
    161  CG        19.1440  -11.1750    2.5280 C.ar  363  PHE363     -0.0202
    162  CD1       19.9010  -10.7130    3.6140 C.ar  363  PHE363     -0.0042
    163  CD2       19.3560  -10.6080    1.2730 C.ar  363  PHE363     -0.0042
    164  CE1       20.8620   -9.7010    3.4540 C.ar  363  PHE363     -0.0003
    165  CE2       20.3130   -9.5940    1.0980 C.ar  363  PHE363     -0.0003
    166  CZ        21.0700   -9.1420    2.1970 C.ar  363  PHE363     -0.0000
    167  N         17.2640  -11.3140    5.2940 N.am  364  GLY364     -0.1942
    168  CA        17.3080  -10.5190    6.5080 C.3   364  GLY364      0.2014
    169  C         15.9640  -10.0650    7.0410 C.2   364  GLY364      0.2638
    170  O         15.0740  -10.8750    7.2490 O.2   364  GLY364     -0.2714
    171  N         15.8240   -8.7590    7.2450 N.am  365  ASP365     -0.1971
    172  CA        14.5990   -8.1440    7.7660 C.3   365  ASP365      0.1709
    173  C         13.6550   -7.6960    6.6540 C.2   365  ASP365      0.2293
    174  O         12.5930   -7.1340    6.9330 O.2   365  ASP365     -0.2864
    175  CB        14.9620   -6.9030    8.6030 C.3   365  ASP365      0.1436
    176  CG        15.6950   -5.8370    7.7780 C.2   365  ASP365      0.3671
    177  OD1       16.5220   -6.2070    6.9320 O.co2 365  ASP365     -0.2456
    178  OD2       15.4640   -4.6290    7.9720 O.co2 365  ASP365     -0.2456
@<TRIPOS>BOND
     1   165   163   ar
     2   165   166   ar
     3   163   161   ar
     4   156   157    1
     5    33    34    1
     6   166   164   ar
     7   161   160    1
     8   161   162   ar
     9   160   157    1
    10   157   158    1
    11    38    39    1
    12    38    37    1
    13    40    39    1
    14    40    41    2
    15    34    37    1
    16    34    35    1
    17    43    41    1
    18   164   162   ar
    19    41    42    1
    20    35    36    2
    21    51    49    1
    22   159   158    2
    23   158   167   am
    24    18    20   ar
    25    18    17   ar
    26    20    22   ar
    27   167   168    1
    28    14    13    1
    29    14    15    2
    30    49    48    1
    31   123   122   ar
    32    13    16    1
    33    13    12    1
    34    16    17    1
    35    44    45    1
    36    17    19   ar
    37   124   122   ar
    38   122   121    1
    39    22    21   ar
    40    48    45    1
    41    48    50    1
    42   168   169    1
    43   173   174    2
    44   173   172    1
    45    45    46    1
    46    60    58   ar
    47    60    62   ar
    48    23    24    1
    49   177   176   ar
    50   169   171   am
    51   169   170    2
    52    19    21   ar
    53    58    57   ar
    54    62    61   ar
    55   121   120    1
    56   171   172    1
    57    52    46   am
    58    52    53    1
    59   172   175    1
    60   176   178   ar
    61   176   175    1
    62   120   117    1
    63    57    56    1
    64    57    59   ar
    65    46    47    2
    66    61    59   ar
    67    30    32   ar
    68    30    28   ar
    69    24    25    1
    70    24    27    1
    71    56    53    1
    72     4     3    2
    73    32    31   ar
    74    25    26    2
    75    53    54    1
    76    27    28    1
    77    28    29   ar
    78   130   129    1
    79    10     8   ar
    80    10    11   ar
    81   116   117    1
    82   116   111   am
    83   140   138   ar
    84   140   142   ar
    85   117   118    1
    86     3     2    1
    87    54    55    2
    88   138   137   ar
    89     8     6   ar
    90   142   141   ar
    91    11     9   ar
    92    31    29   ar
    93   129   131    1
    94   129   126    1
    95   110   111    1
    96   110   109    1
    97   110   113    1
    98   111   112    2
    99   137   136    1
   100   137   139   ar
   101   118   119    2
   102     6     5    1
   103     6     7   ar
   104   141   139   ar
   105   109   115    1
   106   136   133    1
   107    92    89    1
   108     2     5    1
   109     2     1    1
   110    89    88    1
   111    89    90    1
   112     9     7   ar
   113    72    73   ar
   114    72    70   ar
   115   113   114    1
   116   126   125    1
   117   126   127    1
   118    73    71   ar
   119   114   115    1
   120    90    91    2
   121   133   132    1
   122   133   134    1
   123    70    68   ar
   124    98    97    1
   125   127   128    2
   126    97    94    1
   127    71    69   ar
   128   143   134   am
   129   143   144    1
   130   134   135    2
   131   154   153    1
   132    68    69   ar
   133    68    67    1
   134    94    93    1
   135    94    95    1
   136   147   144    1
   137    85    87   ar
   138    85    83   ar
   139   108   107   ar
   140   108   106   ar
   141   144   145    1
   142    87    86   ar
   143    82    83   ar
   144    82    80   ar
   145    83    81   ar
   146   107   105   ar
   147   153   155    1
   148   153   152    1
   149    76    77    2
   150    76    75    1
   151    67    64    1
   152    80    79   ar
   153    86    84   ar
   154    95    96    2
   155   106   104   ar
   156    81    84   ar
   157    81    79   ar
   158    79    78    1
   159   145   146    2
   160   105   104   ar
   161    75    78    1
   162    75    74    1
   163   152   149    1
   164   104   103    1
   165    64    63    1
   166    64    65    1
   167   148   149    1
   168   149   150    1
   169    65    66    2
   170   103   100    1
   171    99   100    1
   172   100   101    1
   173   150   151    2
   174   101   102    2
