@<TRIPOS>MOLECULE
tmp/3hbgA00.pdb
 167 164 0 0 0
SMALL
GASTEIGER

@<TRIPOS>ATOM
      1  N         26.6400   -4.0350  -21.7050 N.3    42  PHE42      -0.1227
      2  CA        25.2630   -4.2650  -21.2700 C.3    42  PHE42       0.1736
      3  C         25.0720   -3.6770  -19.8690 C.2    42  PHE42       0.2595
      4  O         25.8840   -3.9390  -18.9770 O.2    42  PHE42      -0.2718
      5  CB        24.9780   -5.7740  -21.2660 C.3    42  PHE42       0.0547
      6  CG        23.5080   -6.1340  -21.3470 C.ar   42  PHE42      -0.0202
      7  CD1       22.6830   -6.0460  -20.2230 C.ar   42  PHE42      -0.0042
      8  CD2       22.9570   -6.5930  -22.5530 C.ar   42  PHE42      -0.0042
      9  CE1       21.3230   -6.3920  -20.2960 C.ar   42  PHE42      -0.0003
     10  CE2       21.6010   -6.9470  -22.6360 C.ar   42  PHE42      -0.0003
     11  CZ        20.7840   -6.8470  -21.5060 C.ar   42  PHE42      -0.0000
     12  N         24.0230   -2.8750  -19.6770 N.am   43  PHE43      -0.1962
     13  CA        23.8160   -2.2050  -18.3810 C.3    43  PHE43       0.1771
     14  C         23.6970   -3.2430  -17.2670 C.2    43  PHE43       0.2620
     15  O         23.1970   -4.3550  -17.4800 O.2    43  PHE43      -0.2715
     16  CB        22.6070   -1.2420  -18.4020 C.3    43  PHE43       0.0574
     17  CG        21.2950   -1.8830  -18.0230 C.ar   43  PHE43      -0.0200
     18  CD1       20.5590   -2.6050  -18.9670 C.ar   43  PHE43      -0.0042
     19  CD2       20.7900   -1.7530  -16.7280 C.ar   43  PHE43      -0.0042
     20  CE1       19.3530   -3.2050  -18.6220 C.ar   43  PHE43      -0.0003
     21  CE2       19.5740   -2.3440  -16.3650 C.ar   43  PHE43      -0.0003
     22  CZ        18.8510   -3.0700  -17.3120 C.ar   43  PHE43      -0.0000
     23  N         24.1850   -2.8880  -16.0870 N.am   44  THR44      -0.1937
     24  CA        24.2140   -3.8240  -14.9740 C.3    44  THR44       0.2028
     25  C         23.4490   -3.2310  -13.8020 C.2    44  THR44       0.2642
     26  O         23.7060   -2.0920  -13.3970 O.2    44  THR44      -0.2714
     27  CB        25.6680   -4.1560  -14.5570 C.3    44  THR44       0.1808
     28  OG1       26.3810   -4.6970  -15.6820 O.3    44  THR44      -0.2208
     29  CG2       25.6860   -5.1810  -13.4140 C.3    44  THR44       0.0379
     30  N         22.5130   -4.0070  -13.2610 N.am   45  ARG45      -0.1963
     31  CA        21.7700   -3.5910  -12.0770 C.3    45  ARG45       0.1729
     32  C         21.8540   -4.7200  -11.0540 C.2    45  ARG45       0.2616
     33  O         21.2180   -5.7700  -11.2260 O.2    45  ARG45      -0.2715
     34  CB        20.3060   -3.2670  -12.4320 C.3    45  ARG45       0.0348
     35  CG        19.5490   -2.4060  -11.3860 C.3    45  ARG45       0.0492
     36  CD        19.3130   -3.1790  -10.0870 C.3    45  ARG45       0.2205
     37  NE        18.4230   -2.4780   -9.1630 N.pl3  45  ARG45      -0.0865
     38  CZ        18.8240   -1.7940   -8.0940 C.cat  45  ARG45       0.5346
     39  NH1       20.1160   -1.6990   -7.7930 N.pl3  45  ARG45       0.1354
     40  NH2       17.9220   -1.2040   -7.3170 N.pl3  45  ARG45       0.1354
     41  N         22.6670   -4.4960  -10.0200 N.am   46  ASN46      -0.1958
     42  CA        22.8270   -5.4120   -8.8880 C.3    46  ASN46       0.1819
     43  C         22.3060   -4.7780   -7.5970 C.2    46  ASN46       0.2621
     44  O         22.6480   -3.6330   -7.2750 O.2    46  ASN46      -0.2715
     45  CB        24.3060   -5.7720   -8.6760 C.3    46  ASN46       0.1195
     46  CG        24.9400   -6.4610   -9.8790 C.2    46  ASN46       0.2630
     47  OD1       24.2530   -6.9480  -10.7860 O.2    46  ASN46      -0.2716
     48  ND2       26.2680   -6.5130   -9.8830 N.am   46  ASN46      -0.0877
     49  N         21.4930   -5.5280   -6.8560 N.am   47  HIS47      -0.1973
     50  CA        21.0300   -5.0970   -5.5310 C.3    47  HIS47       0.1656
     51  C         22.0700   -5.4140   -4.4570 C.2    47  HIS47       0.2291
     52  O         22.1350   -4.7430   -3.4150 O.2    47  HIS47      -0.2864
     53  CB        19.7100   -5.7910   -5.1650 C.3    47  HIS47       0.0771
     54  CG        18.5080   -5.2320   -5.8650 C.ar   47  HIS47       0.0820
     55  ND1       18.1870   -5.5530   -7.1660 N.ar   47  HIS47      -0.2267
     56  CD2       17.5360   -4.3900   -5.4340 C.ar   47  HIS47       0.1154
     57  CE1       17.0810   -4.9180   -7.5160 C.ar   47  HIS47       0.1986
     58  NE2       16.6630   -4.2090   -6.4810 N.ar   47  HIS47      -0.2212
     59  N         16.3010   -5.8070  -22.2130 N.3    90  LEU90      -0.1245
     60  CA        15.9750   -5.6160  -20.8090 C.3    90  LEU90       0.1561
     61  C         16.0270   -4.1250  -20.5090 C.2    90  LEU90       0.2260
     62  O         16.9730   -3.4540  -20.9020 O.2    90  LEU90      -0.2867
     63  CB        16.9620   -6.3690  -19.9100 C.3    90  LEU90       0.0270
     64  CG        16.9670   -7.9000  -19.9820 C.3    90  LEU90       0.0019
     65  CD1       18.0120   -8.4460  -18.9950 C.3    90  LEU90       0.0001
     66  CD2       15.5860   -8.4780  -19.6900 C.3    90  LEU90       0.0001
     67  N         15.4450   -1.3660  -17.2220 N.3    92  SER92      -0.1202
     68  CA        15.1610   -1.0370  -15.8260 C.3    92  SER92       0.2020
     69  C         13.9080   -0.1760  -15.6780 C.2    92  SER92       0.2618
     70  O         13.6590    0.7150  -16.4990 O.2    92  SER92      -0.2717
     71  CB        16.3560   -0.2870  -15.2210 C.3    92  SER92       0.2103
     72  OG        16.0120    0.3310  -13.9840 O.3    92  SER92      -0.2182
     73  N         13.1340   -0.4340  -14.6180 N.am   93  ALA93      -0.1979
     74  CA        11.9860    0.4060  -14.2420 C.3    93  ALA93       0.1597
     75  C         12.3890    1.8770  -14.0860 C.2    93  ALA93       0.2287
     76  O         11.5790    2.7810  -14.2930 O.2    93  ALA93      -0.2864
     77  CB        11.3440   -0.1100  -12.9300 C.3    93  ALA93       0.0319
     78  N         16.9860  -15.7320   -6.3100 N.3   149  GLY149     -0.1225
     79  CA        18.4000  -15.6600   -6.6530 C.3   149  GLY149      0.1811
     80  C         19.2900  -16.1860   -5.5400 C.2   149  GLY149      0.2280
     81  O         18.8340  -16.3870   -4.4060 O.2   149  GLY149     -0.2866
     82  N         21.7790  -14.4430   -4.4710 N.3   151  ASP151     -0.1239
     83  CA        22.1080  -13.2420   -3.6920 C.3   151  ASP151      0.1674
     84  C         21.0350  -12.9550   -2.6390 C.2   151  ASP151      0.2266
     85  O         19.8510  -12.8530   -2.9560 O.2   151  ASP151     -0.2867
     86  CB        22.3540  -12.0140   -4.6000 C.3   151  ASP151      0.1410
     87  CG        21.2110  -11.7420   -5.5740 C.2   151  ASP151      0.3668
     88  OD1       20.5090  -12.6970   -5.9780 O.co2 151  ASP151     -0.2456
     89  OD2       21.0350  -10.5590   -5.9620 O.co2 151  ASP151     -0.2456
     90  N         17.0340  -12.2260   -3.2310 N.3   159  TYR159     -0.1241
     91  CA        16.3480  -11.4430   -4.2590 C.3   159  TYR159      0.1605
     92  C         15.3650  -12.3730   -4.9550 C.2   159  TYR159      0.2264
     93  O         15.6920  -13.5240   -5.2760 O.2   159  TYR159     -0.2867
     94  CB        17.2890  -10.8140   -5.2960 C.3   159  TYR159      0.0534
     95  CG        16.5140   -9.9700   -6.2980 C.ar  159  TYR159     -0.0201
     96  CD1       16.1700   -8.6510   -5.9990 C.ar  159  TYR159     -0.0009
     97  CD2       16.0710  -10.5120   -7.5120 C.ar  159  TYR159     -0.0009
     98  CE1       15.4230   -7.8780   -6.8910 C.ar  159  TYR159      0.0417
     99  CE2       15.3310   -9.7390   -8.4230 C.ar  159  TYR159      0.0417
    100  CZ        15.0160   -8.4270   -8.1030 C.ar  159  TYR159      0.1957
    101  OH        14.2810   -7.6500   -8.9730 O.3   159  TYR159     -0.2866
    102  N         25.8500  -10.7080  -14.9970 N.3   190  HIS190     -0.1241
    103  CA        24.5560  -10.9120  -15.6450 C.3   190  HIS190      0.1621
    104  C         23.8900  -12.2340  -15.2910 C.2   190  HIS190      0.2264
    105  O         22.9370  -12.6490  -15.9540 O.2   190  HIS190     -0.2867
    106  CB        24.6830  -10.6940  -17.1560 C.3   190  HIS190      0.0745
    107  CG        25.1710   -9.3230  -17.4960 C.ar  190  HIS190      0.0817
    108  ND1       24.3890   -8.1990  -17.3250 N.ar  190  HIS190     -0.2268
    109  CD2       26.3830   -8.8830  -17.9100 C.ar  190  HIS190      0.1154
    110  CE1       25.0910   -7.1270  -17.6530 C.ar  190  HIS190      0.1986
    111  NE2       26.3030   -7.5150  -18.0140 N.ar  190  HIS190     -0.2212
    112  N         20.1670  -17.3740  -15.4440 N.3   195  ARG195     -0.1245
    113  CA        19.2010  -16.3400  -15.0850 C.3   195  ARG195      0.1563
    114  C         17.8740  -16.6470  -15.7680 C.2   195  ARG195      0.2260
    115  O         17.8360  -17.3770  -16.7690 O.2   195  ARG195     -0.2867
    116  CB        19.6870  -14.9560  -15.5270 C.3   195  ARG195      0.0307
    117  CG        19.4730  -14.6610  -17.0270 C.3   195  ARG195      0.0489
    118  CD        19.8240  -13.2190  -17.3920 C.3   195  ARG195      0.2205
    119  NE        19.0500  -12.2200  -16.6460 N.pl3 195  ARG195     -0.0865
    120  CZ        19.4080  -10.9410  -16.5370 C.cat 195  ARG195      0.5346
    121  NH1       20.5170  -10.5070  -17.1320 N.pl3 195  ARG195      0.1354
    122  NH2       18.6640  -10.0880  -15.8400 N.pl3 195  ARG195      0.1354
    123  N         12.9060   -5.2850  -16.2860 N.3   203  GLY203     -0.1210
    124  CA        14.1510   -6.0170  -15.9850 C.3   203  GLY203      0.1956
    125  C         14.1670   -6.7150  -14.6320 C.2   203  GLY203      0.2611
    126  O         14.7150   -7.8110  -14.5030 O.2   203  GLY203     -0.2717
    127  N         13.5240   -6.0920  -13.6450 N.am  204  ALA204     -0.1979
    128  CA        13.4180   -6.6170  -12.2710 C.3   204  ALA204      0.1597
    129  C         12.9410   -8.0580  -12.1630 C.2   204  ALA204      0.2287
    130  O         13.2520   -8.7340  -11.1810 O.2   204  ALA204     -0.2864
    131  CB        12.5230   -5.6910  -11.3970 C.3   204  ALA204      0.0319
    132  N         13.6150  -10.5260  -14.3820 N.3   206  SER206     -0.1202
    133  CA        14.5880  -11.4530  -14.9550 C.3   206  SER206      0.2020
    134  C         15.6700  -11.7850  -13.9230 C.2   206  SER206      0.2619
    135  O         16.7820  -11.2510  -13.9690 O.2   206  SER206     -0.2717
    136  CB        15.1730  -10.8930  -16.2590 C.3   206  SER206      0.2103
    137  OG        14.1560  -10.8220  -17.2580 O.3   206  SER206     -0.2182
    138  N         15.3110  -12.6750  -12.9960 N.am  207  VAL207     -0.1965
    139  CA        16.1200  -12.9770  -11.8130 C.3   207  VAL207      0.1727
    140  C         17.4440  -13.6450  -12.1750 C.2   207  VAL207      0.2616
    141  O         17.4700  -14.6850  -12.8470 O.2   207  VAL207     -0.2715
    142  CB        15.3170  -13.8310  -10.7830 C.3   207  VAL207      0.0290
    143  CG1       16.2000  -14.2760   -9.6200 C.3   207  VAL207      0.0023
    144  CG2       14.1150  -13.0300  -10.2490 C.3   207  VAL207      0.0023
    145  N         18.5350  -13.0250  -11.7300 N.am  208  LYS208     -0.1963
    146  CA        19.8900  -13.5040  -11.9870 C.3   208  LYS208      0.1728
    147  C         20.3580  -14.4990  -10.9120 C.2   208  LYS208      0.2616
    148  O         19.8060  -14.5230   -9.8080 O.2   208  LYS208     -0.2715
    149  CB        20.8440  -12.3000  -12.0610 C.3   208  LYS208      0.0311
    150  CG        20.5880  -11.3680  -13.2520 C.3   208  LYS208      0.0038
    151  CD        21.6370  -10.2600  -13.3560 C.3   208  LYS208      0.0206
    152  CE        21.3380   -9.0880  -12.4210 C.3   208  LYS208      0.1093
    153  NZ        22.4370   -8.0730  -12.4750 N.3   208  LYS208     -0.1314
    154  N         21.3780  -15.3010  -11.2360 N.am  209  TRP209     -0.1974
    155  CA        21.9590  -16.2900  -10.2950 C.3   209  TRP209      0.1640
    156  C         20.8550  -17.1690   -9.6950 C.2   209  TRP209      0.2290
    157  O         20.7280  -17.3000   -8.4670 O.2   209  TRP209     -0.2864
    158  CB        22.7760  -15.5840   -9.1880 C.3   209  TRP209      0.0576
    159  CG        23.7000  -14.5310   -9.7410 C.ar  209  TRP209      0.0006
    160  CD1       24.8390  -14.7440  -10.4620 C.ar  209  TRP209      0.0946
    161  CD2       23.5470  -13.1080   -9.6420 C.ar  209  TRP209      0.0152
    162  NE1       25.4080  -13.5440  -10.8180 N.ar  209  TRP209     -0.2442
    163  CE2       24.6310  -12.5230  -10.3350 C.ar  209  TRP209      0.0810
    164  CE3       22.5990  -12.2710   -9.0350 C.ar  209  TRP209      0.0012
    165  CZ2       24.8000  -11.1380  -10.4340 C.ar  209  TRP209      0.0191
    166  CZ3       22.7650  -10.8870   -9.1310 C.ar  209  TRP209      0.0001
    167  CH2       23.8570  -10.3350   -9.8270 C.ar  209  TRP209      0.0015
@<TRIPOS>BOND
     1    10     8   ar
     2    10    11   ar
     3     8     6   ar
     4    59    60    1
     5     1     2    1
     6    11     9   ar
     7     6     5    1
     8     6     7   ar
     9     2     5    1
    10     2     3    1
    11    62    61    2
    12    60    61    1
    13    60    63    1
    14     9     7   ar
    15    64    63    1
    16    64    66    1
    17    64    65    1
    18     3    12   am
    19     3     4    2
    20    12    13    1
    21    18    20   ar
    22    18    17   ar
    23    20    22   ar
    24    16    13    1
    25    16    17    1
    26    13    14    1
    27    17    19   ar
    28   111   109   ar
    29   111   110   ar
    30   109   107   ar
    31   110   108   ar
    32   107   108   ar
    33   107   106    1
    34    15    14    2
    35   118   117    1
    36   118   119    1
    37    22    21   ar
    38    14    23   am
    39   137   136    1
    40    67    68    1
    41   106   103    1
    42   121   120    1
    43   117   116    1
    44   115   114    2
    45    19    21   ar
    46   119   120    2
    47   120   122    1
    48    70    69    2
    49   123   124    1
    50   136   133    1
    51    23    24    1
    52   124   125    1
    53   105   104    2
    54    68    69    1
    55    68    71    1
    56   114   113    1
    57    28    27    1
    58    69    73   am
    59   103   104    1
    60   103   102    1
    61   116   113    1
    62   112   113    1
    63    71    72    1
    64    24    27    1
    65    24    25    1
    66   133   132    1
    67   133   134    1
    68   125   126    2
    69   125   127   am
    70    73    74    1
    71    27    29    1
    72    76    75    2
    73    74    75    1
    74    74    77    1
    75   135   134    2
    76   134   138   am
    77    25    26    2
    78    25    30   am
    79   127   128    1
    80   151   150    1
    81   151   152    1
    82    30    31    1
    83   150   149    1
    84   138   139    1
    85   141   140    2
    86   153   152    1
    87    34    31    1
    88    34    35    1
    89   128   129    1
    90   128   131    1
    91   140   139    1
    92   140   145   am
    93   129   130    2
    94    31    32    1
    95   149   146    1
    96   146   145    1
    97   146   147    1
    98   139   142    1
    99    35    36    1
   100   154   147   am
   101   154   155    1
   102    33    32    2
   103    32    41   am
   104   147   148    2
   105   162   160   ar
   106   162   163   ar
   107    47    46    2
   108   142   144    1
   109   142   143    1
   110   160   159   ar
   111   165   163   ar
   112   165   167   ar
   113   163   161   ar
   114   155   156    1
   115   155   158    1
   116    36    37    1
   117    41    42    1
   118    48    46   am
   119    46    45    1
   120   167   166   ar
   121   159   161   ar
   122   159   158    1
   123   156   157    2
   124   161   164   ar
   125    37    38    2
   126   166   164   ar
   127   101   100    1
   128    42    45    1
   129    42    43    1
   130    99   100   ar
   131    99    97   ar
   132   100    98   ar
   133    38    39    1
   134    38    40    1
   135    43    44    2
   136    43    49   am
   137    57    55   ar
   138    57    58   ar
   139    97    95   ar
   140    55    54   ar
   141    98    96   ar
   142    49    50    1
   143    79    78    1
   144    79    80    1
   145    58    56   ar
   146    95    96   ar
   147    95    94    1
   148    88    87   ar
   149    89    87   ar
   150    54    56   ar
   151    54    53    1
   152    87    86    1
   153    80    81    2
   154    50    53    1
   155    50    51    1
   156    94    91    1
   157    93    92    2
   158    92    91    1
   159    86    83    1
   160    82    83    1
   161    51    52    2
   162    91    90    1
   163    83    84    1
   164    85    84    2
