@<TRIPOS>MOLECULE
tmp/3hbjA00.pdb
 195 191 0 0 0
SMALL
GASTEIGER

@<TRIPOS>ATOM
      1  N         15.1590  -19.7610   20.6550 N.3    15  GLY15      -0.1210
      2  CA        15.8690  -18.6560   20.0500 C.3    15  GLY15       0.1956
      3  C         17.0740  -18.2510   20.8760 C.2    15  GLY15       0.2613
      4  O         17.5240  -18.9870   21.7650 O.2    15  GLY15      -0.2717
      5  N         17.6030  -17.0710   20.5920 N.am   16  THR16      -0.1938
      6  CA        18.7570  -16.5930   21.3320 C.3    16  THR16       0.2028
      7  C         18.2420  -15.7640   22.4940 C.2    16  THR16       0.2642
      8  O         18.2790  -14.5160   22.4810 O.2    16  THR16      -0.2714
      9  CB        19.6770  -15.7580   20.4390 C.3    16  THR16       0.1808
     10  OG1       20.0180  -16.5270   19.2770 O.3    16  THR16      -0.2208
     11  CG2       20.9620  -15.3990   21.2010 C.3    16  THR16       0.0379
     12  N         17.7570  -16.4820   23.5020 N.am   17  HIS17      -0.1973
     13  CA        17.2010  -15.8730   24.6930 C.3    17  HIS17       0.1656
     14  C         17.9250  -16.2980   25.9540 C.2    17  HIS17       0.2291
     15  O         18.2960  -15.4580   26.7780 O.2    17  HIS17      -0.2864
     16  CB        15.7150  -16.2390   24.8050 C.3    17  HIS17       0.0771
     17  CG        14.8240  -15.3450   24.0040 C.ar   17  HIS17       0.0820
     18  ND1       14.1030  -14.3180   24.5720 N.ar   17  HIS17      -0.2267
     19  CD2       14.6350  -15.2450   22.6680 C.ar   17  HIS17       0.1154
     20  CE1       13.5140  -13.6180   23.6210 C.ar   17  HIS17       0.1986
     21  NE2       13.8220  -14.1580   22.4550 N.ar   17  HIS17      -0.2212
     22  N         33.3860  -18.2540   23.3750 N.3   247  LYS247     -0.1245
     23  CA        32.9290  -18.5980   22.0250 C.3   247  LYS247      0.1561
     24  C         33.8650  -18.1320   20.9030 C.2   247  LYS247      0.2260
     25  O         33.4390  -18.0190   19.7480 O.2   247  LYS247     -0.2867
     26  CB        31.5140  -18.0490   21.7600 C.3   247  LYS247      0.0271
     27  CG        30.4320  -18.5560   22.7090 C.3   247  LYS247      0.0035
     28  CD        29.0500  -18.0540   22.2930 C.3   247  LYS247      0.0206
     29  CE        28.6430  -18.6040   20.9300 C.3   247  LYS247      0.1093
     30  NZ        27.2960  -18.1390   20.4940 N.3   247  LYS247     -0.1314
     31  N         29.2790  -11.8850    4.8510 N.3   268  TYR268     -0.1241
     32  CA        28.9390  -12.8140    5.9180 C.3   268  TYR268      0.1605
     33  C         27.4450  -13.0940    5.8080 C.2   268  TYR268      0.2264
     34  O         26.6540  -12.1860    5.5650 O.2   268  TYR268     -0.2867
     35  CB        29.2600  -12.2380    7.3000 C.3   268  TYR268      0.0534
     36  CG        28.8840  -13.1900    8.4110 C.ar  268  TYR268     -0.0201
     37  CD1       27.9750  -12.8160    9.3970 C.ar  268  TYR268     -0.0009
     38  CD2       29.3870  -14.4910    8.4390 C.ar  268  TYR268     -0.0009
     39  CE1       27.5650  -13.7190   10.3810 C.ar  268  TYR268      0.0417
     40  CE2       28.9850  -15.4030    9.4250 C.ar  268  TYR268      0.0417
     41  CZ        28.0670  -15.0030   10.3920 C.ar  268  TYR268      0.1957
     42  OH        27.6490  -15.8910   11.3530 O.3   268  TYR268     -0.2866
     43  N         24.2180  -15.1200    7.7830 N.3   270  SER270     -0.1217
     44  CA        23.7030  -15.7940    8.9730 C.3   270  SER270      0.1889
     45  C         22.2610  -15.3840    9.2090 C.2   270  SER270      0.2288
     46  O         21.9510  -14.2010    9.2250 O.2   270  SER270     -0.2866
     47  CB        24.5320  -15.4450   10.2000 C.3   270  SER270      0.2089
     48  OG        24.1670  -16.2840   11.2810 O.3   270  SER270     -0.2183
     49  N         20.4110  -16.6160   11.9290 N.3   272  GLY272     -0.1210
     50  CA        20.0330  -17.0120   13.2730 C.3   272  GLY272      0.1956
     51  C         20.2450  -18.4640   13.6520 C.2   272  GLY272      0.2613
     52  O         20.6330  -19.3000   12.8340 O.2   272  GLY272     -0.2717
     53  N         19.9600  -18.7590   14.9140 N.am  273  SER273     -0.1938
     54  CA        20.1370  -20.0920   15.4570 C.3   273  SER273      0.2055
     55  C         19.0270  -21.0770   15.0780 C.2   273  SER273      0.2642
     56  O         19.1020  -22.2590   15.4190 O.2   273  SER273     -0.2714
     57  CB        20.2360  -20.0020   16.9810 C.3   273  SER273      0.2130
     58  OG        18.9950  -19.5970   17.5440 O.3   273  SER273     -0.2179
     59  N         18.0080  -20.6050   14.3650 N.am  274  VAL274     -0.1977
     60  CA        16.9000  -21.4820   14.0160 C.3   274  VAL274      0.1596
     61  C         16.4260  -21.4620   12.5640 C.2   274  VAL274      0.2287
     62  O         15.9110  -22.4610   12.0700 O.2   274  VAL274     -0.2864
     63  CB        15.6820  -21.1760   14.9140 C.3   274  VAL274      0.0276
     64  CG1       16.0700  -21.3160   16.3750 C.3   274  VAL274      0.0022
     65  CG2       15.1700  -19.7650   14.6410 C.3   274  VAL274      0.0022
     66  N         26.9680  -19.1360    7.2700 N.3   299  SER299     -0.1217
     67  CA        26.6460  -20.0140    8.3840 C.3   299  SER299      0.1889
     68  C         25.3210  -20.6680    8.0100 C.2   299  SER299      0.2288
     69  O         24.2530  -20.0860    8.2070 O.2   299  SER299     -0.2866
     70  CB        26.4950  -19.2050    9.6740 C.3   299  SER299      0.2089
     71  OG        26.2460  -20.0600   10.7770 O.3   299  SER299     -0.2183
     72  N         23.5960  -24.2810    8.6310 N.3   301  ARG301     -0.1245
     73  CA        22.8530  -24.8650    9.7430 C.3   301  ARG301      0.1563
     74  C         23.1560  -26.3520    9.8560 C.2   301  ARG301      0.2260
     75  O         22.2580  -27.1890    9.7350 O.2   301  ARG301     -0.2867
     76  CB        21.3470  -24.6740    9.5510 C.3   301  ARG301      0.0307
     77  CG        20.5580  -24.5960   10.8560 C.3   301  ARG301      0.0489
     78  CD        20.8370  -23.2910   11.5960 C.3   301  ARG301      0.2205
     79  NE        22.2410  -23.1670   11.9810 N.pl3 301  ARG301     -0.0865
     80  CZ        22.9740  -22.0710   11.8050 C.cat 301  ARG301      0.5346
     81  NH1       22.4420  -20.9900   11.2470 N.pl3 301  ARG301      0.1354
     82  NH2       24.2460  -22.0590   12.1760 N.pl3 301  ARG301      0.1354
     83  N         28.4120  -23.5590   12.2340 N.3   325  TRP325     -0.1227
     84  CA        28.4040  -22.5490   13.2810 C.3   325  TRP325      0.1737
     85  C         29.6750  -21.7440   13.1010 C.2   325  TRP325      0.2595
     86  O         30.7550  -22.3140   12.9960 O.2   325  TRP325     -0.2718
     87  CB        28.3950  -23.2050   14.6590 C.3   325  TRP325      0.0564
     88  CG        27.9650  -22.2770   15.7490 C.ar  325  TRP325      0.0003
     89  CD1       28.6980  -21.8820   16.8310 C.ar  325  TRP325      0.0946
     90  CD2       26.6970  -21.6260   15.8650 C.ar  325  TRP325      0.0152
     91  NE1       27.9630  -21.0230   17.6140 N.ar  325  TRP325     -0.2442
     92  CE2       26.7310  -20.8500   17.0430 C.ar  325  TRP325      0.0810
     93  CE3       25.5320  -21.6240   15.0860 C.ar  325  TRP325      0.0012
     94  CZ2       25.6450  -20.0790   17.4630 C.ar  325  TRP325      0.0191
     95  CZ3       24.4500  -20.8550   15.5040 C.ar  325  TRP325      0.0001
     96  CH2       24.5170  -20.0940   16.6830 C.ar  325  TRP325      0.0015
     97  N         29.5420  -20.4220   13.0590 N.am  326  ALA326     -0.1966
     98  CA        30.6820  -19.5320   12.8590 C.3   326  ALA326      0.1713
     99  C         30.9750  -18.6630   14.0850 C.2   326  ALA326      0.2458
    100  O         30.1820  -18.6210   15.0180 O.2   326  ALA326     -0.2730
    101  CB        30.4100  -18.6330   11.6440 C.3   326  ALA326      0.0333
    102  N         32.1470  -17.9970   14.1110 N.am  327  PRO327     -0.2716
    103  CA        32.5230  -17.1180   15.2250 C.3   327  PRO327      0.1536
    104  C         32.0730  -15.7220   14.7890 C.2   327  PRO327      0.2598
    105  O         32.8870  -14.8320   14.5470 O.2   327  PRO327     -0.2715
    106  CB        34.0410  -17.2630   15.2710 C.3   327  PRO327      0.0310
    107  CG        34.3890  -17.3440   13.8250 C.3   327  PRO327      0.0237
    108  CD        33.3290  -18.3000   13.2760 C.3   327  PRO327      0.0939
    109  N         30.7570  -15.5600   14.6830 N.am  328  GLN328     -0.1964
    110  CA        30.1080  -14.3280   14.2160 C.3   328  GLN328      0.1733
    111  C         30.5140  -12.9820   14.8150 C.2   328  GLN328      0.2616
    112  O         30.6780  -11.9990   14.0820 O.2   328  GLN328     -0.2715
    113  CB        28.5720  -14.4620   14.3320 C.3   328  GLN328      0.0408
    114  CG        27.7990  -13.2560   13.7700 C.3   328  GLN328      0.0908
    115  CD        26.2920  -13.4730   13.7680 C.2   328  GLN328      0.2608
    116  OE1       25.7940  -14.4250   13.1540 O.2   328  GLN328     -0.2717
    117  NE2       25.5540  -12.5920   14.4610 N.am  328  GLN328     -0.0878
    118  N         30.6360  -12.9050   16.1340 N.am  329  VAL329     -0.1977
    119  CA        31.0090  -11.6270   16.7180 C.3   329  VAL329      0.1596
    120  C         32.3890  -11.2080   16.2110 C.2   329  VAL329      0.2287
    121  O         32.5720  -10.0690   15.8010 O.2   329  VAL329     -0.2864
    122  CB        30.9640  -11.6630   18.2660 C.3   329  VAL329      0.0276
    123  CG1       31.3620  -13.0200   18.7670 C.3   329  VAL329      0.0022
    124  CG2       31.8890  -10.5840   18.8360 C.3   329  VAL329      0.0022
    125  N         18.9660  -11.9540    9.2470 N.3   343  HIS343     -0.1241
    126  CA        17.5210  -11.9830    9.4490 C.3   343  HIS343      0.1621
    127  C         17.1700  -10.9020   10.4680 C.2   343  HIS343      0.2264
    128  O         16.0380  -10.8090   10.9410 O.2   343  HIS343     -0.2867
    129  CB        17.0830  -13.3600    9.9640 C.3   343  HIS343      0.0745
    130  CG        17.4320  -13.6160   11.4000 C.ar  343  HIS343      0.0817
    131  ND1       18.6640  -13.3080   11.9360 N.ar  343  HIS343     -0.2268
    132  CD2       16.7170  -14.1800   12.4020 C.ar  343  HIS343      0.1154
    133  CE1       18.6930  -13.6710   13.2050 C.ar  343  HIS343      0.1986
    134  NE2       17.5240  -14.2040   13.5140 N.ar  343  HIS343     -0.2212
    135  N         17.9210  -10.4620   13.6740 N.3   345  GLY345     -0.1210
    136  CA        17.5830  -10.7770   15.0440 C.3   345  GLY345      0.1956
    137  C         18.3240   -9.6850   15.8070 C.2   345  GLY345      0.2612
    138  O         19.3330   -9.1610   15.3080 O.2   345  GLY345     -0.2717
    139  N         17.8480   -9.3310   16.9980 N.am  346  TRP346     -0.1962
    140  CA        18.4810   -8.2740   17.7710 C.3   346  TRP346      0.1771
    141  C         19.9570   -8.5320   18.1360 C.2   346  TRP346      0.2620
    142  O         20.7900   -7.6460   17.9730 O.2   346  TRP346     -0.2715
    143  CB        17.6630   -7.9800   19.0510 C.3   346  TRP346      0.0590
    144  CG        18.0810   -6.6940   19.7480 C.ar  346  TRP346      0.0006
    145  CD1       18.6610   -6.5710   20.9870 C.ar  346  TRP346      0.0946
    146  CD2       18.0220   -5.3650   19.2010 C.ar  346  TRP346      0.0152
    147  NE1       18.9690   -5.2550   21.2350 N.ar  346  TRP346     -0.2442
    148  CE2       18.5950   -4.4920   20.1580 C.ar  346  TRP346      0.0810
    149  CE3       17.5470   -4.8300   17.9920 C.ar  346  TRP346      0.0012
    150  CZ2       18.7120   -3.1050   19.9440 C.ar  346  TRP346      0.0191
    151  CZ3       17.6620   -3.4430   17.7760 C.ar  346  TRP346      0.0001
    152  CH2       18.2450   -2.5970   18.7550 C.ar  346  TRP346      0.0015
    153  N         20.2820   -9.7220   18.6290 N.am  347  ASN347     -0.1958
    154  CA        21.6680  -10.0070   19.0080 C.3   347  ASN347      0.1819
    155  C         22.6040   -9.7630   17.8330 C.2   347  ASN347      0.2622
    156  O         23.5940   -9.0420   17.9690 O.2   347  ASN347     -0.2715
    157  CB        21.8220  -11.4480   19.5310 C.3   347  ASN347      0.1195
    158  CG        20.9690  -11.7130   20.7570 C.2   347  ASN347      0.2630
    159  OD1       19.9090  -12.3130   20.6600 O.2   347  ASN347     -0.2716
    160  ND2       21.4230  -11.2390   21.9230 N.am  347  ASN347     -0.0877
    161  N         22.2820  -10.3400   16.6750 N.am  348  SER348     -0.1950
    162  CA        23.1100  -10.1510   15.4920 C.3   348  SER348      0.1924
    163  C         23.2090   -8.6740   15.1580 C.2   348  SER348      0.2314
    164  O         24.2570   -8.2070   14.7060 O.2   348  SER348     -0.2863
    165  CB        22.5530  -10.9250   14.2900 C.3   348  SER348      0.2116
    166  OG        22.7300  -12.3150   14.4790 O.3   348  SER348     -0.2180
    167  N         25.6280   -6.9160   17.4770 N.3   351  GLU351     -0.1245
    168  CA        26.9660   -7.3770   17.1130 C.3   351  GLU351      0.1567
    169  C         27.4830   -6.6820   15.8520 C.2   351  GLU351      0.2260
    170  O         28.6920   -6.4640   15.6850 O.2   351  GLU351     -0.2867
    171  CB        26.9590   -8.8970   16.9270 C.3   351  GLU351      0.0388
    172  CG        26.6980   -9.6520   18.2290 C.3   351  GLU351      0.1160
    173  CD        26.3630  -11.1150   18.0280 C.2   351  GLU351      0.3649
    174  OE1       26.4700  -11.6090   16.8940 O.co2 351  GLU351     -0.2457
    175  OE2       25.9970  -11.7850   19.0170 O.co2 351  GLU351     -0.2457
    176  N         10.7040  -13.9010   11.3140 N.3   365  PHE365     -0.1241
    177  CA         9.6830  -13.8250   12.3530 C.3   365  PHE365      0.1605
    178  C          9.9410  -12.7890   13.4550 C.2   365  PHE365      0.2264
    179  O         10.9540  -12.0820   13.4640 O.2   365  PHE365     -0.2867
    180  CB         9.5240  -15.2070   12.9840 C.3   365  PHE365      0.0534
    181  CG        10.7770  -15.7160   13.6450 C.ar  365  PHE365     -0.0203
    182  CD1       11.1050  -15.3270   14.9460 C.ar  365  PHE365     -0.0042
    183  CD2       11.6460  -16.5570   12.9610 C.ar  365  PHE365     -0.0042
    184  CE1       12.2860  -15.7730   15.5510 C.ar  365  PHE365     -0.0003
    185  CE2       12.8300  -17.0050   13.5610 C.ar  365  PHE365     -0.0003
    186  CZ        13.1470  -16.6130   14.8540 C.ar  365  PHE365     -0.0000
    187  N         11.9770   -9.0860   13.9190 N.3   368  GLN368     -0.1245
    188  CA        12.8650   -8.8640   12.7830 C.3   368  GLN368      0.1566
    189  C         12.3290   -7.7660   11.8520 C.2   368  GLN368      0.2260
    190  O         13.0950   -6.9350   11.3350 O.2   368  GLN368     -0.2867
    191  CB        13.0850  -10.1950   12.0590 C.3   368  GLN368      0.0367
    192  CG        13.9330  -11.1430   12.8800 C.3   368  GLN368      0.0905
    193  CD        13.6850  -12.6150   12.5650 C.2   368  GLN368      0.2608
    194  OE1       13.3730  -12.9750   11.4320 O.2   368  GLN368     -0.2717
    195  NE2       13.8440  -13.4740   13.5710 N.am  368  GLN368     -0.0878
@<TRIPOS>BOND
     1    31    32    1
     2    34    33    2
     3    33    32    1
     4    32    35    1
     5    66    67    1
     6    35    36    1
     7    43    44    1
     8    68    69    2
     9    68    67    1
    10    67    70    1
    11    36    38   ar
    12    36    37   ar
    13    38    40   ar
    14    72    73    1
    15    44    45    1
    16    44    47    1
    17    45    46    2
    18   125   126    1
    19    37    39   ar
    20    40    41   ar
    21   126   129    1
    22   126   127    1
    23    76    73    1
    24    76    77    1
    25    70    71    1
    26    75    74    2
    27    73    74    1
    28   129   130    1
    29    47    48    1
    30    39    41   ar
    31    41    42    1
    32   127   128    2
    33    77    78    1
    34    81    80    1
    35   176   177    1
    36   190   189    2
    37   130   131   ar
    38   130   132   ar
    39   194   193    2
    40    78    79    1
    41   101    98    1
    42    80    79    2
    43    80    82    1
    44   189   188    1
    45    49    50    1
    46   131   133   ar
    47   191   188    1
    48   191   192    1
    49    62    61    2
    50    83    84    1
    51   177   180    1
    52   177   178    1
    53   132   134   ar
    54    61    60    1
    55   193   192    1
    56   193   195   am
    57   188   187    1
    58    52    51    2
    59    98    97    1
    60    98    99    1
    61   183   185   ar
    62   183   181   ar
    63   180   181    1
    64    86    85    2
    65    97    85   am
    66    85    84    1
    67   116   115    2
    68   133   134   ar
    69    50    51    1
    70   108   107    1
    71   108   102    1
    72    84    87    1
    73   178   179    2
    74   185   186   ar
    75   181   182   ar
    76    51    53   am
    77   135   136    1
    78   115   114    1
    79   115   117   am
    80   114   113    1
    81   107   106    1
    82    60    59    1
    83    60    63    1
    84   112   111    2
    85    99   102   am
    86    99   100    2
    87   102   103    1
    88   110   113    1
    89   110   109    1
    90   110   111    1
    91   165   166    1
    92   165   162    1
    93    59    55   am
    94   105   104    2
    95    65    63    1
    96    87    88    1
    97   109   104   am
    98   164   163    2
    99   104   103    1
   100   111   118   am
   101   186   184   ar
   102    53    54    1
   103    63    64    1
   104   182   184   ar
   105   136   137    1
   106    55    56    2
   107    55    54    1
   108    93    95   ar
   109    93    90   ar
   110   163   162    1
   111   103   106    1
   112   138   137    2
   113    54    57    1
   114   162   161    1
   115    95    96   ar
   116   170   169    2
   117    88    90   ar
   118    88    89   ar
   119   121   120    2
   120   137   139   am
   121   169   168    1
   122    90    92   ar
   123   118   119    1
   124   120   119    1
   125   161   155   am
   126    96    94   ar
   127   119   122    1
   128    89    91   ar
   129   174   173   ar
   130   171   168    1
   131   171   172    1
   132    57    58    1
   133   139   140    1
   134    92    94   ar
   135    92    91   ar
   136   168   167    1
   137   140   141    1
   138   140   143    1
   139   151   149   ar
   140   151   152   ar
   141   155   156    2
   142   155   154    1
   143   142   141    2
   144   149   146   ar
   145   173   172    1
   146   173   175   ar
   147   141   153   am
   148   122   123    1
   149   122   124    1
   150   153   154    1
   151   152   150   ar
   152   154   157    1
   153   143   144    1
   154   146   144   ar
   155   146   148   ar
   156    10     9    1
   157   157   158    1
   158   144   145   ar
   159    25    24    2
   160   150   148   ar
   161     2     1    1
   162     2     3    1
   163   148   147   ar
   164     9    11    1
   165     9     6    1
   166    30    29    1
   167     5     3   am
   168     5     6    1
   169   159   158    2
   170   158   160   am
   171     3     4    2
   172    24    23    1
   173    29    28    1
   174   145   147   ar
   175     6     7    1
   176    26    23    1
   177    26    27    1
   178    23    22    1
   179    28    27    1
   180    21    19   ar
   181    21    20   ar
   182     8     7    2
   183     7    12   am
   184    19    17   ar
   185    12    13    1
   186    20    18   ar
   187    17    18   ar
   188    17    16    1
   189    13    16    1
   190    13    14    1
   191    14    15    2
