@<TRIPOS>MOLECULE
tmp/3hbnA00.pdb
 185 176 0 0 0
SMALL
GASTEIGER

@<TRIPOS>ATOM
      1  N         -6.3690   21.5090    6.3540 N.3    12  ILE12      -0.1231
      2  CA        -6.2210   22.9670    6.2080 C.3    12  ILE12       0.1692
      3  C         -7.0650   23.5440    5.0690 C.2    12  ILE12       0.2593
      4  O         -7.5370   24.6850    5.1500 O.2    12  ILE12      -0.2718
      5  CB        -4.7230   23.3420    6.0170 C.3    12  ILE12       0.0266
      6  CG1       -3.9890   23.1620    7.3570 C.3    12  ILE12       0.0019
      7  CG2       -4.5520   24.7790    5.4710 C.3    12  ILE12       0.0020
      8  CD1       -2.4620   23.2010    7.2520 C.3    12  ILE12       0.0001
      9  N         -7.2440   22.7490    4.0170 N.am   13  GLY13      -0.1942
     10  CA        -7.8930   23.2100    2.8040 C.3    13  GLY13       0.2014
     11  C         -6.8660   23.6910    1.7970 C.2    13  GLY13       0.2639
     12  O         -5.6490   23.5930    2.0300 O.2    13  GLY13      -0.2714
     13  N         -7.3620   24.2100    0.6810 N.am   14  PHE14      -0.1959
     14  CA        -6.5150   24.5770   -0.4510 C.3    14  PHE14       0.1771
     15  C         -6.4170   26.0770   -0.6430 C.2    14  PHE14       0.2620
     16  O         -5.6020   26.5410   -1.4450 O.2    14  PHE14      -0.2715
     17  CB        -7.0870   24.0160   -1.7610 C.3    14  PHE14       0.0574
     18  CG        -6.8300   22.5430   -1.9830 C.ar   14  PHE14      -0.0200
     19  CD1       -6.0870   21.7800   -1.0770 C.ar   14  PHE14      -0.0042
     20  CD2       -7.3190   21.9330   -3.1390 C.ar   14  PHE14      -0.0042
     21  CE1       -5.8450   20.4190   -1.3150 C.ar   14  PHE14      -0.0003
     22  CE2       -7.0790   20.5690   -3.3910 C.ar   14  PHE14      -0.0003
     23  CZ        -6.3420   19.8160   -2.4720 C.ar   14  PHE14      -0.0000
     24  N         -7.2510   26.8230    0.0700 N.am   15  GLY15      -0.1940
     25  CA        -7.3880   28.2540   -0.1790 C.3    15  GLY15       0.2014
     26  C         -6.0960   29.0450   -0.0840 C.2    15  GLY15       0.2638
     27  O         -5.8500   29.9340   -0.9190 O.2    15  GLY15      -0.2714
     28  N         -5.2770   28.7490    0.9260 N.am   16  HIS16      -0.1973
     29  CA        -4.0370   29.5230    1.1250 C.3    16  HIS16       0.1656
     30  C         -3.1080   29.3120   -0.0550 C.2    16  HIS16       0.2291
     31  O         -2.6870   30.2730   -0.6930 O.2    16  HIS16      -0.2864
     32  CB        -3.2940   29.1550    2.4200 C.3    16  HIS16       0.0771
     33  CG        -4.1440   29.2010    3.6460 C.ar   16  HIS16       0.0820
     34  ND1       -4.3330   30.3530    4.3820 N.ar   16  HIS16      -0.2267
     35  CD2       -4.8430   28.2290    4.2800 C.ar   16  HIS16       0.1154
     36  CE1       -5.1180   30.0900    5.4110 C.ar   16  HIS16       0.1986
     37  NE2       -5.4450   28.8100    5.3710 N.ar   16  HIS16      -0.2212
     38  N         -3.7270   28.0440   -3.0750 N.3    18  LYS18      -0.1245
     39  CA        -4.2790   28.4580   -4.3670 C.3    18  LYS18       0.1561
     40  C         -4.1850   29.9690   -4.5800 C.2    18  LYS18       0.2260
     41  O         -3.7700   30.4280   -5.6680 O.2    18  LYS18      -0.2867
     42  CB        -5.7220   27.9750   -4.5300 C.3    18  LYS18       0.0271
     43  CG        -5.8370   26.4690   -4.5640 C.3    18  LYS18       0.0035
     44  CD        -5.6260   25.9360   -5.9500 C.3    18  LYS18       0.0206
     45  CE        -6.3010   24.5730   -6.1300 C.3    18  LYS18       0.1093
     46  NZ        -5.8780   24.0230   -7.4650 N.3    18  LYS18      -0.1314
     47  N         -8.0700   33.2770  -10.0130 N.3   142  ARG142     -0.1245
     48  CA        -7.4380   32.6460  -11.1720 C.3   142  ARG142      0.1563
     49  C         -7.9540   33.2000  -12.5010 C.2   142  ARG142      0.2260
     50  O         -9.0980   33.6460  -12.6150 O.2   142  ARG142     -0.2867
     51  CB        -7.6230   31.1210  -11.1090 C.3   142  ARG142      0.0307
     52  CG        -6.8340   30.4700  -10.0010 C.3   142  ARG142      0.0489
     53  CD        -6.8980   28.9430  -10.0330 C.3   142  ARG142      0.2205
     54  NE        -8.2630   28.4120   -9.9540 N.pl3 142  ARG142     -0.0865
     55  CZ        -8.9630   28.2210   -8.8340 C.cat 142  ARG142      0.5346
     56  NH1       -8.4610   28.5540   -7.6390 N.pl3 142  ARG142      0.1354
     57  NH2      -10.1890   27.6980   -8.9130 N.pl3 142  ARG142      0.1354
     58  N        -19.8420   23.4110   -3.8710 N.3   162  CYS162     -0.1235
     59  CA       -18.4110   23.2930   -3.6540 C.3   162  CYS162      0.1677
     60  C        -18.1080   23.7980   -2.2610 C.2   162  CYS162      0.2270
     61  O        -18.3920   24.9510   -1.9460 O.2   162  CYS162     -0.2867
     62  CB       -17.6120   24.0990   -4.6810 C.3   162  CYS162      0.0956
     63  SG       -15.8640   23.7770   -4.5370 S.3   162  CYS162     -0.0801
     64  N        -15.1570   24.0480   -0.9250 N.3   163  GLY163     -0.1210
     65  CA       -13.7070   24.2760   -0.8840 C.3   163  GLY163      0.1956
     66  C        -12.9640   23.0940   -1.4720 C.2   163  GLY163      0.2612
     67  O        -13.5440   22.2480   -2.1880 O.2   163  GLY163     -0.2717
     68  N        -11.6700   23.0100   -1.1830 N.am  164  GLY164     -0.1942
     69  CA       -10.8730   21.9290   -1.7620 C.3   164  GLY164      0.2014
     70  C        -11.1090   20.5440   -1.1830 C.2   164  GLY164      0.2640
     71  O        -10.9950   19.5470   -1.8950 O.2   164  GLY164     -0.2714
     72  N        -11.4390   20.4620    0.1020 N.am  165  THR165     -0.1936
     73  CA       -11.3350   19.1800    0.8130 C.3   165  THR165      0.2028
     74  C        -12.5740   18.7700    1.6190 C.2   165  THR165      0.2642
     75  O        -12.7530   17.5820    1.9080 O.2   165  THR165     -0.2714
     76  CB       -10.1070   19.1680    1.7360 C.3   165  THR165      0.1808
     77  OG1      -10.2560   20.1730    2.7370 O.3   165  THR165     -0.2208
     78  CG2       -8.8170   19.4540    0.9390 C.3   165  THR165      0.0379
     79  N        -13.3930   19.7450    2.0140 N.am  166  ASP166     -0.1971
     80  CA       -14.6990   19.4710    2.6510 C.3   166  ASP166      0.1709
     81  C        -14.6330   18.3670    3.7160 C.2   166  ASP166      0.2293
     82  O        -15.3120   17.3360    3.6010 O.2   166  ASP166     -0.2864
     83  CB       -15.7460   19.1290    1.5590 C.3   166  ASP166      0.1436
     84  CG       -17.1740   18.9440    2.1110 C.2   166  ASP166      0.3671
     85  OD1      -17.5070   19.4290    3.2150 O.co2 166  ASP166     -0.2456
     86  OD2      -17.9720   18.3120    1.3960 O.co2 166  ASP166     -0.2456
     87  N        -18.1980   19.8450   -7.0390 N.3   187  ALA187     -0.1231
     88  CA       -16.7580   19.8870   -7.2730 C.3   187  ALA187      0.1694
     89  C        -16.0210   19.6370   -5.9800 C.2   187  ALA187      0.2593
     90  O        -16.3130   20.2830   -4.9640 O.2   187  ALA187     -0.2718
     91  CB       -16.3530   21.2440   -7.8520 C.3   187  ALA187      0.0304
     92  N        -15.0680   18.7030   -6.0170 N.am  188  THR188     -0.1939
     93  CA       -14.1560   18.5050   -4.8990 C.3   188  THR188      0.2028
     94  C        -12.7960   18.0000   -5.3930 C.2   188  THR188      0.2642
     95  O        -12.6340   17.6890   -6.5800 O.2   188  THR188     -0.2714
     96  CB       -14.7480   17.5600   -3.8270 C.3   188  THR188      0.1808
     97  OG1      -14.0260   17.7220   -2.6070 O.3   188  THR188     -0.2208
     98  CG2      -14.6920   16.1110   -4.2750 C.3   188  THR188      0.0379
     99  N        -11.8180   17.9380   -4.4960 N.am  189  SER189     -0.1949
    100  CA       -10.4950   17.4400   -4.8750 C.3   189  SER189      0.1924
    101  C        -10.2590   16.0100   -4.4000 C.2   189  SER189      0.2314
    102  O        -10.9790   15.5080   -3.5440 O.2   189  SER189     -0.2863
    103  CB        -9.4030   18.3440   -4.3200 C.3   189  SER189      0.2116
    104  OG        -9.1660   18.0650   -2.9560 O.3   189  SER189     -0.2180
    105  N        -17.4940   16.1670   -9.9690 N.3   211  PHE211     -0.1241
    106  CA       -16.2640   16.4900  -10.6860 C.3   211  PHE211      0.1605
    107  C        -15.0860   16.5270   -9.7260 C.2   211  PHE211      0.2264
    108  O        -15.0280   17.3900   -8.8400 O.2   211  PHE211     -0.2867
    109  CB       -16.3880   17.8490  -11.3600 C.3   211  PHE211      0.0534
    110  CG       -17.4430   17.9230  -12.4280 C.ar  211  PHE211     -0.0203
    111  CD1      -18.6900   18.4560  -12.1410 C.ar  211  PHE211     -0.0042
    112  CD2      -17.1640   17.5070  -13.7280 C.ar  211  PHE211     -0.0042
    113  CE1      -19.6730   18.5550  -13.1250 C.ar  211  PHE211     -0.0003
    114  CE2      -18.1390   17.5940  -14.7310 C.ar  211  PHE211     -0.0003
    115  CZ       -19.3880   18.1300  -14.4310 C.ar  211  PHE211     -0.0000
    116  N        -11.1170   17.0780   -8.9810 N.3   213  ASP213     -0.1225
    117  CA        -9.9200   17.7640   -9.4940 C.3   213  ASP213      0.1805
    118  C        -10.1710   18.4400  -10.8360 C.2   213  ASP213      0.2597
    119  O         -9.3230   18.3760  -11.7310 O.2   213  ASP213     -0.2718
    120  CB        -8.7510   16.7820   -9.6270 C.3   213  ASP213      0.1424
    121  CG        -8.2660   16.2730   -8.2960 C.2   213  ASP213      0.3668
    122  OD1       -8.4450   16.9840   -7.2820 O.co2 213  ASP213     -0.2456
    123  OD2       -7.6990   15.1580   -8.2570 O.co2 213  ASP213     -0.2456
    124  N        -11.3380   19.0620  -10.9870 N.am  214  HIS214     -0.1975
    125  CA       -11.6870   19.7620  -12.2220 C.3   214  HIS214      0.1656
    126  C        -10.7650   20.9650  -12.4250 C.2   214  HIS214      0.2291
    127  O        -10.3990   21.6420  -11.4640 O.2   214  HIS214     -0.2864
    128  CB       -13.1340   20.2400  -12.1700 C.3   214  HIS214      0.0771
    129  CG       -13.6910   20.6590  -13.4970 C.ar  214  HIS214      0.0820
    130  ND1      -14.3440   19.7830  -14.3410 N.ar  214  HIS214     -0.2267
    131  CD2      -13.7220   21.8650  -14.1120 C.ar  214  HIS214      0.1154
    132  CE1      -14.7470   20.4330  -15.4190 C.ar  214  HIS214      0.1986
    133  NE2      -14.3760   21.6960  -15.3070 N.ar  214  HIS214     -0.2212
    134  N        -13.1730   25.5830  -12.4530 N.3   217  ILE217     -0.1245
    135  CA       -14.2830   25.8250  -11.5340 C.3   217  ILE217      0.1561
    136  C        -15.1600   26.9650  -12.0390 C.2   217  ILE217      0.2260
    137  O        -16.3710   26.9580  -11.8460 O.2   217  ILE217     -0.2867
    138  CB       -13.7470   26.1170  -10.0970 C.3   217  ILE217      0.0252
    139  CG1      -13.0410   24.8740   -9.5280 C.3   217  ILE217      0.0019
    140  CG2      -14.8480   26.6790   -9.1730 C.3   217  ILE217      0.0019
    141  CD1      -13.9510   23.6350   -9.3550 C.3   217  ILE217      0.0001
    142  N        -18.9370   27.2790    0.2890 N.3   229  SER229     -0.1217
    143  CA       -18.4140   27.7500    1.5810 C.3   229  SER229      0.1889
    144  C        -18.0550   29.2370    1.4750 C.2   229  SER229      0.2288
    145  O        -17.8240   29.7510    0.3700 O.2   229  SER229     -0.2866
    146  CB       -17.2080   26.9230    2.0510 C.3   229  SER229      0.2089
    147  OG       -16.2660   26.7660    1.0050 O.3   229  SER229     -0.2183
    148  N        -15.6090   31.1510    1.6750 N.3   231  SER231     -0.1202
    149  CA       -14.1710   31.0500    1.5820 C.3   231  SER231      0.2020
    150  C        -13.7080   31.7700    0.3000 C.2   231  SER231      0.2619
    151  O        -14.3570   32.7300   -0.1560 O.2   231  SER231     -0.2717
    152  CB       -13.8010   29.5460    1.5820 C.3   231  SER231      0.2103
    153  OG       -14.4750   28.8590    0.5170 O.3   231  SER231     -0.2182
    154  N        -12.6190   31.3060   -0.3130 N.am  232  SER232     -0.1937
    155  CA       -12.1480   31.9020   -1.5820 C.3   232  SER232      0.2055
    156  C        -13.2160   31.8690   -2.6690 C.2   232  SER232      0.2642
    157  O        -13.2630   32.7510   -3.5610 O.2   232  SER232     -0.2714
    158  CB       -10.9160   31.1460   -2.1160 C.3   232  SER232      0.2130
    159  OG        -9.8280   31.2280   -1.2110 O.3   232  SER232     -0.2179
    160  N        -14.0790   30.8570   -2.5900 N.am  233  LEU233     -0.1977
    161  CA       -15.1490   30.6630   -3.5580 C.3   233  LEU233      0.1596
    162  C        -16.0810   31.8700   -3.6680 C.2   233  LEU233      0.2287
    163  O        -16.6530   32.1130   -4.7260 O.2   233  LEU233     -0.2864
    164  CB       -15.9620   29.4290   -3.1830 C.3   233  LEU233      0.0297
    165  CG       -15.2490   28.0900   -3.3720 C.3   233  LEU233      0.0022
    166  CD1      -15.9340   27.0250   -2.5390 C.3   233  LEU233      0.0001
    167  CD2      -15.2120   27.6940   -4.8600 C.3   233  LEU233      0.0001
    168  N        -14.6820   34.4770   -6.0490 N.3   236  GLU236     -0.1245
    169  CA       -14.8380   33.8920   -7.3640 C.3   236  GLU236      0.1567
    170  C        -16.2780   34.0480   -7.8600 C.2   236  GLU236      0.2260
    171  O        -16.5180   34.5410   -8.9870 O.2   236  GLU236     -0.2867
    172  CB       -14.4020   32.4270   -7.3180 C.3   236  GLU236      0.0388
    173  CG       -12.8940   32.3160   -7.0420 C.3   236  GLU236      0.1160
    174  CD       -12.4240   30.9380   -6.5910 C.2   236  GLU236      0.3649
    175  OE1      -13.2310   29.9820   -6.5180 O.co2 236  GLU236     -0.2457
    176  OE2      -11.2150   30.8210   -6.2960 O.co2 236  GLU236     -0.2457
    177  N        -14.6510   31.8970    8.9590 N.3   253  GLN253     -0.1245
    178  CA       -15.4150   32.4300    7.8290 C.3   253  GLN253      0.1566
    179  C        -16.5070   33.4250    8.2310 C.2   253  GLN253      0.2260
    180  O        -17.2160   33.9460    7.3760 O.2   253  GLN253     -0.2867
    181  CB       -16.0100   31.2830    6.9900 C.3   253  GLN253      0.0367
    182  CG       -14.9720   30.2940    6.4710 C.3   253  GLN253      0.0905
    183  CD       -15.5900   29.2240    5.6070 C.2   253  GLN253      0.2608
    184  OE1      -16.8050   29.1500    5.4920 O.2   253  GLN253     -0.2717
    185  NE2      -14.7570   28.3730    5.0140 N.am  253  GLN253     -0.0878
@<TRIPOS>BOND
     1   132   133   ar
     2   132   130   ar
     3   133   131   ar
     4   114   115   ar
     5   114   112   ar
     6   115   113   ar
     7   130   129   ar
     8   131   129   ar
     9   112   110   ar
    10   129   128    1
    11   113   111   ar
    12    50    49    2
    13    49    48    1
    14   134   135    1
    15   110   111   ar
    16   110   109    1
    17   126   125    1
    18   126   127    2
    19   125   128    1
    20   125   124    1
    21   136   137    2
    22   136   135    1
    23   119   118    2
    24   135   138    1
    25   109   106    1
    26    48    51    1
    27    48    47    1
    28    51    52    1
    29   124   118   am
    30   118   117    1
    31   106   105    1
    32   106   107    1
    33   138   139    1
    34   138   140    1
    35    53    52    1
    36    53    54    1
    37    54    55    2
    38   107   108    2
    39   120   117    1
    40   120   121    1
    41   139   141    1
    42   117   116    1
    43   171   170    2
    44    57    55    1
    45    55    56    1
    46   121   123   ar
    47   121   122   ar
    48   170   169    1
    49    91    88    1
    50    46    45    1
    51   169   172    1
    52   169   168    1
    53   172   173    1
    54    88    87    1
    55    88    89    1
    56   173   174    1
    57   174   175   ar
    58   174   176   ar
    59    95    94    2
    60    45    44    1
    61    92    89   am
    62    92    93    1
    63    89    90    2
    64    44    43    1
    65    41    40    2
    66    94    93    1
    67    94    99   am
    68    93    96    1
    69   100    99    1
    70   100   101    1
    71   100   103    1
    72   167   165    1
    73   163   162    2
    74    62    63    1
    75    62    59    1
    76    40    39    1
    77    43    42    1
    78    42    39    1
    79   101   102    2
    80    39    38    1
    81   103   104    1
    82    98    96    1
    83    58    59    1
    84    96    97    1
    85   162   161    1
    86    59    60    1
    87   157   156    2
    88   161   164    1
    89   161   160    1
    90    22    20   ar
    91    22    23   ar
    92   165   164    1
    93   165   166    1
    94    20    18   ar
    95   156   160   am
    96   156   155    1
    97    23    21   ar
    98    60    61    2
    99    67    66    2
   100   158   155    1
   101   158   159    1
   102    18    17    1
   103    18    19   ar
   104    71    70    2
   105    69    68    1
   106    69    70    1
   107    17    14    1
   108   155   154    1
   109    66    68   am
   110    66    65    1
   111    16    15    2
   112    21    19   ar
   113    70    72   am
   114    64    65    1
   115    27    26    2
   116    31    30    2
   117    15    14    1
   118    15    24   am
   119    14    13    1
   120   154   150   am
   121    25    26    1
   122    25    24    1
   123   151   150    2
   124    26    28   am
   125    30    29    1
   126    72    73    1
   127   142   143    1
   128   150   149    1
   129   145   144    2
   130   153   152    1
   131    13    11   am
   132    73    74    1
   133    73    76    1
   134    28    29    1
   135    78    76    1
   136   147   146    1
   137    29    32    1
   138    86    84   ar
   139   144   143    1
   140    83    84    1
   141    83    80    1
   142   143   146    1
   143   149   152    1
   144   149   148    1
   145    74    75    2
   146    74    79   am
   147    76    77    1
   148    11    12    2
   149    11    10    1
   150    79    80    1
   151    84    85   ar
   152    32    33    1
   153    80    81    1
   154    10     9    1
   155    82    81    2
   156    33    35   ar
   157    33    34   ar
   158     9     3   am
   159    35    37   ar
   160    34    36   ar
   161   185   183   am
   162     3     4    2
   163     3     2    1
   164    37    36   ar
   165     7     5    1
   166   184   183    2
   167   183   182    1
   168     5     2    1
   169     5     6    1
   170     2     1    1
   171   182   181    1
   172   181   178    1
   173     8     6    1
   174   180   179    2
   175   178   179    1
   176   178   177    1
