@<TRIPOS>MOLECULE
tmp/3hboA00.pdb
 131 123 0 0 0
SMALL
GASTEIGER

@<TRIPOS>ATOM
      1  N          5.8810   12.0800   14.8810 N.3     8  ARG8       -0.1245
      2  CA         6.5890   10.8390   15.2590 C.3     8  ARG8        0.1563
      3  C          7.6360   11.1950   16.3100 C.2     8  ARG8        0.2260
      4  O          8.3730   12.2100   16.1480 O.2     8  ARG8       -0.2867
      5  CB         7.2680   10.2430   14.0260 C.3     8  ARG8        0.0307
      6  CG         6.2970    9.5520   13.0910 C.3     8  ARG8        0.0489
      7  CD         6.7890    9.5200   11.6510 C.3     8  ARG8        0.2205
      8  NE         5.8510    8.8600   10.7320 N.pl3   8  ARG8       -0.0865
      9  CZ         6.0380    8.7940    9.4160 C.cat   8  ARG8        0.5346
     10  NH1        7.1190    9.3540    8.8820 N.pl3   8  ARG8        0.1354
     11  NH2        5.1610    8.1790    8.6240 N.pl3   8  ARG8        0.1354
     12  N         10.7720   10.9550   17.2720 N.3    10  LEU10      -0.1245
     13  CA        12.1160   10.6350   16.8030 C.3    10  LEU10       0.1561
     14  C         13.1490   11.2960   17.6740 C.2    10  LEU10       0.2260
     15  O         13.0540   12.5010   17.9770 O.2    10  LEU10      -0.2867
     16  CB        12.3220   11.0970   15.3680 C.3    10  LEU10       0.0270
     17  CG        11.4350   10.4360   14.3240 C.3    10  LEU10       0.0019
     18  CD1       11.5000   11.2630   13.0200 C.3    10  LEU10       0.0001
     19  CD2       11.8150    8.9860   14.0790 C.3    10  LEU10       0.0001
     20  N         12.9920    5.9160   16.2600 N.3    23  LEU23      -0.1245
     21  CA        11.6300    6.1530   16.7200 C.3    23  LEU23       0.1561
     22  C         11.4150    5.4630   18.0440 C.2    23  LEU23       0.2260
     23  O         11.6300    4.2430   18.1610 O.2    23  LEU23      -0.2867
     24  CB        10.6940    5.4920   15.6950 C.3    23  LEU23       0.0270
     25  CG         9.1780    5.5860   15.8400 C.3    23  LEU23       0.0019
     26  CD1        8.7360    6.9950   15.4720 C.3    23  LEU23       0.0001
     27  CD2        8.5910    4.6180   14.8250 C.3    23  LEU23       0.0001
     28  N          9.2150    3.4810   20.1080 N.3    25  ASP25      -0.1239
     29  CA         8.0500    2.6850   19.7250 C.3    25  ASP25       0.1674
     30  C          7.5690    1.7760   20.8440 C.2    25  ASP25       0.2266
     31  O          8.1010    0.6810   21.0720 O.2    25  ASP25      -0.2867
     32  CB         8.4100    1.8110   18.4870 C.3    25  ASP25       0.1410
     33  CG         7.2220    1.0680   17.8800 C.2    25  ASP25       0.3668
     34  OD1        6.0820    1.1730   18.3620 O.co2  25  ASP25      -0.2456
     35  OD2        7.4520    0.3640   16.8700 O.co2  25  ASP25      -0.2456
     36  N          5.0280    0.0480   20.9050 N.3    27  GLY27      -0.1210
     37  CA         4.4530   -1.1500   20.3290 C.3    27  GLY27       0.1956
     38  C          5.5320   -2.1120   19.8320 C.2    27  GLY27       0.2612
     39  O          5.1830   -3.0810   19.1480 O.2    27  GLY27      -0.2717
     40  N          6.8230   -1.8290   20.1240 N.am   28  ALA28      -0.1965
     41  CA         7.9040   -2.7450   19.6940 C.3    28  ALA28       0.1728
     42  C          8.4890   -3.4540   20.9040 C.2    28  ALA28       0.2616
     43  O          8.8900   -2.7830   21.8720 O.2    28  ALA28      -0.2715
     44  CB         9.0180   -2.0020   18.9640 C.3    28  ALA28       0.0334
     45  N          8.5550   -4.7880   20.8780 N.am   29  ASP29      -0.1957
     46  CA         9.1650   -5.5000   22.0200 C.3    29  ASP29       0.1840
     47  C         10.6700   -5.2570   22.0500 C.2    29  ASP29       0.2622
     48  O         11.2890   -5.2130   23.1240 O.2    29  ASP29      -0.2715
     49  CB         8.9690   -6.9990   21.8690 C.3    29  ASP29       0.1450
     50  CG         7.5480   -7.4460   22.0700 C.2    29  ASP29       0.3671
     51  OD1        6.6780   -6.6400   22.3930 O.co2  29  ASP29      -0.2456
     52  OD2        7.3110   -8.6780   21.9470 O.co2  29  ASP29      -0.2456
     53  N         11.2550   -5.1630   20.8610 N.am   30  ASP30      -0.1971
     54  CA        12.7160   -5.1370   20.6870 C.3    30  ASP30       0.1709
     55  C         13.1300   -3.8960   19.9480 C.2    30  ASP30       0.2293
     56  O         12.3080   -3.1980   19.3530 O.2    30  ASP30      -0.2864
     57  CB        13.1850   -6.3410   19.8210 C.3    30  ASP30       0.1436
     58  CG        12.7210   -7.6670   20.3620 C.2    30  ASP30       0.3671
     59  OD1       12.7130   -7.8640   21.6020 O.co2  30  ASP30      -0.2456
     60  OD2       12.3990   -8.5410   19.5230 O.co2  30  ASP30      -0.2456
     61  N         15.3540   -2.2650   16.7960 N.3    32  VAL32      -0.1245
     62  CA        15.7260   -2.6530   15.4440 C.3    32  VAL32       0.1561
     63  C         16.4220   -1.4830   14.7750 C.2    32  VAL32       0.2260
     64  O         15.8190   -0.4240   14.6150 O.2    32  VAL32      -0.2867
     65  CB        14.5390   -3.0990   14.5850 C.3    32  VAL32       0.0252
     66  CG1       15.1000   -3.8910   13.3530 C.3    32  VAL32       0.0019
     67  CG2       13.6250   -4.0010   15.4000 C.3    32  VAL32       0.0019
     68  N         11.8630  -11.1810   12.8880 N.3    44  ILE44      -0.1231
     69  CA        10.9410  -10.3880   13.6810 C.3    44  ILE44       0.1692
     70  C          9.8910   -9.8500   12.7640 C.2    44  ILE44       0.2593
     71  O         10.1280   -9.7140   11.5510 O.2    44  ILE44      -0.2718
     72  CB        11.6200   -9.1930   14.4330 C.3    44  ILE44       0.0266
     73  CG1       12.3690   -8.2980   13.4470 C.3    44  ILE44       0.0019
     74  CG2       12.4600   -9.6970   15.5790 C.3    44  ILE44       0.0020
     75  CD1       12.9290   -7.0670   14.0770 C.3    44  ILE44       0.0001
     76  N          8.7080   -9.5960   13.2950 N.am   45  GLY45      -0.1942
     77  CA         7.5820   -9.3020   12.4090 C.3    45  GLY45       0.2014
     78  C          6.7450   -8.1390   12.8640 C.2    45  GLY45       0.2639
     79  O          6.8490   -7.6530   14.0000 O.2    45  GLY45      -0.2714
     80  N          5.8590   -7.7280   11.9820 N.am   46  GLY46      -0.1939
     81  CA         4.9120   -6.6810   12.2880 C.3    46  GLY46       0.2014
     82  C          3.9340   -6.6550   11.1410 C.2    46  GLY46       0.2638
     83  O          3.7120   -7.6630   10.4710 O.2    46  GLY46      -0.2714
     84  N          3.3590   -5.4860   10.9030 N.am   47  ILE47      -0.1977
     85  CA         2.5280   -5.3130    9.7020 C.3    47  ILE47       0.1596
     86  C          3.3450   -5.5920    8.4520 C.2    47  ILE47       0.2287
     87  O          4.4580   -5.0740    8.3050 O.2    47  ILE47      -0.2864
     88  CB         1.9350   -3.8830    9.6230 C.3    47  ILE47       0.0276
     89  CG1        0.8510   -3.7360   10.7060 C.3    47  ILE47       0.0022
     90  CG2        1.2650   -3.6730    8.2780 C.3    47  ILE47       0.0022
     91  CD1        0.4200   -2.2710   10.9980 C.3    47  ILE47       0.0001
     92  N          7.4350  -10.6490    8.1530 N.3    49  PHE49      -0.1241
     93  CA         8.7330  -10.7590    8.8350 C.3    49  PHE49       0.1605
     94  C          9.9390  -10.3520    8.0280 C.2    49  PHE49       0.2264
     95  O          9.9360  -10.4910    6.7920 O.2    49  PHE49      -0.2867
     96  CB         8.9460  -12.2110    9.3320 C.3    49  PHE49       0.0534
     97  CG         8.0530  -12.6050   10.5040 C.ar   49  PHE49      -0.0203
     98  CD1        6.6930  -12.9040   10.3040 C.ar   49  PHE49      -0.0042
     99  CD2        8.5730  -12.6970   11.7780 C.ar   49  PHE49      -0.0042
    100  CE1        5.8760  -13.2470   11.3860 C.ar   49  PHE49      -0.0003
    101  CE2        7.7410  -13.0120   12.8790 C.ar   49  PHE49      -0.0003
    102  CZ         6.4040  -13.3000   12.6660 C.ar   49  PHE49      -0.0000
    103  N         15.2690   -2.7620    8.3360 N.3    75  THR75      -0.1204
    104  CA        14.0780   -2.0940    8.7870 C.3    75  THR75       0.1979
    105  C         13.9810   -0.7730    8.0420 C.2    75  THR75       0.2460
    106  O         14.9860   -0.1130    7.8020 O.2    75  THR75      -0.2732
    107  CB        14.1400   -1.7750   10.2730 C.3    75  THR75       0.1783
    108  OG1       12.9130   -1.1550   10.6280 O.3    75  THR75      -0.2211
    109  CG2       15.3180   -0.7960   10.5780 C.3    75  THR75       0.0376
    110  N         12.7660   -0.3950    7.6680 N.am   76  PRO76      -0.2717
    111  CA        12.5500    0.9210    7.0580 C.3    76  PRO76       0.1535
    112  C         12.8370    2.1110    7.9310 C.2    76  PRO76       0.2598
    113  O         13.0510    3.2020    7.4010 O.2    76  PRO76      -0.2715
    114  CB        11.0610    0.9100    6.7050 C.3    76  PRO76       0.0310
    115  CG        10.4550   -0.2130    7.4950 C.3    76  PRO76       0.0237
    116  CD        11.5340   -1.2040    7.7550 C.3    76  PRO76       0.0939
    117  N         12.8440    1.9180    9.2600 N.am   77  VAL77      -0.1978
    118  CA        12.8890    2.9990   10.2430 C.3    77  VAL77       0.1596
    119  C         13.6190    2.4170   11.4680 C.2    77  VAL77       0.2287
    120  O         13.3120    1.2830   11.8710 O.2    77  VAL77      -0.2864
    121  CB        11.4420    3.4000   10.7090 C.3    77  VAL77       0.0276
    122  CG1       11.5200    4.4430   11.7840 C.3    77  VAL77       0.0022
    123  CG2       10.6270    3.9640    9.5300 C.3    77  VAL77       0.0022
    124  N         14.1980    1.7040   15.2270 N.3    79  ILE79      -0.1245
    125  CA        13.1490    1.5810   16.2280 C.3    79  ILE79       0.1561
    126  C         13.7450    1.2890   17.5960 C.2    79  ILE79       0.2260
    127  O         14.5330    0.3390   17.7400 O.2    79  ILE79      -0.2867
    128  CB        12.2250    0.3960   15.8560 C.3    79  ILE79       0.0252
    129  CG1       11.4440    0.7310   14.5880 C.3    79  ILE79       0.0019
    130  CG2       11.2390    0.0650   16.9790 C.3    79  ILE79       0.0019
    131  CD1       10.9900   -0.4850   13.8440 C.3    79  ILE79       0.0001
@<TRIPOS>BOND
     1   114   111    1
     2   114   115    1
     3    95    94    2
     4   111   110    1
     5   111   112    1
     6   113   112    2
     7   115   116    1
     8   110   116    1
     9   110   105   am
    10   106   105    2
    11   112   117   am
    12    94    93    1
    13   105   104    1
    14    92    93    1
    15    90    88    1
    16    87    86    2
    17   103   104    1
    18    86    85    1
    19    11     9    1
    20   104   107    1
    21    93    96    1
    22    10     9    1
    23   117   118    1
    24    96    97    1
    25     9     8    2
    26   123   121    1
    27    88    85    1
    28    88    89    1
    29    85    84    1
    30   118   121    1
    31   118   119    1
    32   107   109    1
    33   107   108    1
    34    98    97   ar
    35    98   100   ar
    36    83    82    2
    37    97    99   ar
    38    89    91    1
    39   121   122    1
    40     8     7    1
    41    84    82   am
    42    82    81    1
    43   100   102   ar
    44   119   120    2
    45    71    70    2
    46     7     6    1
    47    99   101   ar
    48    80    81    1
    49    80    78   am
    50    77    78    1
    51    77    76    1
    52   102   101   ar
    53    70    76   am
    54    70    69    1
    55    78    79    2
    56    68    69    1
    57    18    17    1
    58     6     5    1
    59    66    65    1
    60    73    75    1
    61    73    72    1
    62    69    72    1
    63   131   129    1
    64     5     2    1
    65    19    17    1
    66    17    16    1
    67    72    74    1
    68    65    67    1
    69    65    62    1
    70   129   128    1
    71    64    63    2
    72    63    62    1
    73    27    25    1
    74     1     2    1
    75   124   125    1
    76     2     3    1
    77    16    13    1
    78    62    61    1
    79    26    25    1
    80    24    25    1
    81    24    21    1
    82   128   125    1
    83   128   130    1
    84     4     3    2
    85   125   126    1
    86    20    21    1
    87    21    22    1
    88    13    12    1
    89    13    14    1
    90    35    33   ar
    91   126   127    2
    92    14    15    2
    93    33    34   ar
    94    33    32    1
    95    22    23    2
    96    32    29    1
    97    44    41    1
    98    39    38    2
    99    56    55    2
   100    60    58   ar
   101    41    40    1
   102    41    42    1
   103    29    28    1
   104    29    30    1
   105    57    58    1
   106    57    54    1
   107    38    40   am
   108    38    37    1
   109    55    54    1
   110    37    36    1
   111    58    59   ar
   112    54    53    1
   113    30    31    2
   114    53    47   am
   115    45    42   am
   116    45    46    1
   117    42    43    2
   118    49    46    1
   119    49    50    1
   120    52    50   ar
   121    46    47    1
   122    47    48    2
   123    50    51   ar
