@<TRIPOS>MOLECULE
tmp/3hbuA00.pdb
 145 143 0 0 0
SMALL
GASTEIGER

@<TRIPOS>ATOM
      1  N         39.5850   62.8820   47.9410 N.3    43  GLU43      -0.1245
      2  CA        39.5260   62.5980   49.3690 C.3    43  GLU43       0.1567
      3  C         40.7850   63.1260   50.0420 C.2    43  GLU43       0.2260
      4  O         40.8050   63.3610   51.2510 O.2    43  GLU43      -0.2867
      5  CB        39.3640   61.0980   49.6330 C.3    43  GLU43       0.0388
      6  CG        38.0240   60.5360   49.1950 C.3    43  GLU43       0.1160
      7  CD        36.8490   61.3340   49.7350 C.2    43  GLU43       0.3649
      8  OE1       35.8310   61.4480   49.0180 O.co2  43  GLU43      -0.2457
      9  OE2       36.9430   61.8530   50.8700 O.co2  43  GLU43      -0.2457
     10  N         31.0120   46.5700   57.0290 N.3    72  SER72      -0.1217
     11  CA        29.8150   47.0180   56.3350 C.3    72  SER72       0.1889
     12  C         28.5380   46.4630   56.9560 C.2    72  SER72       0.2288
     13  O         27.4510   46.9690   56.6920 O.2    72  SER72      -0.2866
     14  CB        29.8650   46.5250   54.9030 C.3    72  SER72       0.2089
     15  OG        29.8620   45.1070   54.9290 O.3    72  SER72      -0.2183
     16  N         27.7100   43.3270   56.3130 N.3    74  ASP74      -0.1239
     17  CA        27.4330   42.1060   55.5610 C.3    74  ASP74       0.1674
     18  C         27.9420   40.9290   56.3840 C.2    74  ASP74       0.2266
     19  O         28.7810   41.1020   57.2700 O.2    74  ASP74      -0.2867
     20  CB        28.1230   42.1100   54.1860 C.3    74  ASP74       0.1410
     21  CG        27.4350   43.0420   53.1830 C.2    74  ASP74       0.3668
     22  OD1       28.1350   43.6000   52.3160 O.co2  74  ASP74      -0.2456
     23  OD2       26.1970   43.2050   53.2500 O.co2  74  ASP74      -0.2456
     24  N         31.2310   44.3670   45.1490 N.3   133  ALA133     -0.1231
     25  CA        32.4140   44.5540   45.9830 C.3   133  ALA133      0.1694
     26  C         32.4410   45.9600   46.5560 C.2   133  ALA133      0.2592
     27  O         31.7300   46.8430   46.0820 O.2   133  ALA133     -0.2718
     28  CB        33.7020   44.2900   45.1460 C.3   133  ALA133      0.0304
     29  N         33.2540   46.1700   47.5830 N.am  134  TYR134     -0.1962
     30  CA        33.5050   47.5190   48.0920 C.3   134  TYR134      0.1771
     31  C         34.8040   47.5420   48.8710 C.2   134  TYR134      0.2619
     32  O         35.3520   46.4930   49.1930 O.2   134  TYR134     -0.2715
     33  CB        32.3600   48.0050   48.9840 C.3   134  TYR134      0.0574
     34  CG        31.8880   46.9520   49.9700 C.ar  134  TYR134     -0.0198
     35  CD1       32.4530   46.8490   51.2380 C.ar  134  TYR134     -0.0009
     36  CD2       30.8800   46.0660   49.6230 C.ar  134  TYR134     -0.0009
     37  CE1       32.0190   45.8690   52.1400 C.ar  134  TYR134      0.0417
     38  CE2       30.4380   45.0970   50.5030 C.ar  134  TYR134      0.0417
     39  CZ        31.0050   44.9960   51.7590 C.ar  134  TYR134      0.1957
     40  OH        30.5490   44.0100   52.6350 O.3   134  TYR134     -0.2866
     41  N         35.3060   48.7390   49.1660 N.am  135  ALA135     -0.1963
     42  CA        36.5680   48.8300   49.8810 C.3   135  ALA135      0.1728
     43  C         36.5980   50.1030   50.6940 C.2   135  ALA135      0.2616
     44  O         35.8330   51.0280   50.4300 O.2   135  ALA135     -0.2715
     45  CB        37.7430   48.7830   48.9210 C.3   135  ALA135      0.0334
     46  N         37.4650   50.1320   51.6990 N.am  136  TYR136     -0.1960
     47  CA        37.5320   51.2630   52.6130 C.3   136  TYR136      0.1771
     48  C         38.8330   52.0310   52.4430 C.2   136  TYR136      0.2619
     49  O         39.8780   51.4250   52.3330 O.2   136  TYR136     -0.2715
     50  CB        37.4290   50.7500   54.0400 C.3   136  TYR136      0.0574
     51  CG        36.0340   50.2440   54.3490 C.ar  136  TYR136     -0.0198
     52  CD1       35.6590   48.9380   54.0590 C.ar  136  TYR136     -0.0009
     53  CD2       35.0860   51.0880   54.8970 C.ar  136  TYR136     -0.0009
     54  CE1       34.3620   48.4850   54.3370 C.ar  136  TYR136      0.0417
     55  CE2       33.7980   50.6460   55.1670 C.ar  136  TYR136      0.0417
     56  CZ        33.4460   49.3500   54.8920 C.ar  136  TYR136      0.1957
     57  OH        32.1590   48.9290   55.1720 O.3   136  TYR136     -0.2866
     58  N         38.7530   53.3610   52.4470 N.am  137  TYR137     -0.1974
     59  CA        39.9420   54.2160   52.3330 C.3   137  TYR137      0.1639
     60  C         40.9630   53.9990   53.4310 C.2   137  TYR137      0.2290
     61  O         40.6340   53.5200   54.5220 O.2   137  TYR137     -0.2864
     62  CB        39.5490   55.6920   52.3750 C.3   137  TYR137      0.0560
     63  CG        38.7040   56.1400   51.2200 C.ar  137  TYR137     -0.0198
     64  CD1       37.5380   56.8650   51.4300 C.ar  137  TYR137     -0.0009
     65  CD2       39.0660   55.8380   49.9150 C.ar  137  TYR137     -0.0009
     66  CE1       36.7560   57.2840   50.3660 C.ar  137  TYR137      0.0417
     67  CE2       38.2930   56.2470   48.8450 C.ar  137  TYR137      0.0417
     68  CZ        37.1390   56.9700   49.0740 C.ar  137  TYR137      0.1957
     69  OH        36.3690   57.3770   48.0090 O.3   137  TYR137     -0.2866
     70  N         40.9970   54.0630   61.3540 N.3   141  TYR141     -0.1241
     71  CA        39.7400   53.5290   61.8430 C.3   141  TYR141      0.1605
     72  C         39.5940   52.0410   61.5470 C.2   141  TYR141      0.2264
     73  O         40.3020   51.4860   60.7020 O.2   141  TYR141     -0.2867
     74  CB        38.5770   54.2930   61.2220 C.3   141  TYR141      0.0534
     75  CG        38.4970   54.1380   59.7160 C.ar  141  TYR141     -0.0201
     76  CD1       37.6690   53.1780   59.1440 C.ar  141  TYR141     -0.0009
     77  CD2       39.2470   54.9540   58.8710 C.ar  141  TYR141     -0.0009
     78  CE1       37.5890   53.0290   57.7640 C.ar  141  TYR141      0.0417
     79  CE2       39.1660   54.8170   57.4870 C.ar  141  TYR141      0.0417
     80  CZ        38.3390   53.8510   56.9470 C.ar  141  TYR141      0.1957
     81  OH        38.2490   53.6990   55.5810 O.3   141  TYR141     -0.2866
     82  N         40.4300   47.7150   41.0160 N.3   171  HIS171     -0.1226
     83  CA        39.5480   48.8190   41.3920 C.3   171  HIS171      0.1752
     84  C         39.4830   48.9800   42.9130 C.2   171  HIS171      0.2595
     85  O         39.7320   50.0620   43.4720 O.2   171  HIS171     -0.2718
     86  CB        38.1560   48.4840   40.8100 C.3   171  HIS171      0.0759
     87  CG        37.0430   49.3980   41.2290 C.ar  171  HIS171      0.0818
     88  ND1       36.0840   49.8380   40.3390 N.ar  171  HIS171     -0.2268
     89  CD2       36.6970   49.9150   42.4320 C.ar  171  HIS171      0.1154
     90  CE1       35.2120   50.6020   40.9710 C.ar  171  HIS171      0.1986
     91  NE2       35.5600   50.6660   42.2420 N.ar  171  HIS171     -0.2212
     92  N         39.1340   47.8890   43.5900 N.am  172  GLU172     -0.1979
     93  CA        38.9890   47.9160   45.0580 C.3   172  GLU172      0.1602
     94  C         40.3040   48.2610   45.7510 C.2   172  GLU172      0.2287
     95  O         40.3400   49.0360   46.7060 O.2   172  GLU172     -0.2864
     96  CB        38.4720   46.5820   45.5630 C.3   172  GLU172      0.0415
     97  CG        37.0900   46.2110   45.0070 C.3   172  GLU172      0.1163
     98  CD        36.0510   47.3290   45.0210 C.2   172  GLU172      0.3649
     99  OE1       35.9350   48.0440   46.0190 O.co2 172  GLU172     -0.2457
    100  OE2       35.3540   47.4810   44.0160 O.co2 172  GLU172     -0.2457
    101  N         40.8360   51.9570   45.6770 N.3   175  HIS175     -0.1241
    102  CA        40.1070   52.6490   46.7570 C.3   175  HIS175      0.1621
    103  C         40.9070   52.4350   48.1000 C.2   175  HIS175      0.2264
    104  O         41.1110   53.3750   48.8910 O.2   175  HIS175     -0.2867
    105  CB        38.5920   52.1860   46.8230 C.3   175  HIS175      0.0745
    106  CG        37.7210   52.5450   45.6110 C.ar  175  HIS175      0.0817
    107  ND1       37.7870   53.7580   44.9610 N.ar  175  HIS175     -0.2268
    108  CD2       36.7080   51.8640   44.9890 C.ar  175  HIS175      0.1154
    109  CE1       36.9030   53.7960   43.9690 C.ar  175  HIS175      0.1986
    110  NE2       36.2240   52.6580   43.9570 N.ar  175  HIS175     -0.2212
    111  N         36.2350   57.2060   43.2810 N.3   181  HIS181     -0.1241
    112  CA        35.4830   57.2010   42.0260 C.3   181  HIS181      0.1621
    113  C         35.3600   58.6130   41.4940 C.2   181  HIS181      0.2264
    114  O         35.0850   59.5290   42.2590 O.2   181  HIS181     -0.2867
    115  CB        34.0820   56.6250   42.2310 C.3   181  HIS181      0.0745
    116  CG        34.0770   55.1480   42.4440 C.ar  181  HIS181      0.0817
    117  ND1       33.2140   54.5150   43.3130 N.ar  181  HIS181     -0.2268
    118  CD2       34.8630   54.1860   41.9180 C.ar  181  HIS181      0.1154
    119  CE1       33.4600   53.2150   43.2940 C.ar  181  HIS181      0.1986
    120  NE2       34.4600   52.9930   42.4580 N.ar  181  HIS181     -0.2212
    121  N         27.8140   56.0130   44.3310 N.3   186  ASN186     -0.1225
    122  CA        28.2050   54.7930   45.0170 C.3   186  ASN186      0.1785
    123  C         27.1030   53.7400   44.9550 C.2   186  ASN186      0.2597
    124  O         25.9190   54.0750   44.9210 O.2   186  ASN186     -0.2718
    125  CB        28.5630   55.1090   46.4700 C.3   186  ASN186      0.1169
    126  CG        29.4850   54.0810   47.0760 C.2   186  ASN186      0.2627
    127  OD1       29.5580   52.9510   46.6030 O.2   186  ASN186     -0.2716
    128  ND2       30.1990   54.4660   48.1250 N.am  186  ASN186     -0.0877
    129  N         27.4950   52.4700   44.9320 N.am  187  ALA187     -0.1979
    130  CA        26.5330   51.3750   44.8670 C.3   187  ALA187      0.1597
    131  C         25.6750   51.3160   46.1270 C.2   187  ALA187      0.2287
    132  O         26.1880   51.1340   47.2320 O.2   187  ALA187     -0.2864
    133  CB        27.2450   50.0470   44.6450 C.3   187  ALA187      0.0319
    134  N         32.0450   54.3900   37.0890 N.3   211  TYR211     -0.1241
    135  CA        30.9090   53.4740   37.0550 C.3   211  TYR211      0.1605
    136  C         30.3990   53.2430   35.6290 C.2   211  TYR211      0.2264
    137  O         29.5820   52.3520   35.3950 O.2   211  TYR211     -0.2867
    138  CB        29.7630   53.9740   37.9410 C.3   211  TYR211      0.0534
    139  CG        29.6510   53.2560   39.2690 C.ar  211  TYR211     -0.0201
    140  CD1       29.1910   53.9130   40.4000 C.ar  211  TYR211     -0.0009
    141  CD2       30.0080   51.9190   39.3900 C.ar  211  TYR211     -0.0009
    142  CE1       29.0870   53.2640   41.6140 C.ar  211  TYR211      0.0417
    143  CE2       29.9080   51.2580   40.6000 C.ar  211  TYR211      0.0417
    144  CZ        29.4460   51.9370   41.7070 C.ar  211  TYR211      0.1957
    145  OH        29.3410   51.2860   42.9120 O.3   211  TYR211     -0.2866
@<TRIPOS>BOND
     1   137   136    2
     2   136   135    1
     3   135   134    1
     4   135   138    1
     5   138   139    1
     6   139   141   ar
     7   139   140   ar
     8   141   143   ar
     9    88    90   ar
    10    88    87   ar
    11   140   142   ar
    12   143   144   ar
    13    86    87    1
    14    86    83    1
    15    90    91   ar
    16    82    83    1
    17    87    89   ar
    18    83    84    1
    19   113   112    1
    20   113   114    2
    21   142   144   ar
    22   144   145    1
    23   118   116   ar
    24   118   120   ar
    25   112   115    1
    26   112   111    1
    27   115   116    1
    28    91    89   ar
    29   116   117   ar
    30   120   119   ar
    31    84    85    2
    32    84    92   am
    33   119   117   ar
    34    92    93    1
    35   110   109   ar
    36   110   108   ar
    37   109   107   ar
    38   100    98   ar
    39   121   122    1
    40   133   130    1
    41   130   129    1
    42   130   131    1
    43   124   123    2
    44   129   123   am
    45   123   122    1
    46   107   106   ar
    47   108   106   ar
    48    97    98    1
    49    97    96    1
    50   122   125    1
    51    98    99   ar
    52    93    96    1
    53    93    94    1
    54    28    25    1
    55    24    25    1
    56   106   105    1
    57   101   102    1
    58    94    95    2
    59    25    26    1
    60    27    26    2
    61   131   132    2
    62   125   126    1
    63    26    29   am
    64   127   126    2
    65   102   105    1
    66   102   103    1
    67   126   128   am
    68    29    30    1
    69     1     2    1
    70    69    68    1
    71    30    31    1
    72    30    33    1
    73   103   104    2
    74    67    68   ar
    75    67    65   ar
    76    31    41   am
    77    31    32    2
    78    45    42    1
    79    33    34    1
    80     8     7   ar
    81    68    66   ar
    82    41    42    1
    83     6     5    1
    84     6     7    1
    85     2     5    1
    86     2     3    1
    87    36    34   ar
    88    36    38   ar
    89     7     9   ar
    90    42    43    1
    91    65    63   ar
    92    34    35   ar
    93     3     4    2
    94    66    64   ar
    95    44    43    2
    96    38    39   ar
    97    43    46   am
    98    63    64   ar
    99    63    62    1
   100    35    37   ar
   101    46    47    1
   102    39    37   ar
   103    39    40    1
   104    22    21   ar
   105    59    62    1
   106    59    58    1
   107    59    60    1
   108    49    48    2
   109    48    58   am
   110    48    47    1
   111    47    50    1
   112    21    23   ar
   113    21    20    1
   114    60    61    2
   115    50    51    1
   116    52    54   ar
   117    52    51   ar
   118    20    17    1
   119    54    56   ar
   120    51    53   ar
   121    56    55   ar
   122    56    57    1
   123    53    55   ar
   124    14    15    1
   125    14    11    1
   126    17    16    1
   127    17    18    1
   128    81    80    1
   129    11    12    1
   130    11    10    1
   131    18    19    2
   132    13    12    2
   133    80    79   ar
   134    80    78   ar
   135    79    77   ar
   136    78    76   ar
   137    77    75   ar
   138    76    75   ar
   139    75    74    1
   140    73    72    2
   141    74    71    1
   142    70    71    1
   143    72    71    1
