@<TRIPOS>MOLECULE
tmp/3hbzA05.pdb
 84 83 0 0 0
SMALL
GASTEIGER

@<TRIPOS>ATOM
      1  N         -8.2480   42.7840   -8.7300 N.3    23  THR23      -0.1203
      2  CA        -7.0420   43.5460   -8.3360 C.3    23  THR23       0.1994
      3  C         -5.9270   43.0910   -9.2530 C.2    23  THR23       0.2619
      4  O         -6.0870   42.0980   -9.9420 O.2    23  THR23      -0.2717
      5  CB        -6.6490   43.3080   -6.8590 C.3    23  THR23       0.1784
      6  OG1       -5.5860   44.2120   -6.4680 O.3    23  THR23      -0.2211
      7  CG2       -6.2370   41.8340   -6.6210 C.3    23  THR23       0.0376
      8  N         -4.8100   43.8170   -9.3020 N.am   24  SER24      -0.1938
      9  CA        -3.7120   43.4220  -10.1670 C.3    24  SER24       0.2040
     10  C         -3.0990   42.0920   -9.7780 C.2    24  SER24       0.2485
     11  O         -2.9170   41.7880   -8.6170 O.2    24  SER24      -0.2729
     12  CB        -2.6050   44.4640  -10.1430 C.3    24  SER24       0.2129
     13  OG        -3.0950   45.6270  -10.7410 O.3    24  SER24      -0.2179
     14  N         -2.6980   41.3170  -10.7680 N.am   25  PRO25      -0.2715
     15  CA        -2.0110   40.0600  -10.4640 C.3    25  PRO25       0.1536
     16  C         -0.7640   40.2950   -9.6490 C.2    25  PRO25       0.2598
     17  O         -0.1090   41.2800   -9.8520 O.2    25  PRO25      -0.2715
     18  CB        -1.6470   39.5060  -11.8420 C.3    25  PRO25       0.0310
     19  CG        -2.6120   40.1190  -12.7650 C.3    25  PRO25       0.0237
     20  CD        -3.0260   41.4470  -12.1990 C.3    25  PRO25       0.0939
     21  N         -0.4740   39.3950   -8.7160 N.am   26  ILE26      -0.1964
     22  CA         0.6780   39.5130   -7.8690 C.3    26  ILE26       0.1727
     23  C          1.7310   38.5480   -8.4320 C.2    26  ILE26       0.2616
     24  O          1.5750   37.3040   -8.4040 O.2    26  ILE26      -0.2715
     25  CB         0.3670   39.1920   -6.3800 C.3    26  ILE26       0.0290
     26  CG1       -0.5990   40.2660   -5.8590 C.3    26  ILE26       0.0022
     27  CG2        1.6870   39.1500   -5.5790 C.3    26  ILE26       0.0023
     28  CD1       -1.1960   39.9830   -4.4770 C.3    26  ILE26       0.0001
     29  N          2.7760   39.1520   -8.9650 N.am   27  ILE27      -0.1977
     30  CA         3.8810   38.4290   -9.5760 C.3    27  ILE27       0.1596
     31  C          5.1100   38.4050   -8.6690 C.2    27  ILE27       0.2287
     32  O          5.5540   39.4230   -8.2060 O.2    27  ILE27      -0.2864
     33  CB         4.2170   39.0510  -10.9380 C.3    27  ILE27       0.0276
     34  CG1        2.9230   39.0860  -11.7500 C.3    27  ILE27       0.0022
     35  CG2        5.3190   38.1920  -11.6430 C.3    27  ILE27       0.0022
     36  CD1        3.0510   39.6220  -13.2060 C.3    27  ILE27       0.0001
     37  N          0.9310   42.7860   -1.2620 N.3   181  SER181     -0.1202
     38  CA         2.0960   42.1990   -1.8770 C.3   181  SER181      0.2020
     39  C          3.3560   43.0160   -1.6270 C.2   181  SER181      0.2619
     40  O          3.2920   44.1860   -1.2270 O.2   181  SER181     -0.2717
     41  CB         1.8620   42.0290   -3.3860 C.3   181  SER181      0.2103
     42  OG         1.6000   43.2720   -3.9900 O.3   181  SER181     -0.2182
     43  N          4.5010   42.3820   -1.8670 N.am  182  PHE182     -0.1961
     44  CA         5.8050   43.0420   -1.6810 C.3   182  PHE182      0.1771
     45  C          6.4530   43.1960   -3.0490 C.2   182  PHE182      0.2619
     46  O          6.7100   42.2340   -3.7260 O.2   182  PHE182     -0.2715
     47  CB         6.7310   42.2580   -0.7660 C.3   182  PHE182      0.0574
     48  CG         8.0330   43.0050   -0.4140 C.ar  182  PHE182     -0.0200
     49  CD1        8.0270   44.0030    0.5090 C.ar  182  PHE182     -0.0042
     50  CD2        9.2130   42.7140   -1.0440 C.ar  182  PHE182     -0.0042
     51  CE1        9.1780   44.6830    0.8460 C.ar  182  PHE182     -0.0003
     52  CE2       10.3790   43.4160   -0.7380 C.ar  182  PHE182     -0.0003
     53  CZ        10.3530   44.3810    0.2150 C.ar  182  PHE182     -0.0000
     54  N          6.6730   44.4320   -3.4730 N.am  183  ASP183     -0.1971
     55  CA         7.2220   44.6980   -4.7920 C.3   183  ASP183      0.1709
     56  C          8.7280   44.8030   -4.6730 C.2   183  ASP183      0.2293
     57  O          9.2640   45.8470   -4.2920 O.2   183  ASP183     -0.2864
     58  CB         6.5880   45.9580   -5.3470 C.3   183  ASP183      0.1436
     59  CG         7.2120   46.4240   -6.6770 C.2   183  ASP183      0.3671
     60  OD1        8.1980   45.8510   -7.1510 O.co2 183  ASP183     -0.2456
     61  OD2        6.7050   47.4020   -7.1850 O.co2 183  ASP183     -0.2456
     62  N          2.8790   46.8870   -0.5090 N.3   195  LYS195     -0.1245
     63  CA         1.6050   47.2400   -1.0810 C.3   195  LYS195      0.1561
     64  C          0.5070   46.6080   -0.2570 C.2   195  LYS195      0.2260
     65  O          0.3610   45.4060   -0.2320 O.2   195  LYS195     -0.2867
     66  CB         1.5100   46.8010   -2.5320 C.3   195  LYS195      0.0271
     67  CG         2.5080   47.5460   -3.4400 C.3   195  LYS195      0.0035
     68  CD         2.3620   47.1670   -4.9020 C.3   195  LYS195      0.0206
     69  CE         3.0400   48.2050   -5.8270 C.3   195  LYS195      0.1093
     70  NZ         3.1700   47.7670   -7.2700 N.3   195  LYS195     -0.1314
     71  N         -4.7350   52.0560   -6.7770 N.3   246  PRO246     -0.2102
     72  CA        -5.0130   50.6120   -6.8010 C.3   246  PRO246      0.1504
     73  C         -4.6220   49.9230   -5.5000 C.2   246  PRO246      0.2576
     74  O         -5.0360   48.7800   -5.2480 O.2   246  PRO246     -0.2718
     75  CB        -4.1520   50.1030   -7.9720 C.3   246  PRO246      0.0282
     76  CG        -3.0410   51.1330   -8.0970 C.3   246  PRO246      0.0208
     77  CD        -3.6480   52.4360   -7.7190 C.3   246  PRO246      0.0893
     78  N         -3.7760   50.5970   -4.7290 N.am  247  THR247     -0.1953
     79  CA        -3.2760   50.1010   -3.4690 C.3   247  THR247      0.1897
     80  C         -2.8220   51.3080   -2.6290 C.2   247  THR247      0.2313
     81  O         -2.6490   52.3960   -3.1440 O.2   247  THR247     -0.2863
     82  CB        -2.0960   49.1690   -3.7120 C.3   247  THR247      0.1794
     83  OG1       -1.7520   48.5790   -2.4810 O.3   247  THR247     -0.2208
     84  CG2       -0.8530   49.9460   -4.3220 C.3   247  THR247      0.0378
@<TRIPOS>BOND
     1    36    34    1
     2    19    20    1
     3    19    18    1
     4    20    14    1
     5    18    15    1
     6    34    33    1
     7    35    33    1
     8    33    30    1
     9    14    15    1
    10    14    10   am
    11    13    12    1
    12    15    16    1
    13     9    12    1
    14     9    10    1
    15     9     8    1
    16     4     3    2
    17    17    16    2
    18    10    11    2
    19    16    21   am
    20    30    29    1
    21    30    31    1
    22     8     3   am
    23     3     2    1
    24    29    23   am
    25     1     2    1
    26    21    22    1
    27    31    32    2
    28    23    24    2
    29    23    22    1
    30     2     5    1
    31    76    75    1
    32    76    77    1
    33    75    72    1
    34    22    25    1
    35    77    71    1
    36    70    69    1
    37    61    59   ar
    38    60    59   ar
    39     5     7    1
    40     5     6    1
    41    72    71    1
    42    72    73    1
    43    59    58    1
    44    25    26    1
    45    25    27    1
    46    26    28    1
    47    69    68    1
    48    73    74    2
    49    73    78   am
    50    58    55    1
    51    68    67    1
    52    55    56    1
    53    55    54    1
    54    78    79    1
    55    56    57    2
    56    84    82    1
    57    42    41    1
    58    46    45    2
    59    82    79    1
    60    82    83    1
    61    54    45   am
    62    79    80    1
    63    67    66    1
    64    41    38    1
    65    81    80    2
    66    45    44    1
    67    66    63    1
    68    38    39    1
    69    38    37    1
    70    43    44    1
    71    43    39   am
    72    44    47    1
    73    39    40    2
    74    63    62    1
    75    63    64    1
    76    50    52   ar
    77    50    48   ar
    78    47    48    1
    79    52    53   ar
    80    48    49   ar
    81    64    65    2
    82    53    51   ar
    83    49    51   ar
