@<TRIPOS>MOLECULE
tmp/3hbzA00.pdb
 98 91 0 0 0
SMALL
GASTEIGER

@<TRIPOS>ATOM
      1  N        -12.9900   40.3980  -15.6740 N.3    21  VAL21      -0.1245
      2  CA       -12.5450   41.5010  -14.8230 C.3    21  VAL21       0.1561
      3  C        -11.8310   40.8770  -13.6320 C.2    21  VAL21       0.2260
      4  O        -12.3950   40.0400  -12.8980 O.2    21  VAL21      -0.2867
      5  CB       -13.6930   42.4170  -14.3330 C.3    21  VAL21       0.0252
      6  CG1      -13.1160   43.6580  -13.5910 C.3    21  VAL21       0.0019
      7  CG2      -14.5830   42.8600  -15.5160 C.3    21  VAL21       0.0019
      8  N        -10.0710   41.3550   -9.9760 N.3    22  THR22      -0.1203
      9  CA       -10.5920   42.1840   -8.8880 C.3    22  THR22       0.1994
     10  C         -9.4910   43.1110   -8.3870 C.2    22  THR22       0.2618
     11  O         -9.7750   44.1010   -7.7250 O.2    22  THR22      -0.2717
     12  CB       -11.1190   41.3340   -7.7670 C.3    22  THR22       0.1784
     13  OG1      -10.0210   40.5710   -7.2480 O.3    22  THR22      -0.2211
     14  CG2      -12.2870   40.3930   -8.2870 C.3    22  THR22       0.0376
     15  N         -8.2480   42.7840   -8.7300 N.am   23  THR23      -0.1952
     16  CA        -7.0420   43.5460   -8.3360 C.3    23  THR23       0.1897
     17  C         -5.9270   43.0910   -9.2530 C.2    23  THR23       0.2313
     18  O         -6.0870   42.0980   -9.9420 O.2    23  THR23      -0.2863
     19  CB        -6.6490   43.3080   -6.8590 C.3    23  THR23       0.1794
     20  OG1       -5.5860   44.2120   -6.4680 O.3    23  THR23      -0.2208
     21  CG2       -6.2370   41.8340   -6.6210 C.3    23  THR23       0.0378
     22  N        -15.4100   42.4400    0.6540 N.3   201  ARG201     -0.1245
     23  CA       -16.8010   42.8150    0.3440 C.3   201  ARG201      0.1563
     24  C        -17.7470   42.7710    1.5560 C.2   201  ARG201      0.2260
     25  O        -18.9420   42.6740    1.4010 O.2   201  ARG201     -0.2867
     26  CB       -17.3620   41.9590   -0.8120 C.3   201  ARG201      0.0307
     27  CG       -16.5780   42.0740   -2.1270 C.3   201  ARG201      0.0489
     28  CD       -17.1480   41.1470   -3.2100 C.3   201  ARG201      0.2205
     29  NE       -16.1810   40.9510   -4.3110 N.pl3 201  ARG201     -0.0865
     30  CZ       -16.3670   41.2690   -5.5970 C.cat 201  ARG201      0.5346
     31  NH1      -17.4930   41.8190   -6.0050 N.pl3 201  ARG201      0.1354
     32  NH2      -15.4110   41.0260   -6.4940 N.pl3 201  ARG201      0.1354
     33  N        -10.6070   51.8210   -3.6920 N.3   241  THR241     -0.1203
     34  CA        -9.6660   51.7900   -4.7960 C.3   241  THR241      0.1994
     35  C        -10.1970   52.6310   -5.9530 C.2   241  THR241      0.2619
     36  O        -11.3550   52.9830   -5.9900 O.2   241  THR241     -0.2717
     37  CB        -9.4010   50.3560   -5.2740 C.3   241  THR241      0.1784
     38  OG1      -10.6320   49.7380   -5.6090 O.3   241  THR241     -0.2211
     39  CG2       -8.7190   49.5290   -4.1860 C.3   241  THR241      0.0376
     40  N         -9.3080   53.0050   -6.8590 N.am  242  SER242     -0.1937
     41  CA        -9.6900   53.6720   -8.0910 C.3   242  SER242      0.2055
     42  C         -8.5750   53.4370   -9.0870 C.2   242  SER242      0.2642
     43  O         -7.5710   52.8110   -8.7700 O.2   242  SER242     -0.2714
     44  CB        -9.8090   55.1720   -7.8550 C.3   242  SER242      0.2130
     45  OG        -8.5330   55.6620   -7.4530 O.3   242  SER242     -0.2179
     46  N         -8.7490   53.9880  -10.2790 N.am  243  GLU243     -0.1976
     47  CA        -7.7450   53.9420  -11.3080 C.3   243  GLU243      0.1602
     48  C         -6.4410   54.5310  -10.7990 C.2   243  GLU243      0.2287
     49  O         -5.3980   53.9240  -10.9830 O.2   243  GLU243     -0.2864
     50  CB        -8.2390   54.6810  -12.5790 C.3   243  GLU243      0.0415
     51  CG        -7.5250   54.2180  -13.8500 C.3   243  GLU243      0.1163
     52  CD        -7.8680   55.0670  -15.0870 C.2   243  GLU243      0.3649
     53  OE1       -8.9320   55.7310  -15.0920 O.co2 243  GLU243     -0.2457
     54  OE2       -7.0560   55.0650  -16.0430 O.co2 243  GLU243     -0.2457
     55  N        -20.0710   52.7000    0.9140 N.3   289  ASP289     -0.1239
     56  CA       -21.2210   52.6070    0.0320 C.3   289  ASP289      0.1674
     57  C        -21.5170   51.1370   -0.2790 C.2   289  ASP289      0.2266
     58  O        -20.6190   50.4130   -0.7080 O.2   289  ASP289     -0.2867
     59  CB       -20.9140   53.3610   -1.2610 C.3   289  ASP289      0.1410
     60  CG       -22.0520   53.3020   -2.2640 C.2   289  ASP289      0.3668
     61  OD1      -23.1000   53.9150   -2.0010 O.co2 289  ASP289     -0.2456
     62  OD2      -21.9040   52.6770   -3.3300 O.co2 289  ASP289     -0.2456
     63  N        -23.2780   49.5290   -2.7020 N.3   291  GLU291     -0.1231
     64  CA       -23.0390   49.0990   -4.0730 C.3   291  GLU291      0.1699
     65  C        -21.5290   49.0210   -4.4160 C.2   291  GLU291      0.2592
     66  O        -21.1120   48.0960   -5.1100 O.2   291  GLU291     -0.2718
     67  CB       -23.7730   49.9910   -5.0730 C.3   291  GLU291      0.0402
     68  CG       -25.3110   49.8980   -4.9620 C.3   291  GLU291      0.1161
     69  CD       -25.9080   50.3190   -3.6370 C.2   291  GLU291      0.3649
     70  OE1      -25.5080   51.4320   -3.2250 O.co2 291  GLU291     -0.2457
     71  OE2      -26.7250   49.5510   -3.0280 O.co2 291  GLU291     -0.2457
     72  N        -20.7180   49.9710   -3.9390 N.am  292  LYS292     -0.1980
     73  CA       -19.2670   49.8670   -4.1510 C.3   292  LYS292      0.1596
     74  C        -18.7540   48.6260   -3.4400 C.2   292  LYS292      0.2287
     75  O        -17.9130   47.8980   -3.9660 O.2   292  LYS292     -0.2864
     76  CB       -18.5580   51.1380   -3.6720 C.3   292  LYS292      0.0298
     77  CG       -18.8510   52.3760   -4.5730 C.3   292  LYS292      0.0038
     78  CD       -18.0480   53.6090   -4.1160 C.3   292  LYS292      0.0206
     79  CE       -18.3980   54.8460   -4.9400 C.3   292  LYS292      0.1093
     80  NZ       -17.3980   55.9120   -4.7180 N.3   292  LYS292     -0.1314
     81  N        -19.5920   45.4660   -5.2730 N.3   295  ALA295     -0.1231
     82  CA       -18.8040   45.4580   -6.5040 C.3   295  ALA295      0.1694
     83  C        -17.3000   45.2400   -6.2900 C.2   295  ALA295      0.2593
     84  O        -16.5670   45.0900   -7.2660 O.2   295  ALA295     -0.2718
     85  CB       -19.0390   46.7370   -7.3160 C.3   295  ALA295      0.0304
     86  N        -16.8360   45.2510   -5.0360 N.am  296  GLY296     -0.1942
     87  CA       -15.4260   45.0240   -4.7560 C.3   296  GLY296      0.2014
     88  C        -14.5130   46.2440   -4.8810 C.2   296  GLY296      0.2638
     89  O        -13.3040   46.0850   -5.0950 O.2   296  GLY296     -0.2714
     90  N        -15.0760   47.4380   -4.7070 N.am  297  LYS297     -0.1977
     91  CA       -14.3350   48.7150   -4.7750 C.3   297  LYS297      0.1596
     92  C        -13.5990   49.0950   -3.4870 C.2   297  LYS297      0.2287
     93  O        -12.9850   50.1570   -3.4390 O.2   297  LYS297     -0.2864
     94  CB       -15.2950   49.8720   -5.1190 C.3   297  LYS297      0.0298
     95  CG       -16.0340   49.7660   -6.4360 C.3   297  LYS297      0.0038
     96  CD       -15.0760   49.6280   -7.5990 C.3   297  LYS297      0.0206
     97  CE       -15.7750   49.7770   -8.9670 C.3   297  LYS297      0.1093
     98  NZ       -14.7810   49.4250  -10.0350 N.3   297  LYS297     -0.1314
@<TRIPOS>BOND
     1    54    52   ar
     2     1     2    1
     3     7     5    1
     4    53    52   ar
     5    52    51    1
     6     2     5    1
     7     2     3    1
     8     5     6    1
     9    51    50    1
    10     3     4    2
    11    50    47    1
    12    47    48    1
    13    47    46    1
    14    49    48    2
    15    46    42   am
    16    98    97    1
    17     8     9    1
    18    18    17    2
    19    17    16    1
    20    42    43    2
    21    42    41    1
    22    97    96    1
    23     9    10    1
    24     9    12    1
    25    15    10   am
    26    15    16    1
    27    10    11    2
    28    16    19    1
    29    14    12    1
    30    41    44    1
    31    41    40    1
    32    44    45    1
    33    12    13    1
    34    96    95    1
    35    85    82    1
    36    84    83    2
    37    19    21    1
    38    19    20    1
    39    40    35   am
    40    82    83    1
    41    82    81    1
    42    32    30    1
    43    95    94    1
    44    83    86   am
    45    31    30    1
    46    36    35    2
    47    35    34    1
    48    38    37    1
    49    30    29    2
    50    37    34    1
    51    37    39    1
    52    94    91    1
    53    66    65    2
    54    89    88    2
    55    67    68    1
    56    67    64    1
    57    86    87    1
    58    68    69    1
    59    79    80    1
    60    79    78    1
    61    88    87    1
    62    88    90   am
    63    34    33    1
    64    91    90    1
    65    91    92    1
    66    77    78    1
    67    77    76    1
    68    65    64    1
    69    65    72   am
    70    29    28    1
    71    73    72    1
    72    73    76    1
    73    73    74    1
    74    64    63    1
    75    75    74    2
    76    69    70   ar
    77    69    71   ar
    78    92    93    2
    79    62    60   ar
    80    28    27    1
    81    60    61   ar
    82    60    59    1
    83    27    26    1
    84    59    56    1
    85    26    23    1
    86    58    57    2
    87    57    56    1
    88    56    55    1
    89    23    22    1
    90    23    24    1
    91    25    24    2
