@<TRIPOS>MOLECULE
tmp/3hbzA07.pdb
 76 75 0 0 0
SMALL
GASTEIGER

@<TRIPOS>ATOM
      1  N          2.3000   27.2040    5.5230 N.3   104  THR104     -0.1203
      2  CA         3.2800   27.9720    4.7700 C.3   104  THR104      0.1994
      3  C          3.6330   27.1900    3.5030 C.2   104  THR104      0.2618
      4  O          3.3550   25.9820    3.4020 O.2   104  THR104     -0.2717
      5  CB         4.5540   28.1670    5.5560 C.3   104  THR104      0.1784
      6  OG1        5.0970   26.8890    5.8350 O.3   104  THR104     -0.2211
      7  CG2        4.3070   28.9610    6.8710 C.3   104  THR104      0.0376
      8  N          4.2420   27.8660    2.5270 N.am  105  LEU105     -0.1965
      9  CA         4.6280   27.2340    1.2640 C.3   105  LEU105      0.1728
     10  C          5.9030   26.4150    1.4270 C.2   105  LEU105      0.2617
     11  O          6.8980   26.8970    1.9110 O.2   105  LEU105     -0.2715
     12  CB         4.7730   28.2510    0.1300 C.3   105  LEU105      0.0311
     13  CG         3.5430   28.9580   -0.4680 C.3   105  LEU105      0.0022
     14  CD1        4.0260   30.0100   -1.4920 C.3   105  LEU105      0.0001
     15  CD2        2.5440   28.0080   -1.1520 C.3   105  LEU105      0.0001
     16  N          5.8500   25.1490    1.0430 N.am  106  GLY106     -0.1940
     17  CA         7.0150   24.2670    1.1340 C.3   106  GLY106      0.2014
     18  C          8.0460   24.5630    0.0480 C.2   106  GLY106      0.2639
     19  O          7.7340   25.1730   -0.9770 O.2   106  GLY106     -0.2714
     20  N          9.2990   24.1700    0.3010 N.am  107  GLY107     -0.1939
     21  CA        10.3760   24.3350   -0.6800 C.3   107  GLY107      0.2014
     22  C         10.8930   25.7460   -0.9420 C.2   107  GLY107      0.2638
     23  O         11.5380   25.9790   -1.9490 O.2   107  GLY107     -0.2714
     24  N         10.6160   26.6920   -0.0660 N.am  108  GLN108     -0.1977
     25  CA        11.0830   28.0730   -0.2530 C.3   108  GLN108      0.1601
     26  C         12.2300   28.3370    0.6970 C.2   108  GLN108      0.2287
     27  O         12.3570   27.6870    1.7060 O.2   108  GLN108     -0.2864
     28  CB         9.9460   29.0340    0.0440 C.3   108  GLN108      0.0394
     29  CG         8.7280   28.8190   -0.8040 C.3   108  GLN108      0.0908
     30  CD         8.8750   29.3560   -2.2140 C.2   108  GLN108      0.2608
     31  OE1        9.7510   30.1560   -2.5180 O.2   108  GLN108     -0.2717
     32  NE2        8.0040   28.9150   -3.0750 N.am  108  GLN108     -0.0878
     33  N         12.5440   31.0700    2.4060 N.3   110  TYR110     -0.1227
     34  CA        11.9960   31.7390    3.5780 C.3   110  TYR110      0.1736
     35  C         10.5000   31.4360    3.6590 C.2   110  TYR110      0.2595
     36  O          9.9090   30.9040    2.7330 O.2   110  TYR110     -0.2718
     37  CB        12.2620   33.2500    3.5480 C.3   110  TYR110      0.0548
     38  CG        11.7520   33.9550    2.2970 C.ar  110  TYR110     -0.0200
     39  CD1       10.3810   34.1050    2.0610 C.ar  110  TYR110     -0.0009
     40  CD2       12.6500   34.5060    1.3550 C.ar  110  TYR110     -0.0009
     41  CE1        9.9170   34.7540    0.9270 C.ar  110  TYR110      0.0417
     42  CE2       12.1940   35.1450    0.1810 C.ar  110  TYR110      0.0417
     43  CZ        10.8410   35.2860   -0.0240 C.ar  110  TYR110      0.1957
     44  OH        10.4070   35.9080   -1.1660 O.3   110  TYR110     -0.2866
     45  N          9.8950   31.8010    4.7730 N.am  111  TYR111     -0.1976
     46  CA         8.5350   31.4620    5.0120 C.3   111  TYR111      0.1639
     47  C          7.6000   32.3990    4.3120 C.2   111  TYR111      0.2290
     48  O          7.7570   33.6380    4.3880 O.2   111  TYR111     -0.2864
     49  CB         8.2540   31.5360    6.5010 C.3   111  TYR111      0.0560
     50  CG         8.7800   30.3420    7.2700 C.ar  111  TYR111     -0.0198
     51  CD1        8.0970   29.1530    7.2490 C.ar  111  TYR111     -0.0009
     52  CD2        9.9150   30.4170    8.0400 C.ar  111  TYR111     -0.0009
     53  CE1        8.5080   28.0760    7.9820 C.ar  111  TYR111      0.0417
     54  CE2       10.3570   29.3030    8.7930 C.ar  111  TYR111      0.0417
     55  CZ         9.6460   28.1450    8.7430 C.ar  111  TYR111      0.1957
     56  OH        10.0140   27.0200    9.4450 O.3   111  TYR111     -0.2866
     57  N         19.2770   30.8360    6.4710 N.3   138  THR138     -0.1203
     58  CA        18.1600   29.9410    6.4240 C.3   138  THR138      0.1994
     59  C         16.8810   30.7300    6.7830 C.2   138  THR138      0.2618
     60  O         16.9280   31.9160    7.1640 O.2   138  THR138     -0.2717
     61  CB        18.2580   28.7770    7.4660 C.3   138  THR138      0.1784
     62  OG1       18.1440   29.3420    8.7630 O.3   138  THR138     -0.2211
     63  CG2       19.5350   27.9790    7.3170 C.3   138  THR138      0.0376
     64  N         15.7560   30.0600    6.6030 N.am  139  ALA139     -0.1965
     65  CA        14.4330   30.6610    6.7580 C.3   139  ALA139      0.1728
     66  C         14.2810   31.3390    8.1050 C.2   139  ALA139      0.2616
     67  O         13.6390   32.3700    8.1920 O.2   139  ALA139     -0.2715
     68  CB        13.3020   29.5690    6.5260 C.3   139  ALA139      0.0334
     69  N         14.9030   30.7730    9.1360 N.am  140  ASP140     -0.1971
     70  CA        14.8670   31.3150   10.5150 C.3   140  ASP140      0.1709
     71  C         15.6800   32.5800   10.7830 C.2   140  ASP140      0.2293
     72  O         15.6020   33.1330   11.8810 O.2   140  ASP140     -0.2864
     73  CB        15.3330   30.2100   11.5080 C.3   140  ASP140      0.1436
     74  CG        14.1690   29.3510   11.9580 C.2   140  ASP140      0.3671
     75  OD1       13.0590   29.5260   11.3670 O.co2 140  ASP140     -0.2456
     76  OD2       14.3290   28.5630   12.9150 O.co2 140  ASP140     -0.2456
@<TRIPOS>BOND
     1    32    30   am
     2    31    30    2
     3    30    29    1
     4    23    22    2
     5    14    13    1
     6    44    43    1
     7    15    13    1
     8    19    18    2
     9    22    21    1
    10    22    24   am
    11    29    28    1
    12    21    20    1
    13    13    12    1
    14    25    24    1
    15    25    28    1
    16    25    26    1
    17    43    42   ar
    18    43    41   ar
    19    18    20   am
    20    18    17    1
    21    12     9    1
    22    42    40   ar
    23    26    27    2
    24    41    39   ar
    25    16    17    1
    26    16    10   am
    27     9    10    1
    28     9     8    1
    29    40    38   ar
    30    10    11    2
    31    39    38   ar
    32    38    37    1
    33    33    34    1
    34     8     3   am
    35    36    35    2
    36     4     3    2
    37     3     2    1
    38    37    34    1
    39    34    35    1
    40    35    45   am
    41    47    48    2
    42    47    46    1
    43     2     1    1
    44     2     5    1
    45    45    46    1
    46    46    49    1
    47     5     6    1
    48     5     7    1
    49    58    57    1
    50    58    59    1
    51    58    61    1
    52    49    50    1
    53    68    65    1
    54    64    65    1
    55    64    59   am
    56    65    66    1
    57    59    60    2
    58    51    50   ar
    59    51    53   ar
    60    50    52   ar
    61    63    61    1
    62    61    62    1
    63    53    55   ar
    64    52    54   ar
    65    66    67    2
    66    66    69   am
    67    55    54   ar
    68    55    56    1
    69    69    70    1
    70    70    71    1
    71    70    73    1
    72    71    72    2
    73    75    74   ar
    74    73    74    1
    75    74    76   ar
