@<TRIPOS>MOLECULE
tmp/3hc8A00.pdb
 178 167 0 0 0
SMALL
GASTEIGER

@<TRIPOS>ATOM
      1  N         19.2620    4.6800   13.2130 N.3    77  TYR77      -0.1227
      2  CA        18.0140    3.8890   13.2930 C.3    77  TYR77       0.1736
      3  C         17.2380    4.1150   14.5940 C.2    77  TYR77       0.2595
      4  O         16.0680    4.4860   14.5390 O.2    77  TYR77      -0.2718
      5  CB        18.3040    2.4030   13.0490 C.3    77  TYR77       0.0548
      6  CG        17.0980    1.4790   13.2260 C.ar   77  TYR77      -0.0200
      7  CD1       15.9640    1.6040   12.4280 C.ar   77  TYR77      -0.0009
      8  CD2       17.0950    0.4950   14.1940 C.ar   77  TYR77      -0.0009
      9  CE1       14.8630    0.7540   12.5940 C.ar   77  TYR77       0.0417
     10  CE2       15.9980   -0.3450   14.3730 C.ar   77  TYR77       0.0417
     11  CZ        14.8970   -0.2240   13.5680 C.ar   77  TYR77       0.1957
     12  OH        13.8310   -1.0880   13.7680 O.3    77  TYR77      -0.2866
     13  N         17.8910    3.9470   15.7530 N.am   78  HIS78      -0.1975
     14  CA        17.2180    4.0740   17.0520 C.3    78  HIS78       0.1656
     15  C         17.0780    5.5280   17.4750 C.2    78  HIS78       0.2291
     16  O         17.7030    5.9930   18.4470 O.2    78  HIS78      -0.2864
     17  CB        17.9380    3.2800   18.1400 C.3    78  HIS78       0.0771
     18  CG        17.8970    1.8010   17.9260 C.ar   78  HIS78       0.0820
     19  ND1       19.0030    1.0750   17.5520 N.ar   78  HIS78      -0.2267
     20  CD2       16.8880    0.9080   18.0620 C.ar   78  HIS78       0.1154
     21  CE1       18.6820   -0.2030   17.4670 C.ar   78  HIS78       0.1986
     22  NE2       17.4010   -0.3290   17.7640 N.ar   78  HIS78      -0.2212
     23  N         26.3020   -4.8490   24.4420 N.3   128  GLN128     -0.1245
     24  CA        27.6150   -5.4990   24.4950 C.3   128  GLN128      0.1566
     25  C         28.7580   -4.4700   24.3950 C.2   128  GLN128      0.2260
     26  O         29.7770   -4.5900   25.0890 O.2   128  GLN128     -0.2867
     27  CB        27.7190   -6.5690   23.3920 C.3   128  GLN128      0.0367
     28  CG        26.7850   -7.7890   23.5790 C.3   128  GLN128      0.0905
     29  CD        25.2770   -7.5110   23.3660 C.2   128  GLN128      0.2608
     30  OE1       24.8710   -6.5940   22.6270 O.2   128  GLN128     -0.2717
     31  NE2       24.4430   -8.3160   24.0290 N.am  128  GLN128     -0.0878
     32  N         14.5090   -5.7360   24.7600 N.3   190  ASP190     -0.1225
     33  CA        15.7630   -6.4640   24.6960 C.3   190  ASP190      0.1805
     34  C         15.5390   -7.8340   24.0530 C.2   190  ASP190      0.2598
     35  O         14.9180   -8.7220   24.6420 O.2   190  ASP190     -0.2718
     36  CB        16.3580   -6.6610   26.1020 C.3   190  ASP190      0.1424
     37  CG        17.7420   -7.3000   26.0770 C.2   190  ASP190      0.3668
     38  OD1       18.2470   -7.6320   24.9890 O.co2 190  ASP190     -0.2456
     39  OD2       18.3300   -7.4980   27.1720 O.co2 190  ASP190     -0.2456
     40  N         16.0900   -8.0060   22.8640 N.am  191  LEU191     -0.1966
     41  CA        15.8940   -9.2230   22.0760 C.3   191  LEU191      0.1728
     42  C         16.3810  -10.4840   22.8330 C.2   191  LEU191      0.2616
     43  O         15.8820  -11.5890   22.6070 O.2   191  LEU191     -0.2715
     44  CB        16.5820   -9.0560   20.7130 C.3   191  LEU191      0.0311
     45  CG        15.8360   -9.1850   19.3690 C.3   191  LEU191      0.0022
     46  CD1       14.3170   -8.9340   19.3770 C.3   191  LEU191      0.0001
     47  CD2       16.5360   -8.3020   18.3570 C.3   191  LEU191      0.0001
     48  N         17.3260  -10.3120   23.7620 N.am  192  ALA192     -0.1977
     49  CA        17.7200  -11.3960   24.6580 C.3   192  ALA192      0.1597
     50  C         16.5640  -11.9040   25.5030 C.2   192  ALA192      0.2287
     51  O         16.3860  -13.1200   25.6440 O.2   192  ALA192     -0.2864
     52  CB        18.8780  -10.9590   25.5670 C.3   192  ALA192      0.0319
     53  N         13.9710  -13.8220   23.2660 N.3   195  ILE195     -0.1245
     54  CA        14.4230  -15.1980   23.0340 C.3   195  ILE195      0.1561
     55  C         14.1720  -16.0920   24.2410 C.2   195  ILE195      0.2260
     56  O         13.7200  -17.2370   24.0940 O.2   195  ILE195     -0.2867
     57  CB        15.9250  -15.2330   22.6800 C.3   195  ILE195      0.0252
     58  CG1       16.1340  -14.6600   21.2820 C.3   195  ILE195      0.0019
     59  CG2       16.4880  -16.6600   22.7550 C.3   195  ILE195      0.0019
     60  CD1       17.5300  -14.1480   21.0590 C.3   195  ILE195      0.0001
     61  N         10.0150   -4.5830   15.8250 N.3   231  LEU231     -0.1245
     62  CA        10.7100   -5.1640   14.6810 C.3   231  LEU231      0.1561
     63  C          9.9120   -4.9540   13.3990 C.2   231  LEU231      0.2260
     64  O         10.3600   -5.3750   12.3470 O.2   231  LEU231     -0.2867
     65  CB        10.9630   -6.6660   14.8690 C.3   231  LEU231      0.0270
     66  CG        11.8490   -7.0590   16.0630 C.3   231  LEU231      0.0019
     67  CD1       11.8780   -8.5840   16.2550 C.3   231  LEU231      0.0001
     68  CD2       13.2510   -6.4810   15.8740 C.3   231  LEU231      0.0001
     69  N          9.3220   -2.7930   11.1180 N.3   233  ALA233     -0.1231
     70  CA         9.8390   -2.2120    9.8730 C.3   233  ALA233      0.1694
     71  C         10.1450   -3.3400    8.8830 C.2   233  ALA233      0.2591
     72  O          9.9670   -3.1910    7.6680 O.2   233  ALA233     -0.2718
     73  CB        11.0870   -1.3630   10.1280 C.3   233  ALA233      0.0304
     74  N         10.5770   -4.4830    9.4120 N.am  234  ILE234     -0.1980
     75  CA        10.9360   -5.6420    8.5940 C.3   234  ILE234      0.1595
     76  C          9.7310   -6.2320    7.8420 C.2   234  ILE234      0.2287
     77  O          9.9000   -7.0230    6.9180 O.2   234  ILE234     -0.2864
     78  CB        11.6200   -6.7380    9.4680 C.3   234  ILE234      0.0276
     79  CG1       12.7870   -7.4220    8.7240 C.3   234  ILE234      0.0022
     80  CG2       10.6200   -7.7510    9.9430 C.3   234  ILE234      0.0022
     81  CD1       13.7470   -8.1260    9.6710 C.3   234  ILE234      0.0001
     82  N         10.7550   -0.9800    3.6830 N.3   241  GLN241     -0.1245
     83  CA        11.6100   -1.8790    4.4660 C.3   241  GLN241      0.1566
     84  C         13.0760   -1.7690    4.0580 C.2   241  GLN241      0.2260
     85  O         13.9700   -1.7810    4.9000 O.2   241  GLN241     -0.2867
     86  CB        11.1230   -3.3280    4.2840 C.3   241  GLN241      0.0367
     87  CG        11.8260   -4.3760    5.1530 C.3   241  GLN241      0.0905
     88  CD        13.1600   -4.8750    4.5840 C.2   241  GLN241      0.2608
     89  OE1       13.9980   -5.3980    5.3220 O.2   241  GLN241     -0.2717
     90  NE2       13.3510   -4.7310    3.2710 N.am  241  GLN241     -0.0878
     91  N         14.5750    1.5250    5.4140 N.3   244  ILE244     -0.1231
     92  CA        14.8160    1.4080    6.8510 C.3   244  ILE244      0.1692
     93  C         15.9830    0.4470    7.1440 C.2   244  ILE244      0.2591
     94  O         16.8200    0.7220    8.0140 O.2   244  ILE244     -0.2718
     95  CB        13.5370    0.9900    7.6090 C.3   244  ILE244      0.0266
     96  CG1       12.4860    2.0930    7.4780 C.3   244  ILE244      0.0019
     97  CG2       13.8440    0.7700    9.0930 C.3   244  ILE244      0.0020
     98  CD1       11.1730    1.7330    8.0580 C.3   244  ILE244      0.0001
     99  N         16.0510   -0.6580    6.4090 N.am  245  ALA245     -0.1980
    100  CA        17.1690   -1.5920    6.5220 C.3   245  ALA245      0.1597
    101  C         18.5100   -0.8940    6.3070 C.2   245  ALA245      0.2287
    102  O         19.4880   -1.2220    6.9810 O.2   245  ALA245     -0.2864
    103  CB        17.0120   -2.7600    5.5470 C.3   245  ALA245      0.0319
    104  N         19.2860    0.7430    9.5950 N.3   248  VAL248     -0.1231
    105  CA        19.7180   -0.2800   10.5540 C.3   248  VAL248      0.1692
    106  C         21.2010   -0.6020   10.3480 C.2   248  VAL248      0.2591
    107  O         21.9720   -0.5850   11.2960 O.2   248  VAL248     -0.2718
    108  CB        18.8760   -1.5830   10.4310 C.3   248  VAL248      0.0266
    109  CG1       19.4660   -2.7070   11.2890 C.3   248  VAL248      0.0020
    110  CG2       17.4560   -1.3250   10.8320 C.3   248  VAL248      0.0020
    111  N         21.5790   -0.8750    9.0990 N.am  249  ALA249     -0.1980
    112  CA        22.9670   -1.1850    8.7330 C.3   249  ALA249      0.1597
    113  C         23.9210   -0.0380    9.0350 C.2   249  ALA249      0.2287
    114  O         25.0290   -0.2750    9.5210 O.2   249  ALA249     -0.2864
    115  CB        23.0620   -1.5720    7.2650 C.3   249  ALA249      0.0319
    116  N         24.6110    0.0290   12.7740 N.3   252  PHE252     -0.1241
    117  CA        25.4960   -1.0960   13.0870 C.3   252  PHE252      0.1605
    118  C         26.9420   -0.8530   12.6450 C.2   252  PHE252      0.2264
    119  O         27.8700   -1.1490   13.3950 O.2   252  PHE252     -0.2867
    120  CB        25.0000   -2.3980   12.4590 C.3   252  PHE252      0.0534
    121  CG        23.7520   -2.9670   13.0920 C.ar  252  PHE252     -0.0203
    122  CD1       23.3280   -2.5870   14.3660 C.ar  252  PHE252     -0.0042
    123  CD2       23.0230   -3.9290   12.4160 C.ar  252  PHE252     -0.0042
    124  CE1       22.1760   -3.1410   14.9210 C.ar  252  PHE252     -0.0003
    125  CE2       21.8840   -4.4780   12.9670 C.ar  252  PHE252     -0.0003
    126  CZ        21.4590   -4.0890   14.2130 C.ar  252  PHE252     -0.0000
    127  N         27.9140   -8.3680   11.6580 N.3   270  LEU270     -0.1245
    128  CA        26.7720   -7.4610   11.7760 C.3   270  LEU270      0.1561
    129  C         27.2020   -5.9940   11.8100 C.2   270  LEU270      0.2260
    130  O         26.5240   -5.1230   11.2570 O.2   270  LEU270     -0.2867
    131  CB        25.9760   -7.7850   13.0470 C.3   270  LEU270      0.0270
    132  CG        24.6360   -7.0660   13.2340 C.3   270  LEU270      0.0019
    133  CD1       23.6770   -7.3960   12.0850 C.3   270  LEU270      0.0001
    134  CD2       24.0150   -7.4330   14.5690 C.3   270  LEU270      0.0001
    135  N         24.8030   -8.7840    4.7030 N.3   279  ILE279     -0.1245
    136  CA        23.5010   -8.2230    5.1130 C.3   279  ILE279      0.1561
    137  C         22.3080   -9.0890    4.6710 C.2   279  ILE279      0.2260
    138  O         21.5100   -9.5050    5.5090 O.2   279  ILE279     -0.2867
    139  CB        23.3410   -6.7430    4.6640 C.3   279  ILE279      0.0252
    140  CG1       24.2020   -5.8340    5.5500 C.3   279  ILE279      0.0019
    141  CG2       21.8600   -6.2900    4.7240 C.3   279  ILE279      0.0019
    142  CD1       24.4000   -4.4280    4.9980 C.3   279  ILE279      0.0001
    143  N         22.0750  -12.4280    6.4100 N.3   282  MET282     -0.1230
    144  CA        21.7890  -12.1030    7.8130 C.3   282  MET282      0.1702
    145  C         20.3340  -11.6720    8.0390 C.2   282  MET282      0.2592
    146  O         19.7480  -12.0340    9.0600 O.2   282  MET282     -0.2718
    147  CB        22.7610  -11.0570    8.3590 C.3   282  MET282      0.0401
    148  CG        24.1410  -11.6250    8.6720 C.3   282  MET282      0.0596
    149  SD        25.1680  -10.5290    9.6790 S.3   282  MET282     -0.1393
    150  CE        24.9820   -8.9900    8.7810 C.3   282  MET282      0.0692
    151  N         19.7530  -10.9290    7.0960 N.am  283  GLN283     -0.1979
    152  CA        18.3270  -10.5770    7.1630 C.3   283  GLN283      0.1601
    153  C         17.4270  -11.8020    7.0250 C.2   283  GLN283      0.2287
    154  O         16.3860  -11.8900    7.6870 O.2   283  GLN283     -0.2864
    155  CB        17.9310   -9.5490    6.0850 C.3   283  GLN283      0.0394
    156  CG        18.1710   -8.0860    6.4370 C.3   283  GLN283      0.0908
    157  CD        17.2170   -7.5500    7.5060 C.2   283  GLN283      0.2608
    158  OE1       17.1380   -8.0920    8.6110 O.2   283  GLN283     -0.2717
    159  NE2       16.5170   -6.4680    7.1920 N.am  283  GLN283     -0.0878
    160  N         17.6530  -13.8180   10.2820 N.3   286  PHE286     -0.1241
    161  CA        16.9940  -13.0680   11.3500 C.3   286  PHE286      0.1605
    162  C         15.4830  -13.2070   11.2040 C.2   286  PHE286      0.2264
    163  O         14.7860  -13.4680   12.1750 O.2   286  PHE286     -0.2867
    164  CB        17.4280  -11.6020   11.2830 C.3   286  PHE286      0.0534
    165  CG        16.9000  -10.7490   12.3920 C.ar  286  PHE286     -0.0203
    166  CD1       17.4500  -10.8320   13.6740 C.ar  286  PHE286     -0.0042
    167  CD2       15.8660   -9.8440   12.1640 C.ar  286  PHE286     -0.0042
    168  CE1       16.9610  -10.0250   14.7130 C.ar  286  PHE286     -0.0003
    169  CE2       15.3760   -9.0460   13.1770 C.ar  286  PHE286     -0.0003
    170  CZ        15.9210   -9.1390   14.4710 C.ar  286  PHE286     -0.0000
    171  N         13.9360  -15.2660   14.2500 N.3   290  ILE290     -0.1245
    172  CA        13.3730  -14.3100   15.2030 C.3   290  ILE290      0.1561
    173  C         11.9720  -13.8590   14.8330 C.2   290  ILE290      0.2260
    174  O         11.0690  -13.8610   15.6810 O.2   290  ILE290     -0.2867
    175  CB        14.2740  -13.0340   15.3310 C.3   290  ILE290      0.0252
    176  CG1       15.6570  -13.3890   15.8850 C.3   290  ILE290      0.0019
    177  CG2       13.5930  -11.9430   16.1860 C.3   290  ILE290      0.0019
    178  CD1       15.6540  -13.8250   17.3410 C.3   290  ILE290      0.0001
@<TRIPOS>BOND
     1    90    88   am
     2    82    83    1
     3    84    83    1
     4    84    85    2
     5    86    83    1
     6    86    87    1
     7    88    87    1
     8    88    89    2
     9   139   141    1
    10   139   136    1
    11   139   140    1
    12   137   136    1
    13   137   138    2
    14   135   136    1
    15   142   140    1
    16    91    92    1
    17   103   100    1
    18   155   156    1
    19   155   152    1
    20   101   100    1
    21   101   102    2
    22    99   100    1
    23    99    93   am
    24   143   144    1
    25   156   157    1
    26    92    93    1
    27    92    95    1
    28    77    76    2
    29   153   152    1
    30   153   154    2
    31   151   152    1
    32   151   145   am
    33    93    94    2
    34   159   157   am
    35   115   112    1
    36    96    95    1
    37    96    98    1
    38   157   158    2
    39    95    97    1
    40    72    71    2
    41   144   145    1
    42   144   147    1
    43    76    75    1
    44   145   146    2
    45   147   148    1
    46    75    74    1
    47    75    78    1
    48   148   149    1
    49    79    78    1
    50    79    81    1
    51   112   113    1
    52   112   111    1
    53   150   149    1
    54    71    74   am
    55    71    70    1
    56   113   114    2
    57   111   106   am
    58    78    80    1
    59   104   105    1
    60    70    73    1
    61    70    69    1
    62   160   161    1
    63   106   105    1
    64   106   107    2
    65   108   105    1
    66   108   110    1
    67   108   109    1
    68   162   161    1
    69   162   163    2
    70   130   129    2
    71   164   161    1
    72   164   165    1
    73   127   128    1
    74   128   129    1
    75   128   131    1
    76   133   132    1
    77   167   165   ar
    78   167   169   ar
    79    64    63    2
    80   165   166   ar
    81   123   125   ar
    82   123   121   ar
    83     7     9   ar
    84     7     6   ar
    85   120   117    1
    86   120   121    1
    87     9    11   ar
    88   118   117    1
    89   118   119    2
    90   116   117    1
    91   125   126   ar
    92   131   132    1
    93     5     6    1
    94     5     2    1
    95   121   122   ar
    96   169   170   ar
    97     1     2    1
    98     6     8   ar
    99   132   134    1
   100     2     3    1
   101    63    62    1
   102    11    12    1
   103    11    10   ar
   104   166   168   ar
   105     8    10   ar
   106   126   124   ar
   107   171   172    1
   108   122   124   ar
   109   170   168   ar
   110     4     3    2
   111     3    13   am
   112    62    65    1
   113    62    61    1
   114   173   172    1
   115   173   174    2
   116    65    66    1
   117   172   175    1
   118   175   176    1
   119   175   177    1
   120    13    14    1
   121    68    66    1
   122   176   178    1
   123    66    67    1
   124    14    15    1
   125    14    17    1
   126    21    19   ar
   127    21    22   ar
   128    15    16    2
   129    19    18   ar
   130    22    20   ar
   131    18    20   ar
   132    18    17    1
   133    47    45    1
   134    45    46    1
   135    45    44    1
   136    44    41    1
   137    60    58    1
   138    58    57    1
   139    41    42    1
   140    41    40    1
   141    43    42    2
   142    30    29    2
   143    57    59    1
   144    57    54    1
   145    42    48   am
   146    40    34   am
   147    54    53    1
   148    54    55    1
   149    29    28    1
   150    29    31   am
   151    27    28    1
   152    27    24    1
   153    48    49    1
   154    34    35    2
   155    34    33    1
   156    56    55    2
   157    25    24    1
   158    25    26    2
   159    23    24    1
   160    49    50    1
   161    49    52    1
   162    33    32    1
   163    33    36    1
   164    38    37   ar
   165    50    51    2
   166    37    36    1
   167    37    39   ar
