@<TRIPOS>MOLECULE
tmp/3hcbB01.pdb
 131 121 0 0 0
SMALL
GASTEIGER

@<TRIPOS>ATOM
      1  N         36.3660   59.3090  -24.8300 N.3    22  TYR22      -0.1241
      2  CA        34.9670   58.9900  -25.0740 C.3    22  TYR22       0.1605
      3  C         34.2680   58.6670  -23.7560 C.2    22  TYR22       0.2264
      4  O         33.1770   59.1700  -23.4840 O.2    22  TYR22      -0.2867
      5  CB        34.8450   57.8080  -26.0300 C.3    22  TYR22       0.0534
      6  CG        33.4230   57.3600  -26.2270 C.ar   22  TYR22      -0.0201
      7  CD1       32.5510   58.0880  -27.0300 C.ar   22  TYR22      -0.0009
      8  CD2       32.9430   56.2130  -25.6080 C.ar   22  TYR22      -0.0009
      9  CE1       31.2450   57.6850  -27.2140 C.ar   22  TYR22       0.0417
     10  CE2       31.6320   55.8010  -25.7860 C.ar   22  TYR22       0.0417
     11  CZ        30.7910   56.5440  -26.5910 C.ar   22  TYR22       0.1957
     12  OH        29.4910   56.1430  -26.7750 O.3    22  TYR22      -0.2866
     13  N         31.1290   60.9760  -22.0030 N.3    26  ASN26      -0.1225
     14  CA        29.7620   60.4670  -21.9910 C.3    26  ASN26       0.1785
     15  C         29.3480   59.7330  -20.7200 C.2    26  ASN26       0.2597
     16  O         28.1610   59.6720  -20.3890 O.2    26  ASN26      -0.2718
     17  CB        29.5460   59.5650  -23.1990 C.3    26  ASN26       0.1169
     18  CG        29.6070   60.3280  -24.5010 C.2    26  ASN26       0.2627
     19  OD1       28.6890   61.0770  -24.8330 O.2    26  ASN26      -0.2716
     20  ND2       30.6930   60.1500  -25.2440 N.am   26  ASN26      -0.0877
     21  N         30.3250   59.1800  -20.0080 N.am   27  TYR27      -0.1976
     22  CA        30.0150   58.3100  -18.8820 C.3    27  TYR27       0.1639
     23  C         30.5760   58.7870  -17.5420 C.2    27  TYR27       0.2290
     24  O         30.2410   58.2400  -16.4980 O.2    27  TYR27      -0.2864
     25  CB        30.3730   56.8640  -19.2240 C.3    27  TYR27       0.0560
     26  CG        29.5520   56.4170  -20.4020 C.ar   27  TYR27      -0.0198
     27  CD1       30.0850   56.4060  -21.6900 C.ar   27  TYR27      -0.0009
     28  CD2       28.2140   56.0850  -20.2430 C.ar   27  TYR27      -0.0009
     29  CE1       29.3150   56.0300  -22.7750 C.ar   27  TYR27       0.0417
     30  CE2       27.4380   55.7090  -21.3210 C.ar   27  TYR27       0.0417
     31  CZ        27.9940   55.6860  -22.5900 C.ar   27  TYR27       0.1957
     32  OH        27.2240   55.3130  -23.6640 O.3    27  TYR27      -0.2866
     33  N         27.3280   64.1820  -17.7020 N.3    31  ARG31      -0.1245
     34  CA        26.5090   63.1930  -18.4020 C.3    31  ARG31       0.1563
     35  C         26.4370   61.8550  -17.6790 C.2    31  ARG31       0.2260
     36  O         25.4710   61.1100  -17.8340 O.2    31  ARG31      -0.2867
     37  CB        27.0220   62.9760  -19.8220 C.3    31  ARG31       0.0307
     38  CG        26.9410   64.2130  -20.6680 C.3    31  ARG31       0.0489
     39  CD        26.6680   63.8620  -22.0970 C.3    31  ARG31       0.2205
     40  NE        26.2100   65.0300  -22.8310 N.pl3  31  ARG31      -0.0865
     41  CZ        26.1050   65.0760  -24.1520 C.cat  31  ARG31       0.5346
     42  NH1       26.4320   64.0120  -24.8700 N.pl3  31  ARG31       0.1354
     43  NH2       25.6810   66.1810  -24.7510 N.pl3  31  ARG31       0.1354
     44  N         20.4270   61.6930  -18.5090 N.3    40  VAL40      -0.1245
     45  CA        20.3400   60.7130  -19.5900 C.3    40  VAL40       0.1561
     46  C         20.7760   59.3050  -19.1840 C.2    40  VAL40       0.2260
     47  O         20.2200   58.3160  -19.6630 O.2    40  VAL40      -0.2867
     48  CB        21.1520   61.1750  -20.8330 C.3    40  VAL40       0.0252
     49  CG1       22.6510   61.1980  -20.5260 C.3    40  VAL40       0.0019
     50  CG2       20.8530   60.2930  -22.0390 C.3    40  VAL40       0.0019
     51  N         18.4520   55.9820  -19.6330 N.3    44  LYS44      -0.1245
     52  CA        18.8910   54.8160  -20.4020 C.3    44  LYS44       0.1561
     53  C         18.7840   53.5160  -19.6130 C.2    44  LYS44       0.2260
     54  O         18.2070   52.5430  -20.0910 O.2    44  LYS44      -0.2867
     55  CB        20.3250   54.9930  -20.9080 C.3    44  LYS44       0.0271
     56  CG        20.4970   56.0610  -21.9680 C.3    44  LYS44       0.0035
     57  CD        21.8490   55.9490  -22.6590 C.3    44  LYS44       0.0206
     58  CE        22.9990   56.2670  -21.7140 C.3    44  LYS44       0.1093
     59  NZ        24.2780   56.4300  -22.4530 N.3    44  LYS44      -0.1314
     60  N         24.1740   53.5740  -29.6610 N.3   169  PHE169     -0.1241
     61  CA        24.9640   54.6390  -30.2650 C.3   169  PHE169      0.1605
     62  C         25.9790   54.1120  -31.2830 C.2   169  PHE169      0.2264
     63  O         27.0750   54.6520  -31.4080 O.2   169  PHE169     -0.2867
     64  CB        25.6610   55.4680  -29.1720 C.3   169  PHE169      0.0534
     65  CG        24.7120   56.0600  -28.1650 C.ar  169  PHE169     -0.0203
     66  CD1       24.5390   55.4650  -26.9190 C.ar  169  PHE169     -0.0042
     67  CD2       23.9900   57.2060  -28.4580 C.ar  169  PHE169     -0.0042
     68  CE1       23.6660   56.0100  -25.9880 C.ar  169  PHE169     -0.0003
     69  CE2       23.1180   57.7530  -27.5350 C.ar  169  PHE169     -0.0003
     70  CZ        22.9550   57.1550  -26.2950 C.ar  169  PHE169     -0.0000
     71  N         26.1540   56.3330  -35.6940 N.3   173  ALA173     -0.1245
     72  CA        27.4770   56.8940  -35.4380 C.3   173  ALA173      0.1562
     73  C         28.5590   56.3710  -36.3910 C.2   173  ALA173      0.2260
     74  O         29.6840   56.8670  -36.3760 O.2   173  ALA173     -0.2867
     75  CB        27.8740   56.6550  -33.9980 C.3   173  ALA173      0.0290
     76  N         21.6150   58.3740  -30.7490 N.3   203  ALA203     -0.1245
     77  CA        21.5140   59.8290  -30.7710 C.3   203  ALA203      0.1562
     78  C         20.4510   60.2910  -31.7620 C.2   203  ALA203      0.2260
     79  O         20.2770   59.6910  -32.8200 O.2   203  ALA203     -0.2867
     80  CB        22.8670   60.4470  -31.1130 C.3   203  ALA203      0.0290
     81  N         21.7870   64.2730  -34.4240 N.3   206  GLU206     -0.1245
     82  CA        23.1870   64.5580  -34.1420 C.3   206  GLU206      0.1567
     83  C         24.0410   64.4290  -35.4020 C.2   206  GLU206      0.2260
     84  O         23.8450   63.5180  -36.2050 O.2   206  GLU206     -0.2867
     85  CB        23.7040   63.6220  -33.0530 C.3   206  GLU206      0.0388
     86  CG        25.2170   63.5840  -32.9420 C.3   206  GLU206      0.1160
     87  CD        25.6890   62.7410  -31.7750 C.2   206  GLU206      0.3649
     88  OE1       25.4910   63.1700  -30.6200 O.co2 206  GLU206     -0.2457
     89  OE2       26.2660   61.6580  -32.0160 O.co2 206  GLU206     -0.2457
     90  N         30.2000   64.0970  -32.8210 N.3   209  TYR209     -0.1241
     91  CA        30.6060   64.0000  -31.4260 C.3   209  TYR209      0.1605
     92  C         32.1200   63.8390  -31.3810 C.2   209  TYR209      0.2264
     93  O         32.7400   63.4900  -32.3880 O.2   209  TYR209     -0.2867
     94  CB        29.9090   62.8420  -30.6980 C.3   209  TYR209      0.0534
     95  CG        30.3970   61.4560  -31.0770 C.ar  209  TYR209     -0.0201
     96  CD1       31.2740   60.7560  -30.2530 C.ar  209  TYR209     -0.0009
     97  CD2       29.9700   60.8420  -32.2510 C.ar  209  TYR209     -0.0009
     98  CE1       31.7190   59.4890  -30.5890 C.ar  209  TYR209      0.0417
     99  CE2       30.4080   59.5700  -32.5950 C.ar  209  TYR209      0.0417
    100  CZ        31.2840   58.8960  -31.7570 C.ar  209  TYR209      0.1957
    101  OH        31.7290   57.6370  -32.0860 O.3   209  TYR209     -0.2866
    102  N         17.4760   66.1010  -24.6800 N.3   245  MET245     -0.1245
    103  CA        18.6890   66.4680  -23.9600 C.3   245  MET245      0.1570
    104  C         18.5680   67.8610  -23.3530 C.2   245  MET245      0.2261
    105  O         18.4740   68.8490  -24.0740 O.2   245  MET245     -0.2867
    106  CB        19.9020   66.4120  -24.8900 C.3   245  MET245      0.0387
    107  CG        21.2350   66.5920  -24.1840 C.3   245  MET245      0.0595
    108  SD        21.6790   65.1920  -23.1310 S.3   245  MET245     -0.1393
    109  CE        22.0120   63.9160  -24.3470 C.3   245  MET245      0.0692
    110  N         29.2430   67.0260  -28.2450 N.3   254  ASP254     -0.1239
    111  CA        28.4710   66.6740  -29.4360 C.3   254  ASP254      0.1674
    112  C         27.4080   67.7390  -29.7160 C.2   254  ASP254      0.2266
    113  O         27.4000   68.7930  -29.0850 O.2   254  ASP254     -0.2867
    114  CB        27.8430   65.2760  -29.3040 C.3   254  ASP254      0.1410
    115  CG        27.0090   65.1160  -28.0370 C.2   254  ASP254      0.3668
    116  OD1       27.0450   64.0190  -27.4390 O.co2 254  ASP254     -0.2456
    117  OD2       26.3140   66.0740  -27.6410 O.co2 254  ASP254     -0.2456
    118  N         24.1320   66.5450  -30.1540 N.3   256  VAL256     -0.1245
    119  CA        22.9690   65.6920  -29.9760 C.3   256  VAL256      0.1561
    120  C         21.8260   66.5110  -29.3810 C.2   256  VAL256      0.2260
    121  O         22.0570   67.3900  -28.5510 O.2   256  VAL256     -0.2867
    122  CB        23.3030   64.5030  -29.0460 C.3   256  VAL256      0.0252
    123  CG1       23.5380   64.9910  -27.6210 C.3   256  VAL256      0.0019
    124  CG2       22.2060   63.4520  -29.0900 C.3   256  VAL256      0.0019
    125  N         17.9010   61.5140  -27.2660 N.3   259  VAL259     -0.1245
    126  CA        18.2940   60.1140  -27.3150 C.3   259  VAL259      0.1561
    127  C         17.0300   59.2930  -27.5200 C.2   259  VAL259      0.2260
    128  O         15.9880   59.5990  -26.9390 O.2   259  VAL259     -0.2867
    129  CB        18.9920   59.6850  -26.0040 C.3   259  VAL259      0.0252
    130  CG1       19.3350   58.1970  -26.0360 C.3   259  VAL259      0.0019
    131  CG2       20.2390   60.5320  -25.7590 C.3   259  VAL259      0.0019
@<TRIPOS>BOND
     1    73    74    2
     2    73    72    1
     3    84    83    2
     4    71    72    1
     5    72    75    1
     6    83    82    1
     7    81    82    1
     8    82    85    1
     9    85    86    1
    10    86    87    1
    11    90    91    1
    12    79    78    2
    13    99    97   ar
    14    99   100   ar
    15    93    92    2
    16    97    95   ar
    17   101   100    1
    18    89    87   ar
    19    87    88   ar
    20    78    77    1
    21   100    98   ar
    22    91    92    1
    23    91    94    1
    24    63    62    2
    25    62    61    1
    26    80    77    1
    27    95    94    1
    28    95    96   ar
    29    77    76    1
    30    98    96   ar
    31    61    60    1
    32    61    64    1
    33   118   119    1
    34   119   120    1
    35   119   122    1
    36   112   111    1
    37   112   113    2
    38   111   114    1
    39   111   110    1
    40   120   121    2
    41   114   115    1
    42    64    65    1
    43   124   122    1
    44   122   123    1
    45    67    65   ar
    46    67    69   ar
    47    65    66   ar
    48   115   117   ar
    49   115   116   ar
    50    69    70   ar
    51   127   126    1
    52   127   128    2
    53   126   125    1
    54   126   129    1
    55     9     7   ar
    56     9    11   ar
    57     7     6   ar
    58    66    68   ar
    59    12    11    1
    60    11    10   ar
    61    70    68   ar
    62     6     5    1
    63     6     8   ar
    64   130   129    1
    65     5     2    1
    66   129   131    1
    67    10     8   ar
    68    20    18   am
    69     2     1    1
    70     2     3    1
    71   106   107    1
    72   106   103    1
    73    42    41    1
    74    19    18    2
    75    43    41    1
    76   102   103    1
    77    18    17    1
    78   109   108    1
    79   107   108    1
    80    41    40    2
    81   105   104    2
    82   103   104    1
    83     3     4    2
    84    32    31    1
    85    17    14    1
    86    40    39    1
    87    29    31   ar
    88    29    27   ar
    89    57    56    1
    90    57    58    1
    91    31    30   ar
    92    59    58    1
    93    39    38    1
    94    50    48    1
    95    13    14    1
    96    14    15    1
    97    56    55    1
    98    27    26   ar
    99    30    28   ar
   100    55    52    1
   101    48    49    1
   102    48    45    1
   103    15    16    2
   104    15    21   am
   105    38    37    1
   106    26    28   ar
   107    26    25    1
   108    52    51    1
   109    52    53    1
   110    54    53    2
   111    21    22    1
   112    37    34    1
   113    47    46    2
   114    45    46    1
   115    45    44    1
   116    25    22    1
   117    22    23    1
   118    34    33    1
   119    34    35    1
   120    36    35    2
   121    23    24    2
