@<TRIPOS>MOLECULE
tmp/3hccB00.pdb
 147 137 0 0 0
SMALL
GASTEIGER

@<TRIPOS>ATOM
      1  N         36.4670   59.8960  -24.2910 N.3    22  TYR22      -0.1241
      2  CA        35.0660   59.5730  -24.5180 C.3    22  TYR22       0.1605
      3  C         34.3890   59.2440  -23.1890 C.2    22  TYR22       0.2264
      4  O         33.3010   59.7400  -22.8950 O.2    22  TYR22      -0.2867
      5  CB        34.9420   58.3970  -25.4900 C.3    22  TYR22       0.0534
      6  CG        33.5210   57.9480  -25.7330 C.ar   22  TYR22      -0.0201
      7  CD1       32.7010   58.6270  -26.6270 C.ar   22  TYR22      -0.0009
      8  CD2       32.9990   56.8430  -25.0740 C.ar   22  TYR22      -0.0009
      9  CE1       31.4010   58.2200  -26.8550 C.ar   22  TYR22       0.0417
     10  CE2       31.6990   56.4300  -25.2950 C.ar   22  TYR22       0.0417
     11  CZ        30.9070   57.1220  -26.1890 C.ar   22  TYR22       0.1957
     12  OH        29.6150   56.7140  -26.4140 O.3    22  TYR22      -0.2866
     13  N         31.4020   61.6030  -21.1640 N.3    26  ASN26      -0.1225
     14  CA        30.0430   61.0700  -21.2130 C.3    26  ASN26       0.1785
     15  C         29.6170   60.2180  -20.0140 C.2    26  ASN26       0.2597
     16  O         28.4250   60.0200  -19.7780 O.2    26  ASN26      -0.2718
     17  CB        29.8480   60.2860  -22.5180 C.3    26  ASN26       0.1169
     18  CG        30.0290   61.1570  -23.7550 C.2    26  ASN26       0.2627
     19  OD1       29.2480   62.0760  -23.9970 O.2    26  ASN26      -0.2716
     20  ND2       31.0590   60.8660  -24.5420 N.am   26  ASN26      -0.0877
     21  N         30.5880   59.7210  -19.2550 N.am   27  TYR27      -0.1976
     22  CA        30.2880   58.7880  -18.1760 C.3    27  TYR27       0.1639
     23  C         30.9610   59.1620  -16.8530 C.2    27  TYR27       0.2290
     24  O         30.9970   58.3730  -15.9100 O.2    27  TYR27      -0.2864
     25  CB        30.6120   57.3600  -18.6220 C.3    27  TYR27       0.0560
     26  CG        29.7750   56.9530  -19.8160 C.ar   27  TYR27      -0.0198
     27  CD1       30.3250   56.8660  -21.0890 C.ar   27  TYR27      -0.0009
     28  CD2       28.4160   56.7010  -19.6730 C.ar   27  TYR27      -0.0009
     29  CE1       29.5450   56.5100  -22.1810 C.ar   27  TYR27       0.0417
     30  CE2       27.6340   56.3470  -20.7520 C.ar   27  TYR27       0.0417
     31  CZ        28.1990   56.2530  -22.0020 C.ar   27  TYR27       0.1957
     32  OH        27.3980   55.9010  -23.0630 O.3    27  TYR27      -0.2866
     33  N         27.8970   64.7230  -16.6080 N.3    31  ARG31      -0.1245
     34  CA        26.9540   63.8610  -17.3170 C.3    31  ARG31       0.1563
     35  C         26.9270   62.4770  -16.6850 C.2    31  ARG31       0.2260
     36  O         25.9370   61.7530  -16.7900 O.2    31  ARG31      -0.2867
     37  CB        27.2800   63.7650  -18.8090 C.3    31  ARG31       0.0307
     38  CG        26.3310   62.8490  -19.5760 C.3    31  ARG31       0.0489
     39  CD        26.4710   63.0210  -21.0820 C.3    31  ARG31       0.2205
     40  NE        25.9560   64.3090  -21.5400 N.pl3  31  ARG31      -0.0865
     41  CZ        26.1230   64.7810  -22.7710 C.cat  31  ARG31       0.5346
     42  NH1       26.7960   64.0700  -23.6650 N.pl3  31  ARG31       0.1354
     43  NH2       25.6240   65.9630  -23.1100 N.pl3  31  ARG31       0.1354
     44  N         20.6770   62.2000  -18.1490 N.3    40  VAL40      -0.1245
     45  CA        20.4930   61.2070  -19.2040 C.3    40  VAL40       0.1561
     46  C         20.9210   59.8060  -18.7660 C.2    40  VAL40       0.2260
     47  O         20.4040   58.8050  -19.2650 O.2    40  VAL40      -0.2867
     48  CB        21.2390   61.6060  -20.4960 C.3    40  VAL40       0.0252
     49  CG1       22.7450   61.6200  -20.2660 C.3    40  VAL40       0.0019
     50  CG2       20.8760   60.6660  -21.6320 C.3    40  VAL40       0.0019
     51  N         18.5250   56.5680  -19.1270 N.3    44  LYS44      -0.1245
     52  CA        18.9640   55.3870  -19.8640 C.3    44  LYS44       0.1561
     53  C         18.8330   54.1020  -19.0480 C.2    44  LYS44       0.2260
     54  O         18.2600   53.1200  -19.5230 O.2    44  LYS44      -0.2867
     55  CB        20.3970   55.5580  -20.3740 C.3    44  LYS44       0.0271
     56  CG        20.4960   56.3940  -21.6420 C.3    44  LYS44       0.0035
     57  CD        21.9040   56.3850  -22.2110 C.3    44  LYS44       0.0206
     58  CE        22.8950   57.0130  -21.2510 C.3    44  LYS44       0.1093
     59  NZ        24.2910   56.8570  -21.7340 N.3    44  LYS44      -0.1314
     60  N         24.0670   54.2280  -29.0690 N.3   169  PHE169     -0.1241
     61  CA        24.8280   55.2880  -29.7270 C.3   169  PHE169      0.1605
     62  C         25.8270   54.7840  -30.7690 C.2   169  PHE169      0.2264
     63  O         26.9270   55.3200  -30.8920 O.2   169  PHE169     -0.2867
     64  CB        25.5500   56.1520  -28.6890 C.3   169  PHE169      0.0534
     65  CG        24.6430   56.7260  -27.6380 C.ar  169  PHE169     -0.0203
     66  CD1       24.7020   56.2710  -26.3300 C.ar  169  PHE169     -0.0042
     67  CD2       23.7300   57.7210  -27.9570 C.ar  169  PHE169     -0.0042
     68  CE1       23.8720   56.7950  -25.3600 C.ar  169  PHE169     -0.0003
     69  CE2       22.8950   58.2520  -26.9890 C.ar  169  PHE169     -0.0003
     70  CZ        22.9660   57.7860  -25.6870 C.ar  169  PHE169     -0.0000
     71  N         23.7770   55.4730  -35.5890 N.3   172  GLU172     -0.1231
     72  CA        23.7230   56.8460  -36.0750 C.3   172  GLU172      0.1699
     73  C         25.0960   57.5110  -36.0250 C.2   172  GLU172      0.2592
     74  O         25.3690   58.4470  -36.7750 O.2   172  GLU172     -0.2718
     75  CB        22.6860   57.6720  -35.3020 C.3   172  GLU172      0.0402
     76  CG        23.1230   58.1200  -33.9100 C.3   172  GLU172      0.1161
     77  CD        22.8640   57.0740  -32.8310 C.2   172  GLU172      0.3649
     78  OE1       22.4240   55.9550  -33.1720 O.co2 172  GLU172     -0.2457
     79  OE2       23.0960   57.3790  -31.6380 O.co2 172  GLU172     -0.2457
     80  N         25.9620   57.0080  -35.1500 N.am  173  ALA173     -0.1980
     81  CA        27.2700   57.6180  -34.9240 C.3   173  ALA173      0.1597
     82  C         28.3390   57.0920  -35.8750 C.2   173  ALA173      0.2287
     83  O         29.4840   57.5450  -35.8400 O.2   173  ALA173     -0.2864
     84  CB        27.7040   57.4190  -33.4770 C.3   173  ALA173      0.0319
     85  N         21.1440   58.8660  -30.2670 N.3   203  ALA203     -0.1245
     86  CA        21.0150   60.3170  -30.1930 C.3   203  ALA203      0.1562
     87  C         20.0280   60.8370  -31.2310 C.2   203  ALA203      0.2260
     88  O         20.0010   60.3640  -32.3650 O.2   203  ALA203     -0.2867
     89  CB        22.3700   60.9730  -30.3820 C.3   203  ALA203      0.0290
     90  N         21.5430   64.7340  -33.7550 N.3   206  GLU206     -0.1245
     91  CA        22.9480   65.0230  -33.4780 C.3   206  GLU206      0.1567
     92  C         23.7660   64.9810  -34.7690 C.2   206  GLU206      0.2260
     93  O         23.4600   64.2050  -35.6720 O.2   206  GLU206     -0.2867
     94  CB        23.5160   64.0090  -32.4780 C.3   206  GLU206      0.0388
     95  CG        24.9850   64.2350  -32.1430 C.3   206  GLU206      0.1160
     96  CD        25.5980   63.1130  -31.3160 C.2   206  GLU206      0.3649
     97  OE1       26.6700   63.3400  -30.7130 O.co2 206  GLU206     -0.2457
     98  OE2       25.0140   62.0100  -31.2670 O.co2 206  GLU206     -0.2457
     99  N         30.2620   64.6970  -32.1920 N.3   209  TYR209     -0.1241
    100  CA        30.7150   64.6270  -30.8060 C.3   209  TYR209      0.1605
    101  C         32.2290   64.4730  -30.7920 C.2   209  TYR209      0.2264
    102  O         32.8220   63.9880  -31.7560 O.2   209  TYR209     -0.2867
    103  CB        30.0360   63.4860  -30.0310 C.3   209  TYR209      0.0534
    104  CG        30.4580   62.0880  -30.4450 C.ar  209  TYR209     -0.0201
    105  CD1       31.4980   61.4260  -29.7940 C.ar  209  TYR209     -0.0009
    106  CD2       29.8060   61.4250  -31.4770 C.ar  209  TYR209     -0.0009
    107  CE1       31.8810   60.1460  -30.1710 C.ar  209  TYR209      0.0417
    108  CE2       30.1800   60.1500  -31.8610 C.ar  209  TYR209      0.0417
    109  CZ        31.2160   59.5140  -31.2060 C.ar  209  TYR209      0.1957
    110  OH        31.5800   58.2450  -31.5930 O.3   209  TYR209     -0.2866
    111  N         17.3570   66.6420  -24.2490 N.3   245  MET245     -0.1245
    112  CA        18.5920   67.1010  -23.6250 C.3   245  MET245      0.1570
    113  C         18.4710   68.5380  -23.1250 C.2   245  MET245      0.2261
    114  O         18.4080   69.4700  -23.9240 O.2   245  MET245     -0.2867
    115  CB        19.7490   66.9910  -24.6180 C.3   245  MET245      0.0387
    116  CG        21.1050   67.3290  -24.0330 C.3   245  MET245      0.0595
    117  SD        21.6480   66.1240  -22.8080 S.3   245  MET245     -0.1393
    118  CE        22.1370   64.7500  -23.8490 C.3   245  MET245      0.0692
    119  N         30.9510   69.2430  -26.1180 N.3   253  VAL253     -0.1231
    120  CA        31.5040   68.0300  -26.7210 C.3   253  VAL253      0.1692
    121  C         30.5280   67.2980  -27.6480 C.2   253  VAL253      0.2592
    122  O         30.8520   66.2340  -28.1760 O.2   253  VAL253     -0.2718
    123  CB        32.0640   67.0410  -25.6610 C.3   253  VAL253      0.0266
    124  CG1       33.0640   67.7370  -24.7520 C.3   253  VAL253      0.0020
    125  CG2       30.9440   66.4170  -24.8490 C.3   253  VAL253      0.0020
    126  N         29.3420   67.8700  -27.8420 N.am  254  ASP254     -0.1974
    127  CA        28.3850   67.3510  -28.8230 C.3   254  ASP254      0.1709
    128  C         27.2250   68.3180  -29.0530 C.2   254  ASP254      0.2293
    129  O         27.0330   69.2610  -28.2840 O.2   254  ASP254     -0.2864
    130  CB        27.8520   65.9740  -28.4070 C.3   254  ASP254      0.1436
    131  CG        26.9840   66.0290  -27.1610 C.2   254  ASP254      0.3671
    132  OD1       27.3720   65.4170  -26.1440 O.co2 254  ASP254     -0.2456
    133  OD2       25.9180   66.6790  -27.1920 O.co2 254  ASP254     -0.2456
    134  N         24.0350   67.0370  -29.4070 N.3   256  VAL256     -0.1245
    135  CA        22.8910   66.1600  -29.1660 C.3   256  VAL256      0.1561
    136  C         21.6880   66.9560  -28.6710 C.2   256  VAL256      0.2260
    137  O         21.7980   67.7180  -27.7120 O.2   256  VAL256     -0.2867
    138  CB        23.2290   65.0680  -28.1230 C.3   256  VAL256      0.0252
    139  CG1       22.0020   64.2190  -27.8080 C.3   256  VAL256      0.0019
    140  CG2       24.3760   64.1950  -28.6070 C.3   256  VAL256      0.0019
    141  N         17.7300   62.0430  -26.7070 N.3   259  VAL259     -0.1245
    142  CA        18.0810   60.6330  -26.7790 C.3   259  VAL259      0.1561
    143  C         16.8170   59.8170  -26.9970 C.2   259  VAL259      0.2260
    144  O         15.7460   60.1800  -26.5040 O.2   259  VAL259     -0.2867
    145  CB        18.8020   60.1730  -25.4970 C.3   259  VAL259      0.0252
    146  CG1       19.0650   58.6670  -25.5250 C.3   259  VAL259      0.0019
    147  CG2       20.1010   60.9530  -25.3160 C.3   259  VAL259      0.0019
@<TRIPOS>BOND
     1    74    73    2
     2    72    73    1
     3    72    71    1
     4    72    75    1
     5    73    80   am
     6    82    83    2
     7    82    81    1
     8    93    92    2
     9    75    76    1
    10    80    81    1
    11    81    84    1
    12    92    91    1
    13    76    77    1
    14    90    91    1
    15    91    94    1
    16    78    77   ar
    17    77    79   ar
    18    94    95    1
    19    88    87    2
    20    99   100    1
    21    95    96    1
    22   108   106   ar
    23   108   109   ar
    24   102   101    2
    25   110   109    1
    26   106   104   ar
    27    96    98   ar
    28    96    97   ar
    29    87    86    1
    30   109   107   ar
    31    63    62    2
    32   100   101    1
    33   100   103    1
    34    62    61    1
    35   104   103    1
    36   104   105   ar
    37    89    86    1
    38    85    86    1
    39   107   105   ar
    40    61    60    1
    41    61    64    1
    42   134   135    1
    43   135   136    1
    44   135   138    1
    45   128   127    1
    46   128   129    2
    47   127   130    1
    48   127   126    1
    49    64    65    1
    50   136   137    2
    51   140   138    1
    52   130   131    1
    53   122   121    2
    54   138   139    1
    55    67    65   ar
    56    67    69   ar
    57   126   121   am
    58   121   120    1
    59    65    66   ar
    60   133   131   ar
    61   131   132   ar
    62   143   142    1
    63   143   144    2
    64    69    70   ar
    65     9     7   ar
    66     9    11   ar
    67   142   141    1
    68   142   145    1
    69   120   119    1
    70   120   123    1
    71     7     6   ar
    72    12    11    1
    73    66    68   ar
    74    11    10   ar
    75     6     5    1
    76     6     8   ar
    77    70    68   ar
    78   123   125    1
    79   123   124    1
    80   146   145    1
    81   145   147    1
    82     5     2    1
    83    10     8   ar
    84   115   116    1
    85   115   112    1
    86    20    18   am
    87     2     1    1
    88     2     3    1
    89   111   112    1
    90   116   117    1
    91    19    18    2
    92   114   113    2
    93   118   117    1
    94    18    17    1
    95    42    41    1
    96   112   113    1
    97     3     4    2
    98    43    41    1
    99    32    31    1
   100    41    40    2
   101    17    14    1
   102    57    56    1
   103    57    58    1
   104    29    31   ar
   105    29    27   ar
   106    31    30   ar
   107    59    58    1
   108    56    55    1
   109    50    48    1
   110    40    39    1
   111    14    13    1
   112    14    15    1
   113    27    26   ar
   114    39    38    1
   115    30    28   ar
   116    48    49    1
   117    48    45    1
   118    55    52    1
   119    15    16    2
   120    15    21   am
   121    52    51    1
   122    52    53    1
   123    26    28   ar
   124    26    25    1
   125    38    37    1
   126    54    53    2
   127    47    46    2
   128    21    22    1
   129    45    46    1
   130    45    44    1
   131    37    34    1
   132    25    22    1
   133    22    23    1
   134    34    35    1
   135    34    33    1
   136    23    24    2
   137    36    35    2
