@<TRIPOS>MOLECULE
tmp/3hcfB00.pdb
 140 130 0 0 0
SMALL
GASTEIGER

@<TRIPOS>ATOM
      1  N         36.1280   59.0730  -24.9780 N.3    22  TYR22      -0.1241
      2  CA        34.7190   58.7550  -25.1850 C.3    22  TYR22       0.1605
      3  C         34.0520   58.5150  -23.8400 C.2    22  TYR22       0.2264
      4  O         32.9890   59.0980  -23.5470 O.2    22  TYR22      -0.2867
      5  CB        34.5750   57.5190  -26.0660 C.3    22  TYR22       0.0534
      6  CG        33.1560   57.0820  -26.2750 C.ar   22  TYR22      -0.0201
      7  CD1       32.2710   57.8740  -26.9920 C.ar   22  TYR22      -0.0009
      8  CD2       32.6930   55.8740  -25.7660 C.ar   22  TYR22      -0.0009
      9  CE1       30.9510   57.4850  -27.2050 C.ar   22  TYR22       0.0417
     10  CE2       31.3610   55.4750  -25.9680 C.ar   22  TYR22       0.0417
     11  CZ        30.4980   56.2980  -26.6840 C.ar   22  TYR22       0.1957
     12  OH        29.1900   55.9150  -26.8790 O.3    22  TYR22      -0.2866
     13  N         31.0620   60.8780  -21.8520 N.3    26  ASN26      -0.1225
     14  CA        29.7000   60.3280  -21.9190 C.3    26  ASN26       0.1785
     15  C         29.2310   59.5350  -20.6990 C.2    26  ASN26       0.2597
     16  O         28.0190   59.3590  -20.4540 O.2    26  ASN26      -0.2718
     17  CB        29.5510   59.4390  -23.1670 C.3    26  ASN26       0.1169
     18  CG        29.7470   60.2110  -24.4660 C.2    26  ASN26       0.2627
     19  OD1       28.9600   61.0860  -24.7930 O.2    26  ASN26      -0.2716
     20  ND2       30.8190   59.9100  -25.1870 N.am   26  ASN26      -0.0877
     21  N         30.2070   59.0520  -19.9480 N.am   27  TYR27      -0.1976
     22  CA        29.9280   58.1780  -18.8580 C.3    27  TYR27       0.1639
     23  C         30.6020   58.6480  -17.5640 C.2    27  TYR27       0.2290
     24  O         30.6880   57.9120  -16.5940 O.2    27  TYR27      -0.2864
     25  CB        30.3220   56.7840  -19.2860 C.3    27  TYR27       0.0560
     26  CG        29.3970   56.2950  -20.3670 C.ar   27  TYR27      -0.0198
     27  CD1       29.8670   55.9700  -21.6290 C.ar   27  TYR27      -0.0009
     28  CD2       28.0290   56.2140  -20.1440 C.ar   27  TYR27      -0.0009
     29  CE1       28.9930   55.5420  -22.6240 C.ar   27  TYR27       0.0417
     30  CE2       27.1570   55.7790  -21.1370 C.ar   27  TYR27       0.0417
     31  CZ        27.6440   55.4500  -22.3630 C.ar   27  TYR27       0.1957
     32  OH        26.7690   55.0280  -23.3290 O.3    27  TYR27      -0.2866
     33  N         26.9900   63.7940  -17.4150 N.3    31  ARG31      -0.1245
     34  CA        26.1660   62.7130  -17.9310 C.3    31  ARG31       0.1563
     35  C         26.2840   61.4880  -17.0540 C.2    31  ARG31       0.2260
     36  O         25.3250   60.7060  -16.9260 O.2    31  ARG31      -0.2867
     37  CB        26.5680   62.3690  -19.3610 C.3    31  ARG31       0.0307
     38  CG        26.5600   63.5970  -20.2840 C.3    31  ARG31       0.0489
     39  CD        26.6270   63.2580  -21.7580 C.3    31  ARG31       0.2205
     40  NE        26.0330   64.3340  -22.5500 N.pl3  31  ARG31      -0.0865
     41  CZ        26.1440   64.4590  -23.8730 C.cat  31  ARG31       0.5346
     42  NH1       26.8440   63.5570  -24.5660 N.pl3  31  ARG31       0.1354
     43  NH2       25.5470   65.4870  -24.4960 N.pl3  31  ARG31       0.1354
     44  N         20.1470   61.2320  -18.2720 N.3    40  VAL40      -0.1245
     45  CA        20.0280   60.2990  -19.3830 C.3    40  VAL40       0.1561
     46  C         20.5120   58.9210  -18.9730 C.2    40  VAL40       0.2260
     47  O         19.9660   57.9250  -19.4130 O.2    40  VAL40      -0.2867
     48  CB        20.7970   60.7930  -20.6410 C.3    40  VAL40       0.0252
     49  CG1       22.2170   61.0380  -20.3050 C.3    40  VAL40       0.0019
     50  CG2       20.6950   59.7910  -21.8120 C.3    40  VAL40       0.0019
     51  N         18.2450   55.6130  -19.5790 N.3    44  LYS44      -0.1245
     52  CA        18.6480   54.4210  -20.3320 C.3    44  LYS44       0.1561
     53  C         18.5180   53.1290  -19.5080 C.2    44  LYS44       0.2260
     54  O         17.8420   52.1660  -19.9190 O.2    44  LYS44      -0.2867
     55  CB        20.0750   54.5100  -20.8390 C.3    44  LYS44       0.0271
     56  CG        20.4870   55.7460  -21.5740 C.3    44  LYS44       0.0035
     57  CD        21.8370   55.4600  -22.2390 C.3    44  LYS44       0.0206
     58  CE        22.9120   56.4570  -21.8650 C.3    44  LYS44       0.1093
     59  NZ        24.2260   55.8180  -22.1490 N.3    44  LYS44      -0.1314
     60  N         23.8980   53.1410  -29.5950 N.3   169  PHE169     -0.1241
     61  CA        24.6940   54.1750  -30.2540 C.3   169  PHE169      0.1605
     62  C         25.6750   53.5710  -31.2680 C.2   169  PHE169      0.2264
     63  O         26.8310   54.0100  -31.3620 O.2   169  PHE169     -0.2867
     64  CB        25.4670   54.9840  -29.2080 C.3   169  PHE169      0.0534
     65  CG        24.5990   55.5780  -28.1700 C.ar  169  PHE169     -0.0203
     66  CD1       24.7130   55.1970  -26.8440 C.ar  169  PHE169     -0.0042
     67  CD2       23.6320   56.4780  -28.5130 C.ar  169  PHE169     -0.0042
     68  CE1       23.8900   55.7370  -25.8690 C.ar  169  PHE169     -0.0003
     69  CE2       22.7890   57.0080  -27.5410 C.ar  169  PHE169     -0.0003
     70  CZ        22.9180   56.6360  -26.2220 C.ar  169  PHE169     -0.0000
     71  N         23.3990   54.2760  -36.0200 N.3   172  GLU172     -0.1231
     72  CA        23.2940   55.6370  -36.4800 C.3   172  GLU172      0.1699
     73  C         24.6560   56.3730  -36.4030 C.2   172  GLU172      0.2592
     74  O         24.7820   57.5150  -36.8280 O.2   172  GLU172     -0.2718
     75  CB        22.2130   56.3590  -35.6770 C.3   172  GLU172      0.0402
     76  CG        22.6710   56.8990  -34.3170 C.3   172  GLU172      0.1161
     77  CD        22.6820   55.8570  -33.2100 C.2   172  GLU172      0.3649
     78  OE1       22.2720   54.6940  -33.4570 O.co2 172  GLU172     -0.2457
     79  OE2       23.0960   56.2230  -32.0820 O.co2 172  GLU172     -0.2457
     80  N         25.6770   55.7300  -35.8540 N.am  173  ALA173     -0.1980
     81  CA        26.9370   56.4250  -35.5920 C.3   173  ALA173      0.1597
     82  C         28.0940   55.9310  -36.4470 C.2   173  ALA173      0.2287
     83  O         29.2030   56.4600  -36.3860 O.2   173  ALA173     -0.2864
     84  CB        27.2880   56.2780  -34.1650 C.3   173  ALA173      0.0319
     85  N         21.2350   57.8310  -30.6210 N.3   203  ALA203     -0.1245
     86  CA        21.0670   59.2880  -30.6220 C.3   203  ALA203      0.1562
     87  C         19.9760   59.7320  -31.5790 C.2   203  ALA203      0.2260
     88  O         19.6120   58.9930  -32.4730 O.2   203  ALA203     -0.2867
     89  CB        22.3590   59.9520  -31.0030 C.3   203  ALA203      0.0290
     90  N         21.4720   63.7340  -34.1830 N.3   206  GLU206     -0.1245
     91  CA        22.8700   64.0650  -33.9110 C.3   206  GLU206      0.1567
     92  C         23.6990   63.9090  -35.1710 C.2   206  GLU206      0.2260
     93  O         23.5510   62.9260  -35.9060 O.2   206  GLU206     -0.2867
     94  CB        23.4380   63.1820  -32.7810 C.3   206  GLU206      0.0388
     95  CG        24.8540   62.6860  -33.0050 C.3   206  GLU206      0.1160
     96  CD        25.4680   62.0620  -31.7880 C.2   206  GLU206      0.3649
     97  OE1       25.6580   62.7700  -30.7730 O.co2 206  GLU206     -0.2457
     98  OE2       25.7830   60.8600  -31.8650 O.co2 206  GLU206     -0.2457
     99  N         30.0290   63.8780  -32.8970 N.3   209  TYR209     -0.1241
    100  CA        30.3760   63.7680  -31.4850 C.3   209  TYR209      0.1605
    101  C         31.8590   63.5360  -31.3960 C.2   209  TYR209      0.2264
    102  O         32.4300   62.8770  -32.2580 O.2   209  TYR209     -0.2867
    103  CB        29.6120   62.6220  -30.7890 C.3   209  TYR209      0.0534
    104  CG        30.0850   61.1960  -31.1390 C.ar  209  TYR209     -0.0201
    105  CD1       31.1460   60.5860  -30.4680 C.ar  209  TYR209     -0.0009
    106  CD2       29.4500   60.4560  -32.1110 C.ar  209  TYR209     -0.0009
    107  CE1       31.5650   59.3010  -30.7910 C.ar  209  TYR209      0.0417
    108  CE2       29.8630   59.1890  -32.4190 C.ar  209  TYR209      0.0417
    109  CZ        30.9060   58.6160  -31.7630 C.ar  209  TYR209      0.1957
    110  OH        31.2670   57.3500  -32.1310 O.3   209  TYR209     -0.2866
    111  N         17.0650   65.4570  -24.6300 N.3   245  MET245     -0.1245
    112  CA        18.2430   65.9540  -23.9170 C.3   245  MET245      0.1570
    113  C         18.0000   67.3310  -23.3030 C.2   245  MET245      0.2261
    114  O         17.4840   68.2200  -23.9660 O.2   245  MET245     -0.2867
    115  CB        19.4490   66.0070  -24.8460 C.3   245  MET245      0.0387
    116  CG        20.7660   66.0440  -24.1050 C.3   245  MET245      0.0595
    117  SD        21.0470   64.5110  -23.1980 S.3   245  MET245     -0.1393
    118  CE        21.5990   63.4040  -24.4780 C.3   245  MET245      0.0692
    119  N         28.9640   66.8100  -28.2820 N.3   254  ASP254     -0.1239
    120  CA        28.1380   66.4760  -29.4370 C.3   254  ASP254      0.1674
    121  C         26.9610   67.4320  -29.6330 C.2   254  ASP254      0.2266
    122  O         26.7570   68.3700  -28.8940 O.2   254  ASP254     -0.2867
    123  CB        27.6160   65.0390  -29.3190 C.3   254  ASP254      0.1410
    124  CG        26.8790   64.7910  -27.9980 C.2   254  ASP254      0.3668
    125  OD1       27.0870   63.6810  -27.4140 O.co2 254  ASP254     -0.2456
    126  OD2       26.1280   65.7180  -27.5590 O.co2 254  ASP254     -0.2456
    127  N         23.8550   66.0380  -30.1660 N.3   256  VAL256     -0.1245
    128  CA        22.7010   65.1800  -29.9020 C.3   256  VAL256      0.1561
    129  C         21.5400   66.0120  -29.3250 C.2   256  VAL256      0.2260
    130  O         21.7500   66.9250  -28.5340 O.2   256  VAL256     -0.2867
    131  CB        23.0920   64.0280  -28.9330 C.3   256  VAL256      0.0252
    132  CG1       23.5770   64.6110  -27.6650 C.3   256  VAL256      0.0019
    133  CG2       21.9260   63.1110  -28.6420 C.3   256  VAL256      0.0019
    134  N         17.3650   61.0600  -27.3220 N.3   259  VAL259     -0.1245
    135  CA        17.8310   59.6790  -27.3310 C.3   259  VAL259      0.1561
    136  C         16.6140   58.8140  -27.5070 C.2   259  VAL259      0.2260
    137  O         15.5100   59.1890  -27.0870 O.2   259  VAL259     -0.2867
    138  CB        18.5650   59.2490  -26.0050 C.3   259  VAL259      0.0252
    139  CG1       18.8000   57.7340  -25.9840 C.3   259  VAL259      0.0019
    140  CG2       19.8850   59.9750  -25.8330 C.3   259  VAL259      0.0019
@<TRIPOS>BOND
     1    74    73    2
     2    72    73    1
     3    72    71    1
     4    72    75    1
     5    82    83    2
     6    82    81    1
     7    73    80   am
     8    93    92    2
     9    80    81    1
    10    75    76    1
    11    81    84    1
    12    92    91    1
    13    76    77    1
    14    90    91    1
    15    91    94    1
    16    78    77   ar
    17    77    79   ar
    18    95    94    1
    19    95    96    1
    20    99   100    1
    21    88    87    2
    22   108   106   ar
    23   108   109   ar
    24   102   101    2
    25   110   109    1
    26   106   104   ar
    27    98    96   ar
    28    96    97   ar
    29   109   107   ar
    30    87    86    1
    31   100   101    1
    32   100   103    1
    33    63    62    2
    34    62    61    1
    35   104   103    1
    36   104   105   ar
    37    89    86    1
    38   107   105   ar
    39    86    85    1
    40    61    60    1
    41    61    64    1
    42   127   128    1
    43   128   129    1
    44   128   131    1
    45   121   120    1
    46   121   122    2
    47   120   123    1
    48   120   119    1
    49   129   130    2
    50   123   124    1
    51    64    65    1
    52   131   133    1
    53   131   132    1
    54    67    65   ar
    55    67    69   ar
    56    65    66   ar
    57   124   126   ar
    58   124   125   ar
    59    69    70   ar
    60   136   135    1
    61   136   137    2
    62   135   134    1
    63   135   138    1
    64     9     7   ar
    65     9    11   ar
    66     7     6   ar
    67    12    11    1
    68    66    68   ar
    69    11    10   ar
    70     6     5    1
    71     6     8   ar
    72    70    68   ar
    73     5     2    1
    74   138   139    1
    75   138   140    1
    76    10     8   ar
    77    20    18   am
    78     2     1    1
    79     2     3    1
    80   115   116    1
    81   115   112    1
    82    19    18    2
    83   111   112    1
    84    42    41    1
    85    43    41    1
    86   118   117    1
    87    18    17    1
    88   116   117    1
    89   114   113    2
    90   112   113    1
    91    41    40    2
    92     3     4    2
    93    32    31    1
    94    17    14    1
    95    29    31   ar
    96    29    27   ar
    97    40    39    1
    98    31    30   ar
    99    57    58    1
   100    57    56    1
   101    59    58    1
   102    14    13    1
   103    14    15    1
   104    50    48    1
   105    39    38    1
   106    27    26   ar
   107    56    55    1
   108    30    28   ar
   109    55    52    1
   110    15    16    2
   111    15    21   am
   112    48    49    1
   113    48    45    1
   114    26    28   ar
   115    26    25    1
   116    52    51    1
   117    52    53    1
   118    38    37    1
   119    21    22    1
   120    54    53    2
   121    47    46    2
   122    45    46    1
   123    45    44    1
   124    37    34    1
   125    25    22    1
   126    22    23    1
   127    34    33    1
   128    34    35    1
   129    23    24    2
   130    35    36    2
