@<TRIPOS>MOLECULE
tmp/3hchB02.pdb
 104 98 0 0 0
SMALL
GASTEIGER

@<TRIPOS>ATOM
      1  N         41.5290   14.6730  104.8560 N.3    12  THR12      -0.1203
      2  CA        41.9870   15.1940  106.1610 C.3    12  THR12       0.1994
      3  C         42.9190   16.4110  106.1380 C.2    12  THR12       0.2618
      4  O         42.9940   17.1340  107.1340 O.2    12  THR12      -0.2717
      5  CB        42.6280   14.0890  107.0050 C.3    12  THR12       0.1784
      6  OG1       43.6870   13.4870  106.2620 O.3    12  THR12      -0.2211
      7  CG2       41.6120   13.0220  107.3390 C.3    12  THR12       0.0376
      8  N         43.6080   16.6430  105.0150 N.am   13  LEU13      -0.1965
      9  CA        44.5590   17.7520  104.8710 C.3    13  LEU13       0.1728
     10  C         43.9090   18.9260  104.1790 C.2    13  LEU13       0.2616
     11  O         42.9500   18.7500  103.4510 O.2    13  LEU13      -0.2715
     12  CB        45.7980   17.3010  104.0750 C.3    13  LEU13       0.0311
     13  CG        46.5960   16.1470  104.6700 C.3    13  LEU13       0.0022
     14  CD1       47.8130   15.7580  103.7650 C.3    13  LEU13       0.0001
     15  CD2       47.0310   16.5440  106.1080 C.3    13  LEU13       0.0001
     16  N         44.4140   20.1360  104.3990 N.am   14  THR14      -0.1951
     17  CA        43.9690   21.2540  103.5840 C.3    14  THR14       0.1897
     18  C         44.5300   21.0860  102.1730 C.2    14  THR14       0.2313
     19  O         45.4630   20.3040  101.9630 O.2    14  THR14      -0.2863
     20  CB        44.4600   22.6200  104.1280 C.3    14  THR14       0.1794
     21  OG1       45.8790   22.7140  103.9240 O.3    14  THR14      -0.2208
     22  CG2       44.1190   22.7760  105.6300 C.3    14  THR14       0.0378
     23  N         48.2940   21.7090  102.2580 N.3    17  GLN17      -0.1245
     24  CA        49.0130   20.5920  102.8620 C.3    17  GLN17       0.1566
     25  C         49.0720   19.3850  101.9190 C.2    17  GLN17       0.2260
     26  O         50.1080   18.7050  101.8240 O.2    17  GLN17      -0.2867
     27  CB        48.3830   20.1590  104.1750 C.3    17  GLN17       0.0367
     28  CG        48.4650   21.2210  105.2940 C.3    17  GLN17       0.0905
     29  CD        47.6930   20.7980  106.5380 C.2    17  GLN17       0.2608
     30  OE1       46.6960   20.0660  106.4400 O.2    17  GLN17      -0.2717
     31  NE2       48.1520   21.2510  107.7320 N.am   17  GLN17      -0.0878
     32  N         56.1750   19.0690  113.1640 N.3    44  VAL44      -0.1231
     33  CA        55.8560   17.6410  113.0280 C.3    44  VAL44       0.1692
     34  C         55.2050   17.4520  111.6660 C.2    44  VAL44       0.2592
     35  O         54.7280   18.4080  111.0260 O.2    44  VAL44      -0.2718
     36  CB        54.9390   17.0870  114.1640 C.3    44  VAL44       0.0266
     37  CG1       55.6160   17.3160  115.5550 C.3    44  VAL44       0.0020
     38  CG2       53.4790   17.6580  114.0720 C.3    44  VAL44       0.0020
     39  N         55.1980   16.2010  111.2420 N.am   45  ASP45      -0.1960
     40  CA        54.6480   15.8740  109.9490 C.3    45  ASP45       0.1840
     41  C         53.1100   16.0480  110.0320 C.2    45  ASP45       0.2622
     42  O         52.5110   15.5650  110.9490 O.2    45  ASP45      -0.2715
     43  CB        55.0470   14.4340  109.6280 C.3    45  ASP45       0.1450
     44  CG        54.5720   14.0020  108.2370 C.2    45  ASP45       0.3671
     45  OD1       53.4160   13.5740  108.0690 O.co2  45  ASP45      -0.2456
     46  OD2       55.3390   14.1280  107.3120 O.co2  45  ASP45      -0.2456
     47  N         52.5060   16.7620  109.0930 N.am   46  VAL46      -0.1963
     48  CA        51.0420   16.9410  109.0710 C.3    46  VAL46       0.1727
     49  C         50.2190   15.6700  108.8530 C.2    46  VAL46       0.2616
     50  O         49.0120   15.6580  109.1320 O.2    46  VAL46      -0.2715
     51  CB        50.6050   18.0290  108.0510 C.3    46  VAL46       0.0290
     52  CG1       51.2430   19.3000  108.3960 C.3    46  VAL46       0.0023
     53  CG2       50.9660   17.6360  106.5680 C.3    46  VAL46       0.0023
     54  N         50.8490   14.6060  108.3480 N.am   47  VAL47      -0.1963
     55  CA        50.1750   13.3400  108.1160 C.3    47  VAL47       0.1727
     56  C         50.3510   12.3990  109.3100 C.2    47  VAL47       0.2617
     57  O         49.3640   11.9190  109.9100 O.2    47  VAL47      -0.2715
     58  CB        50.7630   12.6580  106.8340 C.3    47  VAL47       0.0290
     59  CG1       50.2860   11.2120  106.6820 C.3    47  VAL47       0.0023
     60  CG2       50.4530   13.4850  105.6000 C.3    47  VAL47       0.0023
     61  N         51.5920   12.1120  109.6730 N.am   48  SER48      -0.1936
     62  CA        51.8250   11.1260  110.7340 C.3    48  SER48       0.2055
     63  C         51.9770   11.7580  112.1390 C.2    48  SER48       0.2643
     64  O         51.9880   11.0490  113.1280 O.2    48  SER48      -0.2714
     65  CB        53.0930   10.3710  110.4550 C.3    48  SER48       0.2130
     66  OG        54.1830   11.2900  110.4710 O.3    48  SER48      -0.2179
     67  N         52.1890   13.0680  112.2090 N.am   49  GLY49      -0.1954
     68  CA        52.5750   13.6630  113.4780 C.3    49  GLY49       0.1869
     69  C         53.9830   13.3230  113.9240 C.2    49  GLY49       0.2309
     70  O         54.3740   13.6910  115.0400 O.2    49  GLY49      -0.2863
     71  N         53.4300   20.9640  110.9340 N.3   122  LYS122     -0.1245
     72  CA        52.5520   21.4820  111.9680 C.3   122  LYS122      0.1561
     73  C         53.3810   21.8660  113.2040 C.2   122  LYS122      0.2260
     74  O         54.0820   21.0280  113.7630 O.2   122  LYS122     -0.2867
     75  CB        51.4940   20.4460  112.3940 C.3   122  LYS122      0.0271
     76  CG        50.6120   21.0480  113.5110 C.3   122  LYS122      0.0035
     77  CD        49.1950   20.5120  113.5490 C.3   122  LYS122      0.0206
     78  CE        49.1300   19.2140  114.3460 C.3   122  LYS122      0.1093
     79  NZ        47.7630   18.9590  114.9210 N.3   122  LYS122     -0.1314
     80  N         54.0990   22.7000  116.9740 N.3   124  ILE124     -0.1245
     81  CA        53.6300   22.4590  118.3350 C.3   124  ILE124      0.1561
     82  C         54.4440   23.3670  119.2930 C.2   124  ILE124      0.2260
     83  O         55.6140   23.0870  119.5360 O.2   124  ILE124     -0.2867
     84  CB        53.8090   20.9580  118.7530 C.3   124  ILE124      0.0252
     85  CG1       53.2160   19.9930  117.6870 C.3   124  ILE124      0.0019
     86  CG2       53.1990   20.6950  120.1680 C.3   124  ILE124      0.0019
     87  CD1       51.7100   20.1710  117.4280 C.3   124  ILE124      0.0001
     88  N         50.1280   17.7060  123.7320 N.3   132  ALA132     -0.1245
     89  CA        50.0290   17.1410  122.3910 C.3   132  ALA132      0.1562
     90  C         50.6390   15.7310  122.3200 C.2   132  ALA132      0.2260
     91  O         50.4900   15.0560  121.3270 O.2   132  ALA132     -0.2867
     92  CB        50.6530   18.1000  121.3360 C.3   132  ALA132      0.0290
     93  N         54.0620   15.1400  122.9750 N.3   134  TYR134     -0.1241
     94  CA        55.4900   15.2420  122.6310 C.3   134  TYR134      0.1605
     95  C         56.3760   15.6830  123.8160 C.2   134  TYR134      0.2264
     96  O         57.4660   16.1940  123.6210 O.2   134  TYR134     -0.2867
     97  CB        55.6940   16.1900  121.4420 C.3   134  TYR134      0.0534
     98  CG        54.9490   15.7830  120.1800 C.ar  134  TYR134     -0.0201
     99  CD1       55.5460   14.9450  119.2230 C.ar  134  TYR134     -0.0009
    100  CD2       53.6600   16.2480  119.9310 C.ar  134  TYR134     -0.0009
    101  CE1       54.8630   14.5970  118.0490 C.ar  134  TYR134      0.0417
    102  CE2       52.9630   15.9000  118.7630 C.ar  134  TYR134      0.0417
    103  CZ        53.5730   15.0720  117.8420 C.ar  134  TYR134      0.1957
    104  OH        52.8940   14.7440  116.7230 O.3   134  TYR134     -0.2866
@<TRIPOS>BOND
     1    26    25    2
     2    25    24    1
     3    19    18    2
     4    18    17    1
     5    23    24    1
     6    24    27    1
     7    11    10    2
     8    17    20    1
     9    17    16    1
    10    14    13    1
    11    21    20    1
    12    12    13    1
    13    12     9    1
    14    20    22    1
    15    27    28    1
    16    10    16   am
    17    10     9    1
    18    13    15    1
    19     1     2    1
    20     9     8    1
    21     8     3   am
    22    28    29    1
    23    60    58    1
    24     3     2    1
    25     3     4    2
    26     2     5    1
    27     6     5    1
    28    30    29    2
    29    29    31   am
    30    53    51    1
    31    59    58    1
    32    58    55    1
    33     5     7    1
    34    46    44   ar
    35    51    52    1
    36    51    48    1
    37    45    44   ar
    38    55    54    1
    39    55    56    1
    40    44    43    1
    41    54    49   am
    42    49    48    1
    43    49    50    2
    44    48    47    1
    45    47    41   am
    46    56    61   am
    47    56    57    2
    48    43    40    1
    49    61    62    1
    50    40    41    1
    51    40    39    1
    52    41    42    2
    53    65    66    1
    54    65    62    1
    55    62    63    1
    56    71    72    1
    57    35    34    2
    58    39    34   am
    59    34    33    1
    60    72    75    1
    61    72    73    1
    62    63    67   am
    63    63    64    2
    64    67    68    1
    65    75    76    1
    66    33    32    1
    67    33    36    1
    68    73    74    2
    69    68    69    1
    70    76    77    1
    71    77    78    1
    72    69    70    2
    73    38    36    1
    74    36    37    1
    75    78    79    1
    76   104   103    1
    77    80    81    1
    78    87    85    1
    79    85    84    1
    80   103   101   ar
    81   103   102   ar
    82   101    99   ar
    83    81    84    1
    84    81    82    1
    85    84    86    1
    86   102   100   ar
    87    99    98   ar
    88    82    83    2
    89   100    98   ar
    90    98    97    1
    91    91    90    2
    92    92    89    1
    93    97    94    1
    94    90    89    1
    95    89    88    1
    96    94    93    1
    97    94    95    1
    98    96    95    2
