@<TRIPOS>MOLECULE
tmp/3hchA03.pdb
 107 105 0 0 0
SMALL
GASTEIGER

@<TRIPOS>ATOM
      1  N         35.7540   -2.6300   89.3050 N.3    74  ALA74      -0.1245
      2  CA        35.6830   -1.5440   90.2430 C.3    74  ALA74       0.1562
      3  C         36.7980   -1.6310   91.3440 C.2    74  ALA74       0.2260
      4  O         37.2430   -0.5910   91.8390 O.2    74  ALA74      -0.2867
      5  CB        34.2600   -1.4010   90.8700 C.3    74  ALA74       0.0290
      6  N         38.5620    5.8660   93.7140 N.3    79  GLU79      -0.1245
      7  CA        38.1200    7.1580   93.2520 C.3    79  GLU79       0.1567
      8  C         37.8170    8.0430   94.4360 C.2    79  GLU79       0.2260
      9  O         37.3540    7.5390   95.4460 O.2    79  GLU79      -0.2867
     10  CB        36.8500    6.9720   92.3990 C.3    79  GLU79       0.0388
     11  CG        37.1030    6.0610   91.1780 C.3    79  GLU79       0.1160
     12  CD        35.8240    5.6850   90.4360 C.2    79  GLU79       0.3649
     13  OE1       34.7640    6.2840   90.7220 O.co2  79  GLU79      -0.2457
     14  OE2       35.9050    4.7960   89.5680 O.co2  79  GLU79      -0.2457
     15  N         34.6890   20.6130   90.6220 N.3    88  ARG88      -0.1231
     16  CA        34.3160   19.3270   91.2170 C.3    88  ARG88       0.1694
     17  C         34.7720   18.1880   90.2800 C.2    88  ARG88       0.2592
     18  O         34.1940   17.9880   89.2050 O.2    88  ARG88      -0.2718
     19  CB        32.8050   19.2620   91.4950 C.3    88  ARG88       0.0321
     20  CG        32.3450   18.0490   92.3230 C.3    88  ARG88       0.0489
     21  CD        32.0090   16.8740   91.4080 C.3    88  ARG88       0.2205
     22  NE        31.3230   15.7710   92.0830 N.pl3  88  ARG88      -0.0865
     23  CZ        31.8370   14.5560   92.2630 C.cat  88  ARG88       0.5346
     24  NH1       33.0630   14.2660   91.8290 N.pl3  88  ARG88       0.1354
     25  NH2       31.1240   13.6220   92.8860 N.pl3  88  ARG88       0.1354
     26  N         35.8170   17.4610   90.6800 N.am   89  ARG89      -0.1966
     27  CA        36.3280   16.3570   89.8680 C.3    89  ARG89       0.1729
     28  C         36.4250   15.0810   90.6830 C.2    89  ARG89       0.2616
     29  O         36.3920   15.1290   91.9100 O.2    89  ARG89      -0.2715
     30  CB        37.6750   16.7100   89.2410 C.3    89  ARG89       0.0348
     31  CG        37.6110   17.7740   88.1430 C.3    89  ARG89       0.0492
     32  CD        38.9870   17.9380   87.4780 C.3    89  ARG89       0.2205
     33  NE        40.0210   18.2390   88.4670 N.pl3  89  ARG89      -0.0865
     34  CZ        41.3360   18.2570   88.2260 C.cat  89  ARG89       0.5346
     35  NH1       41.8100   17.9810   87.0170 N.pl3  89  ARG89       0.1354
     36  NH2       42.1870   18.5550   89.2080 N.pl3  89  ARG89       0.1354
     37  N         36.4890   13.9390   90.0090 N.am   90  THR90      -0.1951
     38  CA        36.6840   12.6630   90.6640 C.3    90  THR90       0.1897
     39  C         38.0140   12.1290   90.1750 C.2    90  THR90       0.2313
     40  O         38.1540   11.8280   88.9950 O.2    90  THR90      -0.2863
     41  CB        35.5500   11.6500   90.3310 C.3    90  THR90       0.1794
     42  OG1       34.2940   12.2310   90.6700 O.3    90  THR90      -0.2208
     43  CG2       35.6990   10.3290   91.0680 C.3    90  THR90       0.0378
     44  N         37.8080   10.6210   86.3500 N.3   104  VAL104     -0.1231
     45  CA        36.6550   10.0160   85.7030 C.3   104  VAL104      0.1692
     46  C         35.5560   11.0700   85.5750 C.2   104  VAL104      0.2592
     47  O         35.3190   11.8540   86.5180 O.2   104  VAL104     -0.2718
     48  CB        36.2110    8.7020   86.3840 C.3   104  VAL104      0.0266
     49  CG1       35.9980    8.9060   87.8470 C.3   104  VAL104      0.0020
     50  CG2       34.9210    8.1630   85.7650 C.3   104  VAL104      0.0020
     51  N         34.9570   11.1430   84.3720 N.am  105  PHE105     -0.1963
     52  CA        33.9190   12.1180   84.0330 C.3   105  PHE105      0.1756
     53  C         32.5980   11.4650   83.6050 C.2   105  PHE105      0.2461
     54  O         32.5990   10.3580   83.0530 O.2   105  PHE105     -0.2730
     55  CB        34.4130   13.0320   82.9250 C.3   105  PHE105      0.0574
     56  CG        35.6530   13.7680   83.2740 C.ar  105  PHE105     -0.0200
     57  CD1       36.8950   13.2500   82.9490 C.ar  105  PHE105     -0.0042
     58  CD2       35.5880   14.9730   83.9610 C.ar  105  PHE105     -0.0042
     59  CE1       38.0520   13.9150   83.2740 C.ar  105  PHE105     -0.0003
     60  CE2       36.7520   15.6500   84.2830 C.ar  105  PHE105     -0.0003
     61  CZ        37.9810   15.1160   83.9370 C.ar  105  PHE105     -0.0000
     62  N         31.4640   12.1380   83.8620 N.am  106  PRO106     -0.2716
     63  CA        30.1750   11.5420   83.4590 C.3   106  PRO106      0.1536
     64  C         29.7710   11.9040   81.9880 C.2   106  PRO106      0.2598
     65  O         28.5820   12.1760   81.7060 O.2   106  PRO106     -0.2715
     66  CB        29.1810   12.1400   84.4830 C.3   106  PRO106      0.0310
     67  CG        29.7590   13.4690   84.8390 C.3   106  PRO106      0.0237
     68  CD        31.2750   13.4470   84.5170 C.3   106  PRO106      0.0939
     69  N         30.7450   11.8870   81.0720 N.am  107  ASP107     -0.1972
     70  CA        30.5250   12.2400   79.6790 C.3   107  ASP107      0.1709
     71  C         31.0590   11.1180   78.7930 C.2   107  ASP107      0.2293
     72  O         31.4860   11.3590   77.6910 O.2   107  ASP107     -0.2864
     73  CB        31.1870   13.5920   79.3460 C.3   107  ASP107      0.1436
     74  CG        32.7010   13.5710   79.5360 C.2   107  ASP107      0.3671
     75  OD1       33.2740   12.4850   79.7410 O.co2 107  ASP107     -0.2456
     76  OD2       33.3400   14.6440   79.4560 O.co2 107  ASP107     -0.2456
     77  N         30.4690    6.7310   81.5910 N.3   115  LEU115     -0.1231
     78  CA        31.7270    7.2340   82.2330 C.3   115  LEU115      0.1693
     79  C         32.9350    7.2670   81.3020 C.2   115  LEU115      0.2592
     80  O         33.1270    6.3780   80.4620 O.2   115  LEU115     -0.2718
     81  CB        32.0830    6.3850   83.4690 C.3   115  LEU115      0.0284
     82  CG        30.9790    6.2520   84.5200 C.3   115  LEU115      0.0019
     83  CD1       31.4180    5.2370   85.5710 C.3   115  LEU115      0.0001
     84  CD2       30.6530    7.6050   85.1540 C.3   115  LEU115      0.0001
     85  N         33.7110    8.3320   81.4280 N.am  116  ARG116     -0.1966
     86  CA        34.9710    8.4460   80.7650 C.3   116  ARG116      0.1729
     87  C         36.0700    8.4640   81.8590 C.2   116  ARG116      0.2616
     88  O         36.1850    9.4450   82.6300 O.2   116  ARG116     -0.2715
     89  CB        35.0520    9.7620   79.9750 C.3   116  ARG116      0.0348
     90  CG        36.4140    9.9470   79.3350 C.3   116  ARG116      0.0492
     91  CD        36.5030   11.1100   78.4220 C.3   116  ARG116      0.2205
     92  NE        35.9410   12.3400   78.9900 N.pl3 116  ARG116     -0.0865
     93  CZ        36.6490   13.4070   79.3430 C.cat 116  ARG116      0.5346
     94  NH1       37.9870   13.4460   79.2220 N.pl3 116  ARG116      0.1354
     95  NH2       36.0070   14.4500   79.8330 N.pl3 116  ARG116      0.1354
     96  N         36.8540    7.3920   81.8900 N.am  117  TYR117     -0.1974
     97  CA        38.0890    7.3220   82.6650 C.3   117  TYR117      0.1639
     98  C         39.1910    7.9070   81.8150 C.2   117  TYR117      0.2290
     99  O         39.6010    7.2950   80.8360 O.2   117  TYR117     -0.2864
    100  CB        38.4230    5.8730   83.0300 C.3   117  TYR117      0.0560
    101  CG        37.5300    5.4120   84.1440 C.ar  117  TYR117     -0.0198
    102  CD1       36.2220    5.0110   83.8850 C.ar  117  TYR117     -0.0009
    103  CD2       37.9890    5.4070   85.4780 C.ar  117  TYR117     -0.0009
    104  CE1       35.3600    4.6160   84.9060 C.ar  117  TYR117      0.0417
    105  CE2       37.1560    5.0210   86.5160 C.ar  117  TYR117      0.0417
    106  CZ        35.8350    4.6310   86.2320 C.ar  117  TYR117      0.1957
    107  OH        34.9930    4.2430   87.2490 O.3   117  TYR117     -0.2866
@<TRIPOS>BOND
     1    72    71    2
     2    91    92    1
     3    91    90    1
     4    71    70    1
     5    92    93    2
     6    94    93    1
     7    90    89    1
     8    93    95    1
     9    73    74    1
    10    73    70    1
    11    76    74   ar
    12    74    75   ar
    13    70    69    1
    14    89    86    1
    15    80    79    2
    16    86    85    1
    17    86    87    1
    18    99    98    2
    19    69    64   am
    20    79    85   am
    21    79    78    1
    22    77    78    1
    23    65    64    2
    24    98    97    1
    25    87    96   am
    26    87    88    2
    27    96    97    1
    28    64    63    1
    29    78    81    1
    30    97   100    1
    31    55    56    1
    32    55    52    1
    33    57    56   ar
    34    57    59   ar
    35   100   101    1
    36    54    53    2
    37    56    58   ar
    38    59    61   ar
    39    63    62    1
    40    63    66    1
    41    81    82    1
    42    53    62   am
    43    53    52    1
    44    62    68    1
    45   102   101   ar
    46   102   104   ar
    47    61    60   ar
    48    58    60   ar
    49    52    51    1
    50   101   103   ar
    51    51    46   am
    52    66    67    1
    53    68    67    1
    54    82    84    1
    55    82    83    1
    56   104   106   ar
    57   103   105   ar
    58    46    45    1
    59    46    47    2
    60    45    44    1
    61    45    48    1
    62    50    48    1
    63   106   105   ar
    64   106   107    1
    65    48    49    1
    66    35    34    1
    67    32    31    1
    68    32    33    1
    69    31    30    1
    70    34    33    2
    71    34    36    1
    72    40    39    2
    73    18    17    2
    74    30    27    1
    75     1     2    1
    76    14    12   ar
    77    27    26    1
    78    27    28    1
    79    37    38    1
    80    37    28   am
    81    39    38    1
    82     2     5    1
    83     2     3    1
    84    17    26   am
    85    17    16    1
    86    41    38    1
    87    41    42    1
    88    41    43    1
    89    12    13   ar
    90    12    11    1
    91    15    16    1
    92    28    29    2
    93    11    10    1
    94    16    19    1
    95     3     4    2
    96    21    22    1
    97    21    20    1
    98    19    20    1
    99    24    23    1
   100    22    23    2
   101    23    25    1
   102    10     7    1
   103     7     6    1
   104     7     8    1
   105     8     9    2
