@<TRIPOS>MOLECULE
tmp/3hchA00.pdb
 106 100 0 0 0
SMALL
GASTEIGER

@<TRIPOS>ATOM
      1  N         49.6350   15.8810   85.3160 N.3    26  THR26      -0.1218
      2  CA        49.0230   15.5750   84.0190 C.3    26  THR26       0.1862
      3  C         49.9490   15.7470   82.8240 C.2    26  THR26       0.2287
      4  O         50.4870   16.8470   82.5970 O.2    26  THR26      -0.2866
      5  CB        47.7240   16.3950   83.8730 C.3    26  THR26       0.1770
      6  OG1       46.9880   16.2060   85.0650 O.3    26  THR26      -0.2211
      7  CG2       46.8410   15.9250   82.6970 C.3    26  THR26       0.0375
      8  N         39.9880   13.4810   73.5300 N.3    63  SER63      -0.1217
      9  CA        40.5890   14.3880   74.5370 C.3    63  SER63       0.1889
     10  C         42.1160   14.4890   74.4210 C.2    63  SER63       0.2288
     11  O         42.7250   15.4340   74.8930 O.2    63  SER63      -0.2866
     12  CB        40.2080   13.9670   75.9720 C.3    63  SER63       0.2089
     13  OG        40.8540   12.7580   76.3000 O.3    63  SER63      -0.2183
     14  N         43.9810   12.0370   75.8490 N.3    65  TRP65      -0.1241
     15  CA        44.4640   11.0420   76.8150 C.3    65  TRP65       0.1605
     16  C         43.7780    9.7050   76.6170 C.2    65  TRP65       0.2264
     17  O         42.6040    9.6510   76.2400 O.2    65  TRP65      -0.2867
     18  CB        44.1920   11.5110   78.2520 C.3    65  TRP65       0.0550
     19  CG        44.9440   12.7810   78.6340 C.ar   65  TRP65       0.0003
     20  CD1       46.2530   12.8770   79.0130 C.ar   65  TRP65       0.0946
     21  CD2       44.4090   14.1060   78.6930 C.ar   65  TRP65       0.0152
     22  NE1       46.5710   14.1900   79.2950 N.ar   65  TRP65      -0.2442
     23  CE2       45.4590   14.9650   79.1150 C.ar   65  TRP65       0.0810
     24  CE3       43.1540   14.6550   78.4070 C.ar   65  TRP65       0.0012
     25  CZ2       45.2990   16.3440   79.2610 C.ar   65  TRP65       0.0191
     26  CZ3       42.9770   16.0570   78.5660 C.ar   65  TRP65       0.0001
     27  CH2       44.0500   16.8760   78.9930 C.ar   65  TRP65       0.0015
     28  N         37.1360   23.2720   90.8170 N.3    87  MET87      -0.1245
     29  CA        36.3230   22.3310   90.0400 C.3    87  MET87       0.1570
     30  C         35.8280   21.2180   90.9520 C.2    87  MET87       0.2261
     31  O         36.4610   20.9290   91.9580 O.2    87  MET87      -0.2867
     32  CB        37.1600   21.7110   88.9020 C.3    87  MET87       0.0387
     33  CG        37.4750   22.6420   87.7130 C.3    87  MET87       0.0595
     34  SD        38.6450   21.9590   86.5060 S.3    87  MET87      -0.1393
     35  CE        40.2200   22.1310   87.3620 C.3    87  MET87       0.0692
     36  N         35.8170   17.4610   90.6800 N.3    89  ARG89      -0.1245
     37  CA        36.3280   16.3570   89.8680 C.3    89  ARG89       0.1563
     38  C         36.4250   15.0810   90.6830 C.2    89  ARG89       0.2260
     39  O         36.3920   15.1290   91.9100 O.2    89  ARG89      -0.2867
     40  CB        37.6750   16.7100   89.2410 C.3    89  ARG89       0.0307
     41  CG        37.6110   17.7740   88.1430 C.3    89  ARG89       0.0489
     42  CD        38.9870   17.9380   87.4780 C.3    89  ARG89       0.2205
     43  NE        40.0210   18.2390   88.4670 N.pl3  89  ARG89      -0.0865
     44  CZ        41.3360   18.2570   88.2260 C.cat  89  ARG89       0.5346
     45  NH1       41.8100   17.9810   87.0170 N.pl3  89  ARG89       0.1354
     46  NH2       42.1870   18.5550   89.2080 N.pl3  89  ARG89       0.1354
     47  N         48.5120    7.8820   91.0080 N.3   100  HIS100     -0.1241
     48  CA        47.5760    8.7650   90.3270 C.3   100  HIS100      0.1621
     49  C         47.4590    8.2330   88.8740 C.2   100  HIS100      0.2264
     50  O         48.4700    7.9290   88.2310 O.2   100  HIS100     -0.2867
     51  CB        48.0510   10.2130   90.2780 C.3   100  HIS100      0.0745
     52  CG        47.1570   11.1020   89.4660 C.ar  100  HIS100      0.0817
     53  ND1       45.9230   11.5030   89.9050 N.ar  100  HIS100     -0.2268
     54  CD2       47.2950   11.6190   88.2160 C.ar  100  HIS100      0.1154
     55  CE1       45.3440   12.2590   88.9870 C.ar  100  HIS100      0.1986
     56  NE2       46.1660   12.3560   87.9540 N.ar  100  HIS100     -0.2212
     57  N         44.3640    9.3540   86.7540 N.3   102  GLY102     -0.1210
     58  CA        43.7420   10.4500   86.0280 C.3   102  GLY102      0.1956
     59  C         42.4660   10.7910   86.7330 C.2   102  GLY102      0.2611
     60  O         42.4400   10.8470   87.9590 O.2   102  GLY102     -0.2717
     61  N         41.4000   11.0320   85.9720 N.am  103  HIS103     -0.1975
     62  CA        40.0960   11.4480   86.5150 C.3   103  HIS103      0.1656
     63  C         38.9780   10.7230   85.7450 C.2   103  HIS103      0.2291
     64  O         39.1940   10.2510   84.6410 O.2   103  HIS103     -0.2864
     65  CB        39.8980   12.9760   86.3930 C.3   103  HIS103      0.0771
     66  CG        40.8670   13.7710   87.2190 C.ar  103  HIS103      0.0820
     67  ND1       42.1330   14.0870   86.7760 N.ar  103  HIS103     -0.2267
     68  CD2       40.7680   14.2740   88.4760 C.ar  103  HIS103      0.1154
     69  CE1       42.7730   14.7580   87.7220 C.ar  103  HIS103      0.1986
     70  NE2       41.9690   14.8710   88.7640 N.ar  103  HIS103     -0.2212
     71  N         34.9570   11.1430   84.3720 N.3   105  PHE105     -0.1241
     72  CA        33.9190   12.1180   84.0330 C.3   105  PHE105      0.1605
     73  C         32.5980   11.4650   83.6050 C.2   105  PHE105      0.2264
     74  O         32.5990   10.3580   83.0530 O.2   105  PHE105     -0.2867
     75  CB        34.4130   13.0320   82.9250 C.3   105  PHE105      0.0534
     76  CG        35.6530   13.7680   83.2740 C.ar  105  PHE105     -0.0203
     77  CD1       36.8950   13.2500   82.9490 C.ar  105  PHE105     -0.0042
     78  CD2       35.5880   14.9730   83.9610 C.ar  105  PHE105     -0.0042
     79  CE1       38.0520   13.9150   83.2740 C.ar  105  PHE105     -0.0003
     80  CE2       36.7520   15.6500   84.2830 C.ar  105  PHE105     -0.0003
     81  CZ        37.9810   15.1160   83.9370 C.ar  105  PHE105     -0.0000
     82  N         33.7110    8.3320   81.4280 N.3   116  ARG116     -0.1245
     83  CA        34.9710    8.4460   80.7650 C.3   116  ARG116      0.1563
     84  C         36.0700    8.4640   81.8590 C.2   116  ARG116      0.2260
     85  O         36.1850    9.4450   82.6300 O.2   116  ARG116     -0.2867
     86  CB        35.0520    9.7620   79.9750 C.3   116  ARG116      0.0307
     87  CG        36.4140    9.9470   79.3350 C.3   116  ARG116      0.0489
     88  CD        36.5030   11.1100   78.4220 C.3   116  ARG116      0.2205
     89  NE        35.9410   12.3400   78.9900 N.pl3 116  ARG116     -0.0865
     90  CZ        36.6490   13.4070   79.3430 C.cat 116  ARG116      0.5346
     91  NH1       37.9870   13.4460   79.2220 N.pl3 116  ARG116      0.1354
     92  NH2       36.0070   14.4500   79.8330 N.pl3 116  ARG116      0.1354
     93  N         39.6380    9.1030   82.1800 N.3   118  SER118     -0.1217
     94  CA        40.6150    9.8350   81.4160 C.3   118  SER118      0.1889
     95  C         41.9530    9.6400   82.1270 C.2   118  SER118      0.2288
     96  O         42.1720   10.2130   83.2170 O.2   118  SER118     -0.2866
     97  CB        40.2130   11.3100   81.4210 C.3   118  SER118      0.2089
     98  OG        41.1470   12.0470   80.6690 O.3   118  SER118     -0.2183
     99  N         46.2420    9.1580   82.2380 N.3   120  ASN120     -0.1240
    100  CA        47.5370    9.4540   81.6520 C.3   120  ASN120      0.1653
    101  C         48.1720    8.1890   81.1490 C.2   120  ASN120      0.2266
    102  O         48.2580    7.2060   81.8680 O.2   120  ASN120     -0.2867
    103  CB        48.4860   10.0760   82.6970 C.3   120  ASN120      0.1155
    104  CG        47.9860   11.3740   83.1930 C.2   120  ASN120      0.2627
    105  OD1       48.2300   12.3950   82.5800 O.2   120  ASN120     -0.2716
    106  ND2       47.2530   11.3530   84.3000 N.am  120  ASN120     -0.0877
@<TRIPOS>BOND
     1     8     9    1
     2    10     9    1
     3    10    11    2
     4     9    12    1
     5    14    15    1
     6    12    13    1
     7    17    16    2
     8    16    15    1
     9    15    18    1
    10    18    19    1
    11    24    26   ar
    12    24    21   ar
    13    88    89    1
    14    88    87    1
    15    26    27   ar
    16    19    21   ar
    17    19    20   ar
    18    21    23   ar
    19    89    90    2
    20    27    25   ar
    21    20    22   ar
    22    23    25   ar
    23    23    22   ar
    24    91    90    1
    25    87    86    1
    26    90    92    1
    27    86    83    1
    28    98    97    1
    29    83    82    1
    30    83    84    1
    31   101   100    1
    32   101   102    2
    33    94    97    1
    34    94    95    1
    35    94    93    1
    36   100    99    1
    37   100   103    1
    38    84    85    2
    39    95    96    2
    40   105   104    2
    41     4     3    2
    42   103   104    1
    43     7     5    1
    44     3     2    1
    45    75    76    1
    46    75    72    1
    47    77    79   ar
    48    77    76   ar
    49    74    73    2
    50   104   106   am
    51    79    81   ar
    52    76    78   ar
    53    73    72    1
    54     5     2    1
    55     5     6    1
    56    81    80   ar
    57    78    80   ar
    58     2     1    1
    59    72    71    1
    60    64    63    2
    61    63    62    1
    62    61    62    1
    63    61    59   am
    64    58    59    1
    65    58    57    1
    66    65    62    1
    67    65    66    1
    68    34    35    1
    69    34    33    1
    70    59    60    2
    71    67    66   ar
    72    67    69   ar
    73    45    44    1
    74    66    68   ar
    75    42    41    1
    76    42    43    1
    77    33    32    1
    78    69    70   ar
    79    56    54   ar
    80    56    55   ar
    81    41    40    1
    82    54    52   ar
    83    44    43    2
    84    44    46    1
    85    50    49    2
    86    68    70   ar
    87    49    48    1
    88    32    29    1
    89    55    53   ar
    90    40    37    1
    91    52    53   ar
    92    52    51    1
    93    37    36    1
    94    37    38    1
    95    29    28    1
    96    29    30    1
    97    51    48    1
    98    48    47    1
    99    38    39    2
   100    30    31    2
