@<TRIPOS>MOLECULE
tmp/3hchA01.pdb
 84 81 0 0 0
SMALL
GASTEIGER

@<TRIPOS>ATOM
      1  N         38.7060    3.5190   74.3400 N.3    59  TYR59      -0.1227
      2  CA        38.0120    4.1850   73.2350 C.3    59  TYR59       0.1736
      3  C         38.6590    5.5320   73.0630 C.2    59  TYR59       0.2595
      4  O         39.3980    6.0180   73.9700 O.2    59  TYR59      -0.2718
      5  CB        36.4960    4.3320   73.4860 C.3    59  TYR59       0.0548
      6  CG        36.0740    5.3550   74.5290 C.ar   59  TYR59      -0.0200
      7  CD1       36.0400    5.0190   75.8860 C.ar   59  TYR59      -0.0009
      8  CD2       35.6780    6.6400   74.1570 C.ar   59  TYR59      -0.0009
      9  CE1       35.6480    5.9470   76.8240 C.ar   59  TYR59       0.0417
     10  CE2       35.2550    7.5510   75.0760 C.ar   59  TYR59       0.0417
     11  CZ        35.2630    7.2060   76.4240 C.ar   59  TYR59       0.1957
     12  OH        34.8290    8.1330   77.3640 O.3    59  TYR59      -0.2866
     13  N         38.4140    6.1350   71.8950 N.am   60  ASP60      -0.1960
     14  CA        38.9340    7.4670   71.6250 C.3    60  ASP60       0.1840
     15  C         37.8460    8.4420   72.0160 C.2    60  ASP60       0.2623
     16  O         36.7210    8.3770   71.4920 O.2    60  ASP60      -0.2715
     17  CB        39.3650    7.6080   70.1540 C.3    60  ASP60       0.1450
     18  CG        39.8730    8.9820   69.8410 C.2    60  ASP60       0.3671
     19  OD1       40.2580    9.7280   70.7910 O.co2  60  ASP60      -0.2456
     20  OD2       39.8430    9.3600   68.6600 O.co2  60  ASP60      -0.2456
     21  N         38.1320    9.2970   73.0000 N.am   61  SER61      -0.1936
     22  CA        37.1960   10.3420   73.3920 C.3    61  SER61       0.2055
     23  C         37.5570   11.6320   72.6660 C.2    61  SER61       0.2643
     24  O         36.8600   12.6120   72.8050 O.2    61  SER61      -0.2714
     25  CB        37.2420   10.5990   74.9230 C.3    61  SER61       0.2130
     26  OG        38.4960   11.1620   75.3040 O.3    61  SER61      -0.2179
     27  N         38.6720   11.6200   71.9380 N.am   62  GLY62      -0.1954
     28  CA        39.2050   12.8410   71.2870 C.3    62  GLY62       0.1869
     29  C         39.8350   13.8600   72.2470 C.2    62  GLY62       0.2309
     30  O         40.1840   14.9870   71.8270 O.2    62  GLY62      -0.2863
     31  N         35.9810    3.1630   79.3560 N.3    69  THR69      -0.1218
     32  CA        34.6110    3.2820   79.8600 C.3    69  THR69       0.1862
     33  C         34.4980    2.7610   81.3070 C.2    69  THR69       0.2287
     34  O         33.5700    3.0760   82.0320 O.2    69  THR69      -0.2866
     35  CB        33.6280    2.4470   78.9970 C.3    69  THR69       0.1770
     36  OG1       34.0540    1.0940   79.0270 O.3    69  THR69      -0.2211
     37  CG2       33.6500    2.9520   77.5180 C.3    69  THR69       0.0375
     38  N         30.7450   11.8870   81.0720 N.3   107  ASP107     -0.1225
     39  CA        30.5250   12.2400   79.6790 C.3   107  ASP107      0.1805
     40  C         31.0590   11.1180   78.7930 C.2   107  ASP107      0.2598
     41  O         31.4860   11.3590   77.6910 O.2   107  ASP107     -0.2718
     42  CB        31.1870   13.5920   79.3460 C.3   107  ASP107      0.1424
     43  CG        32.7010   13.5710   79.5360 C.2   107  ASP107      0.3668
     44  OD1       33.2740   12.4850   79.7410 O.co2 107  ASP107     -0.2456
     45  OD2       33.3400   14.6440   79.4560 O.co2 107  ASP107     -0.2456
     46  N         31.0670    9.8950   79.3040 N.am  108  GLY108     -0.1943
     47  CA        31.4910    8.7660   78.4910 C.3   108  GLY108      0.1998
     48  C         30.3340    8.2590   77.6260 C.2   108  GLY108      0.2480
     49  O         29.1750    8.6960   77.8160 O.2   108  GLY108     -0.2729
     50  N         30.6220    7.3300   76.6910 N.am  109  PRO109     -0.2726
     51  CA        29.5390    6.8120   75.8190 C.3   109  PRO109      0.1402
     52  C         28.4200    6.1100   76.6100 C.2   109  PRO109      0.2269
     53  O         28.6920    5.1200   77.3140 O.2   109  PRO109     -0.2865
     54  CB        30.2550    5.7940   74.9170 C.3   109  PRO109      0.0296
     55  CG        31.5870    5.5140   75.5760 C.3   109  PRO109      0.0237
     56  CD        31.9370    6.7540   76.3500 C.3   109  PRO109      0.0939
     57  N         26.0050    4.0340   75.8730 N.3   111  ASP111     -0.1225
     58  CA        25.7860    2.6030   75.6710 C.3   111  ASP111      0.1805
     59  C         26.7570    1.7350   76.4850 C.2   111  ASP111      0.2597
     60  O         26.5530    0.5220   76.6090 O.2   111  ASP111     -0.2718
     61  CB        25.9070    2.2360   74.1740 C.3   111  ASP111      0.1424
     62  CG        27.2190    2.6620   73.5700 C.2   111  ASP111      0.3668
     63  OD1       27.6560    3.8170   73.7850 O.co2 111  ASP111     -0.2456
     64  OD2       27.8210    1.8480   72.8510 O.co2 111  ASP111     -0.2456
     65  N         27.8450    2.3390   76.9710 N.am  112  LYS112     -0.1979
     66  CA        28.8630    1.6160   77.7710 C.3   112  LYS112      0.1596
     67  C         28.9100    2.0810   79.2540 C.2   112  LYS112      0.2287
     68  O         29.8350    1.7560   79.9860 O.2   112  LYS112     -0.2864
     69  CB        30.2390    1.7870   77.1390 C.3   112  LYS112      0.0298
     70  CG        30.2740    1.7020   75.6290 C.3   112  LYS112      0.0038
     71  CD        30.6010    0.3540   75.1900 C.3   112  LYS112      0.0206
     72  CE        30.5220    0.2130   73.6530 C.3   112  LYS112      0.1093
     73  NZ        31.6420    0.9080   72.9480 N.3   112  LYS112     -0.1314
     74  N         33.7110    8.3320   81.4280 N.3   116  ARG116     -0.1245
     75  CA        34.9710    8.4460   80.7650 C.3   116  ARG116      0.1563
     76  C         36.0700    8.4640   81.8590 C.2   116  ARG116      0.2260
     77  O         36.1850    9.4450   82.6300 O.2   116  ARG116     -0.2867
     78  CB        35.0520    9.7620   79.9750 C.3   116  ARG116      0.0307
     79  CG        36.4140    9.9470   79.3350 C.3   116  ARG116      0.0489
     80  CD        36.5030   11.1100   78.4220 C.3   116  ARG116      0.2205
     81  NE        35.9410   12.3400   78.9900 N.pl3 116  ARG116     -0.0865
     82  CZ        36.6490   13.4070   79.3430 C.cat 116  ARG116      0.5346
     83  NH1       37.9870   13.4460   79.2220 N.pl3 116  ARG116      0.1354
     84  NH2       36.0070   14.4500   79.8330 N.pl3 116  ARG116      0.1354
@<TRIPOS>BOND
     1    20    18   ar
     2    18    17    1
     3    18    19   ar
     4    17    14    1
     5    28    27    1
     6    28    29    1
     7    16    15    2
     8    14    13    1
     9    14    15    1
    10    30    29    2
    11    13     3   am
    12    27    23   am
    13    15    21   am
    14    23    24    2
    15    23    22    1
    16    64    62   ar
    17    73    72    1
    18    21    22    1
    19     3     2    1
    20     3     4    2
    21     2     5    1
    22     2     1    1
    23    22    25    1
    24     5     6    1
    25    62    63   ar
    26    62    61    1
    27    72    71    1
    28     8     6   ar
    29     8    10   ar
    30    61    58    1
    31     6     7   ar
    32    54    55    1
    33    54    51    1
    34    25    26    1
    35    10    11   ar
    36    71    70    1
    37    55    56    1
    38    70    69    1
    39    58    57    1
    40    58    59    1
    41    51    52    1
    42    51    50    1
    43     7     9   ar
    44    56    50    1
    45    11     9   ar
    46    11    12    1
    47    59    60    2
    48    59    65   am
    49    52    53    2
    50    50    48   am
    51    65    66    1
    52    69    66    1
    53    37    35    1
    54    48    49    2
    55    48    47    1
    56    41    40    2
    57    66    67    1
    58    80    81    1
    59    80    79    1
    60    47    46    1
    61    40    46   am
    62    40    39    1
    63    81    82    2
    64    35    36    1
    65    35    32    1
    66    83    82    1
    67    67    68    2
    68    79    78    1
    69    82    84    1
    70    42    43    1
    71    42    39    1
    72    31    32    1
    73    45    43   ar
    74    43    44   ar
    75    39    38    1
    76    32    33    1
    77    78    75    1
    78    75    74    1
    79    75    76    1
    80    33    34    2
    81    76    77    2
