@<TRIPOS>MOLECULE
tmp/3hciA00.pdb
 108 104 0 0 0
SMALL
GASTEIGER

@<TRIPOS>ATOM
      1  N          5.7380   34.3450   64.8230 N.3    33  THR33      -0.1218
      2  CA         4.9810   33.1120   64.6200 C.3    33  THR33       0.1862
      3  C          3.7700   33.0440   65.5590 C.2    33  THR33       0.2287
      4  O          3.8880   33.3180   66.7490 O.2    33  THR33      -0.2866
      5  CB         5.8870   31.8760   64.8280 C.3    33  THR33       0.1770
      6  OG1        7.0420   31.9900   63.9940 O.3    33  THR33      -0.2211
      7  CG2        5.1610   30.5810   64.4820 C.3    33  THR33       0.0375
      8  N         -0.3760   24.6040   62.4550 N.3    72  TRP72      -0.1241
      9  CA        -0.4550   25.7240   61.5130 C.3    72  TRP72       0.1605
     10  C         -1.1770   25.3150   60.2370 C.2    72  TRP72       0.2264
     11  O         -1.0770   24.1580   59.8210 O.2    72  TRP72      -0.2867
     12  CB         0.9420   26.2560   61.1910 C.3    72  TRP72       0.0550
     13  CG         1.5650   26.9240   62.3580 C.ar   72  TRP72       0.0003
     14  CD1        1.2270   28.1370   62.8790 C.ar   72  TRP72       0.0946
     15  CD2        2.6270   26.4150   63.1740 C.ar   72  TRP72       0.0152
     16  NE1        2.0160   28.4220   63.9690 N.ar   72  TRP72      -0.2442
     17  CE2        2.8850   27.3830   64.1730 C.ar   72  TRP72       0.0810
     18  CE3        3.3870   25.2380   63.1580 C.ar   72  TRP72       0.0012
     19  CZ2        3.8730   27.2120   65.1510 C.ar   72  TRP72       0.0191
     20  CZ3        4.3720   25.0650   64.1370 C.ar   72  TRP72       0.0001
     21  CH2        4.6040   26.0510   65.1170 C.ar   72  TRP72       0.0015
     22  N         18.9720   27.5930   63.2440 N.3    94  MET94      -0.1245
     23  CA        18.4090   26.5730   62.3720 C.3    94  MET94       0.1570
     24  C         18.6710   26.9960   60.9380 C.2    94  MET94       0.2261
     25  O         19.0490   28.1440   60.6820 O.2    94  MET94      -0.2867
     26  CB        16.9050   26.4250   62.6050 C.3    94  MET94       0.0387
     27  CG        16.5350   25.8860   63.9730 C.3    94  MET94       0.0595
     28  SD        14.7840   25.4620   64.1680 S.3    94  MET94      -0.1393
     29  CE        14.0330   27.0710   64.3970 C.3    94  MET94       0.0692
     30  N         16.4770   27.1550   57.6370 N.3    96  ARG96      -0.1245
     31  CA        15.1230   27.0340   57.1260 C.3    96  ARG96       0.1563
     32  C         14.9360   27.9080   55.8940 C.2    96  ARG96       0.2260
     33  O         15.8100   28.7080   55.5340 O.2    96  ARG96      -0.2867
     34  CB        14.1060   27.4150   58.2110 C.3    96  ARG96       0.0307
     35  CG        14.1290   26.5160   59.4510 C.3    96  ARG96       0.0489
     36  CD        13.0510   26.8920   60.4550 C.3    96  ARG96       0.2205
     37  NE        13.2850   28.2110   61.0390 N.pl3  96  ARG96      -0.0865
     38  CZ        12.4090   28.8770   61.7860 C.cat  96  ARG96       0.5346
     39  NH1       11.2220   28.3560   62.0600 N.pl3  96  ARG96       0.1354
     40  NH2       12.7250   30.0700   62.2660 N.pl3  96  ARG96       0.1354
     41  N          6.0060   38.6090   55.8280 N.3   107  HIS107     -0.1241
     42  CA         6.3040   37.2750   56.3480 C.3   107  HIS107      0.1621
     43  C          5.0550   36.3970   56.3630 C.2   107  HIS107      0.2264
     44  O          3.9820   36.8390   56.7900 O.2   107  HIS107     -0.2867
     45  CB         6.8980   37.3510   57.7480 C.3   107  HIS107      0.0745
     46  CG         7.1120   36.0110   58.3790 C.ar  107  HIS107      0.0817
     47  ND1        8.1410   35.1710   58.0100 N.ar  107  HIS107     -0.2268
     48  CD2        6.4230   35.3590   59.3450 C.ar  107  HIS107      0.1154
     49  CE1        8.0780   34.0610   58.7220 C.ar  107  HIS107      0.1986
     50  NE2        7.0450   34.1490   59.5390 N.ar  107  HIS107     -0.2212
     51  N          5.5710   32.4670   56.6880 N.3   109  GLY109     -0.1210
     52  CA         5.9370   31.2490   57.3970 C.3   109  GLY109      0.1956
     53  C          7.1660   30.6230   56.7750 C.2   109  GLY109      0.2611
     54  O          8.0860   31.3310   56.3560 O.2   109  GLY109     -0.2717
     55  N          7.1700   29.2960   56.6940 N.am  110  HIS110     -0.1975
     56  CA         8.2920   28.5490   56.1480 C.3   110  HIS110      0.1656
     57  C          7.8060   27.4090   55.2640 C.2   110  HIS110      0.2291
     58  O          6.6640   26.9680   55.3910 O.2   110  HIS110     -0.2864
     59  CB         9.1580   27.9980   57.2790 C.3   110  HIS110      0.0771
     60  CG         9.7900   29.0570   58.1260 C.ar  110  HIS110      0.0820
     61  ND1        9.2090   29.5290   59.2830 N.ar  110  HIS110     -0.2267
     62  CD2       10.9470   29.7470   57.9760 C.ar  110  HIS110      0.1154
     63  CE1        9.9850   30.4590   59.8150 C.ar  110  HIS110      0.1986
     64  NE2       11.0430   30.6130   59.0380 N.ar  110  HIS110     -0.2212
     65  N          8.8330   23.4120   53.8240 N.3   112  PHE112     -0.1241
     66  CA         9.6290   22.2350   54.1910 C.3   112  PHE112      0.1605
     67  C          9.4960   21.1000   53.1740 C.2   112  PHE112      0.2264
     68  O          8.4540   20.9780   52.5250 O.2   112  PHE112     -0.2867
     69  CB         9.2250   21.7300   55.5810 C.3   112  PHE112      0.0534
     70  CG         9.3870   22.7450   56.6640 C.ar  112  PHE112     -0.0203
     71  CD1       10.6120   22.9040   57.3070 C.ar  112  PHE112     -0.0042
     72  CD2        8.3140   23.5470   57.0450 C.ar  112  PHE112     -0.0042
     73  CE1       10.7690   23.8470   58.3130 C.ar  112  PHE112     -0.0003
     74  CE2        8.4590   24.4920   58.0510 C.ar  112  PHE112     -0.0003
     75  CZ         9.6950   24.6440   58.6850 C.ar  112  PHE112     -0.0000
     76  N          5.7390   21.1460   52.0500 N.3   122  ARG122     -0.1245
     77  CA         4.8490   21.6850   53.0800 C.3   122  ARG122      0.1563
     78  C          5.0840   23.1710   53.3050 C.2   122  ARG122      0.2260
     79  O          6.0780   23.5620   53.9100 O.2   122  ARG122     -0.2867
     80  CB         4.9990   20.9170   54.4050 C.3   122  ARG122      0.0307
     81  CG         4.2950   21.5690   55.6050 C.3   122  ARG122      0.0489
     82  CD         4.3030   20.6740   56.8440 C.3   122  ARG122      0.2205
     83  NE         5.6550   20.4330   57.3480 N.pl3 122  ARG122     -0.0865
     84  CZ         6.2060   21.0550   58.3890 C.cat 122  ARG122      0.5346
     85  NH1        5.5260   21.9700   59.0710 N.pl3 122  ARG122      0.1354
     86  NH2        7.4450   20.7510   58.7540 N.pl3 122  ARG122      0.1354
     87  N          4.1480   26.0050   55.4890 N.3   124  SER124     -0.1202
     88  CA         3.6080   26.1760   56.8360 C.3   124  SER124      0.2020
     89  C          3.2970   27.6510   57.0670 C.2   124  SER124      0.2619
     90  O          4.1960   28.4990   57.0490 O.2   124  SER124     -0.2717
     91  CB         4.6130   25.6740   57.8700 C.3   124  SER124      0.2103
     92  OG         4.0160   25.5640   59.1430 O.3   124  SER124     -0.2182
     93  N          2.0200   27.9540   57.2720 N.am  125  LEU125     -0.1965
     94  CA         1.5570   29.3380   57.3060 C.3   125  LEU125      0.1728
     95  C          1.1040   29.7850   58.6820 C.2   125  LEU125      0.2616
     96  O          0.5730   28.9950   59.4590 O.2   125  LEU125     -0.2715
     97  CB         0.3960   29.5390   56.3240 C.3   125  LEU125      0.0311
     98  CG         0.6500   29.7230   54.8280 C.3   125  LEU125      0.0022
     99  CD1        1.4120   31.0100   54.5840 C.3   125  LEU125      0.0001
    100  CD2        1.3620   28.5200   54.2020 C.3   125  LEU125      0.0001
    101  N          1.3230   31.0620   58.9750 N.am  126  ASN126     -0.1972
    102  CA         0.6420   31.7220   60.0710 C.3   126  ASN126      0.1688
    103  C         -0.7210   32.1200   59.5630 C.2   126  ASN126      0.2292
    104  O         -0.8350   32.8170   58.5480 O.2   126  ASN126     -0.2864
    105  CB         1.3890   32.9720   60.5060 C.3   126  ASN126      0.1181
    106  CG         2.6970   32.6620   61.1660 C.2   126  ASN126      0.2629
    107  OD1        2.7400   32.1260   62.2770 O.2   126  ASN126     -0.2716
    108  ND2        3.7840   33.0090   60.4920 N.am  126  ASN126     -0.0877
@<TRIPOS>BOND
     1    76    77    1
     2    68    67    2
     3    77    78    1
     4    77    80    1
     5    67    66    1
     6    78    79    2
     7    65    66    1
     8    66    69    1
     9   100    98    1
    10    80    81    1
    11    99    98    1
    12    98    97    1
    13    57    58    2
    14    57    56    1
    15    87    88    1
    16    33    32    2
    17    69    70    1
    18    81    82    1
    19    41    42    1
    20    32    31    1
    21    56    55    1
    22    56    59    1
    23    97    94    1
    24    42    43    1
    25    42    45    1
    26    54    53    2
    27    43    44    2
    28    70    72   ar
    29    70    71   ar
    30    51    52    1
    31    55    53   am
    32    53    52    1
    33    88    89    1
    34    88    91    1
    35    82    83    1
    36    72    74   ar
    37    90    89    2
    38    89    93   am
    39    31    30    1
    40    31    34    1
    41    93    94    1
    42    59    60    1
    43    94    95    1
    44    71    73   ar
    45    83    84    2
    46    45    46    1
    47    91    92    1
    48    62    60   ar
    49    62    64   ar
    50    47    46   ar
    51    47    49   ar
    52    74    75   ar
    53    60    61   ar
    54    34    35    1
    55    73    75   ar
    56    46    48   ar
    57    84    86    1
    58    84    85    1
    59   104   103    2
    60    95   101   am
    61    95    96    2
    62    49    50   ar
    63   101   102    1
    64    64    63   ar
    65    61    63   ar
    66    48    50   ar
    67    35    36    1
    68   103   102    1
    69    11    10    2
    70   102   105    1
    71    10     9    1
    72    36    37    1
    73   108   106   am
    74   105   106    1
    75    25    24    2
    76    24    23    1
    77    37    38    2
    78   106   107    2
    79    12     9    1
    80    12    13    1
    81     9     8    1
    82    38    39    1
    83    38    40    1
    84    13    14   ar
    85    13    15   ar
    86    23    26    1
    87    23    22    1
    88    26    27    1
    89    14    16   ar
    90    18    15   ar
    91    18    20   ar
    92    15    17   ar
    93    16    17   ar
    94    27    28    1
    95     6     5    1
    96    20    21   ar
    97    28    29    1
    98    17    19   ar
    99     7     5    1
   100     2     1    1
   101     2     5    1
   102     2     3    1
   103    21    19   ar
   104     3     4    2
