@<TRIPOS>MOLECULE
tmp/3hcpB01.pdb
 87 85 0 0 0
SMALL
GASTEIGER

@<TRIPOS>ATOM
      1  N          4.7110   39.7100   77.8540 N.3    16  GLU16      -0.1231
      2  CA         4.9450   40.8340   78.7630 C.3    16  GLU16       0.1699
      3  C          5.0820   42.1950   78.0750 C.2    16  GLU16       0.2592
      4  O          4.7730   43.2110   78.6690 O.2    16  GLU16      -0.2718
      5  CB         6.1650   40.5820   79.6270 C.3    16  GLU16       0.0402
      6  CG         5.8510   39.7120   80.8270 C.3    16  GLU16       0.1161
      7  CD         7.1080   39.3940   81.6510 C.2    16  GLU16       0.3649
      8  OE1        7.3520   40.0930   82.6610 O.co2  16  GLU16      -0.2457
      9  OE2        7.8600   38.4630   81.2630 O.co2  16  GLU16      -0.2457
     10  N          5.5530   42.2060   76.8400 N.am   17  THR17      -0.1953
     11  CA         5.6900   43.4390   76.0670 C.3    17  THR17       0.1897
     12  C          5.2190   43.1080   74.6760 C.2    17  THR17       0.2313
     13  O          5.0740   41.9220   74.3370 O.2    17  THR17      -0.2863
     14  CB         7.1880   43.9370   76.0150 C.3    17  THR17       0.1794
     15  OG1        7.9350   43.0940   75.1200 O.3    17  THR17      -0.2208
     16  CG2        7.8230   43.8690   77.3910 C.3    17  THR17       0.0378
     17  N         -4.3670   47.8180   76.0760 N.3    62  ILE62      -0.1231
     18  CA        -4.4510   47.6540   77.5360 C.3    62  ILE62       0.1692
     19  C         -3.1920   48.1420   78.2850 C.2    62  ILE62       0.2593
     20  O         -3.0200   47.8260   79.4800 O.2    62  ILE62      -0.2718
     21  CB        -4.8200   46.1890   77.9780 C.3    62  ILE62       0.0266
     22  CG1       -3.6830   45.1800   77.6400 C.3    62  ILE62       0.0019
     23  CG2       -6.1770   45.7980   77.3740 C.3    62  ILE62       0.0020
     24  CD1       -3.7520   43.8620   78.4060 C.3    62  ILE62       0.0001
     25  N         -2.3270   48.9000   77.6180 N.am   63  GLY63      -0.1942
     26  CA        -1.1260   49.3890   78.3080 C.3    63  GLY63       0.2014
     27  C          0.2090   48.7720   77.8660 C.2    63  GLY63       0.2639
     28  O          1.2680   49.1810   78.3630 O.2    63  GLY63      -0.2714
     29  N          0.1670   47.8010   76.9370 N.am   64  GLY64      -0.1939
     30  CA         1.3810   47.2910   76.2840 C.3    64  GLY64       0.2014
     31  C          1.9000   45.9180   76.6850 C.2    64  GLY64       0.2639
     32  O          3.0050   45.5270   76.2870 O.2    64  GLY64      -0.2714
     33  N          1.1270   45.1670   77.4510 N.am   65  GLY65      -0.1939
     34  CA         1.5130   43.7890   77.7670 C.3    65  GLY65       0.2014
     35  C          0.6100   43.1600   78.8070 C.2    65  GLY65       0.2640
     36  O         -0.3270   43.8020   79.3020 O.2    65  GLY65      -0.2714
     37  N          0.8660   41.8890   79.0960 N.am   66  SER66      -0.1936
     38  CA         0.0280   41.0890   80.0140 C.3    66  SER66       0.2040
     39  C          0.5490   41.2370   81.4390 C.2    66  SER66       0.2485
     40  O          1.7540   41.1680   81.6300 O.2    66  SER66      -0.2729
     41  CB         0.0930   39.5950   79.6100 C.3    66  SER66       0.2129
     42  OG        -0.6590   38.8030   80.5270 O.3    66  SER66      -0.2179
     43  N         -0.3470   41.4640   82.4310 N.am   67  PRO67      -0.2726
     44  CA         0.0170   41.5320   83.8460 C.3    67  PRO67       0.1402
     45  C          0.0920   40.1470   84.5000 C.2    67  PRO67       0.2269
     46  O          0.3090   40.0520   85.7170 O.2    67  PRO67      -0.2865
     47  CB        -1.1410   42.3370   84.4750 C.3    67  PRO67       0.0296
     48  CG        -2.3590   41.9390   83.6240 C.3    67  PRO67       0.0237
     49  CD        -1.7990   41.7010   82.2170 C.3    67  PRO67       0.0939
     50  N          3.2810   39.4180   86.7860 N.3    70  ILE70      -0.1231
     51  CA         3.2010   40.2430   88.0030 C.3    70  ILE70       0.1692
     52  C          2.2600   39.6140   89.0360 C.2    70  ILE70       0.2592
     53  O          2.6200   39.4420   90.1980 O.2    70  ILE70      -0.2718
     54  CB         2.6750   41.7080   87.7040 C.3    70  ILE70       0.0266
     55  CG1        3.5200   42.4440   86.6660 C.3    70  ILE70       0.0019
     56  CG2        2.5560   42.5370   89.0130 C.3    70  ILE70       0.0020
     57  CD1        4.9670   42.6020   87.0230 C.3    70  ILE70       0.0001
     58  N          1.0270   39.3320   88.6180 N.am   71  TRP71      -0.1976
     59  CA         0.0260   38.7580   89.5100 C.3    71  TRP71       0.1640
     60  C          0.4260   37.3720   90.0260 C.2    71  TRP71       0.2290
     61  O          0.2620   37.0850   91.2120 O.2    71  TRP71      -0.2864
     62  CB        -1.3580   38.7230   88.8370 C.3    71  TRP71       0.0576
     63  CG        -1.9650   40.0920   88.7290 C.ar   71  TRP71       0.0006
     64  CD1       -2.4460   40.6860   87.6090 C.ar   71  TRP71       0.0946
     65  CD2       -2.1260   41.0380   89.7940 C.ar   71  TRP71       0.0152
     66  NE1       -2.9030   41.9590   87.9020 N.ar   71  TRP71      -0.2442
     67  CE2       -2.7180   42.1990   89.2370 C.ar   71  TRP71       0.0810
     68  CE3       -1.8330   41.0170   91.1660 C.ar   71  TRP71       0.0012
     69  CZ2       -3.0390   43.3250   90.0110 C.ar   71  TRP71       0.0191
     70  CZ3       -2.1360   42.1600   91.9360 C.ar   71  TRP71       0.0001
     71  CH2       -2.7210   43.2930   91.3470 C.ar   71  TRP71       0.0015
     72  N         -6.0890   39.1860   86.0830 N.3   276  ASP276     -0.1239
     73  CA        -6.3920   39.9220   84.8640 C.3   276  ASP276      0.1674
     74  C         -5.4760   39.4450   83.7800 C.2   276  ASP276      0.2266
     75  O         -4.3580   38.9900   84.0500 O.2   276  ASP276     -0.2867
     76  CB        -6.1830   41.4180   85.0660 C.3   276  ASP276      0.1410
     77  CG        -7.3710   42.0540   85.6970 C.2   276  ASP276      0.3668
     78  OD1       -8.5020   41.7160   85.2610 O.co2 276  ASP276     -0.2456
     79  OD2       -7.1800   42.8470   86.6330 O.co2 276  ASP276     -0.2456
     80  N         -9.0960   42.5160   80.4440 N.3   281  LEU281     -0.1245
     81  CA        -8.6810   43.9190   80.2240 C.3   281  LEU281      0.1561
     82  C         -9.0000   44.4550   78.8480 C.2   281  LEU281      0.2260
     83  O         -9.2840   45.6480   78.7050 O.2   281  LEU281     -0.2867
     84  CB        -7.1780   44.1280   80.5620 C.3   281  LEU281      0.0270
     85  CG        -6.7890   43.9010   82.0210 C.3   281  LEU281      0.0019
     86  CD1       -5.2200   43.9870   82.2170 C.3   281  LEU281      0.0001
     87  CD2       -7.5360   44.8840   82.9550 C.3   281  LEU281      0.0001
@<TRIPOS>BOND
     1    13    12    2
     2    12    11    1
     3    15    14    1
     4    14    11    1
     5    14    16    1
     6    11    10    1
     7    17    18    1
     8    30    31    1
     9    30    29    1
    10    32    31    2
    11    31    33   am
    12    10     3   am
    13    29    27   am
    14    23    21    1
    15    33    34    1
    16    18    21    1
    17    18    19    1
    18    25    19   am
    19    25    26    1
    20    22    21    1
    21    22    24    1
    22    34    35    1
    23     1     2    1
    24    27    26    1
    25    27    28    2
    26     3     4    2
    27     3     2    1
    28    19    20    2
    29    83    82    2
    30     2     5    1
    31    35    37   am
    32    35    36    2
    33    82    81    1
    34    37    38    1
    35    41    38    1
    36    41    42    1
    37     5     6    1
    38    38    39    1
    39    81    80    1
    40    81    84    1
    41    84    85    1
    42     6     7    1
    43     9     7   ar
    44    39    40    2
    45    39    43   am
    46     7     8   ar
    47    85    86    1
    48    85    87    1
    49    49    43    1
    50    49    48    1
    51    43    44    1
    52    48    47    1
    53    74    75    2
    54    74    73    1
    55    44    47    1
    56    44    45    1
    57    45    46    2
    58    73    76    1
    59    73    72    1
    60    76    77    1
    61    78    77   ar
    62    77    79   ar
    63    55    57    1
    64    55    54    1
    65    50    51    1
    66    64    66   ar
    67    64    63   ar
    68    54    51    1
    69    54    56    1
    70    66    67   ar
    71    51    52    1
    72    58    52   am
    73    58    59    1
    74    63    62    1
    75    63    65   ar
    76    62    59    1
    77    52    53    2
    78    67    65   ar
    79    67    69   ar
    80    59    60    1
    81    65    68   ar
    82    69    71   ar
    83    60    61    2
    84    68    70   ar
    85    71    70   ar
