@<TRIPOS>MOLECULE
tmp/3hcxA00.pdb
 96 93 0 0 0
SMALL
GASTEIGER

@<TRIPOS>ATOM
      1  N        -16.0100   19.3070   25.4100 N.3    70  LEU70      -0.1245
      2  CA       -16.4580   19.9810   26.6360 C.3    70  LEU70       0.1561
      3  C        -17.8340   19.4530   27.0380 C.2    70  LEU70       0.2260
      4  O        -18.0700   19.0810   28.1930 O.2    70  LEU70      -0.2867
      5  CB       -16.5280   21.5000   26.4350 C.3    70  LEU70       0.0270
      6  CG       -17.0540   22.3010   27.6330 C.3    70  LEU70       0.0019
      7  CD1      -16.3180   21.8970   28.8970 C.3    70  LEU70       0.0001
      8  CD2      -16.9320   23.8010   27.3980 C.3    70  LEU70       0.0001
      9  N        -17.3600   16.1380   28.7590 N.3    73  THR73      -0.1203
     10  CA       -16.7450   16.2290   30.0830 C.3    73  THR73       0.1994
     11  C        -17.7440   16.8010   31.0990 C.2    73  THR73       0.2617
     12  O        -17.8010   16.3480   32.2430 O.2    73  THR73      -0.2717
     13  CB       -15.3960   17.0130   30.0840 C.3    73  THR73       0.1784
     14  OG1      -15.6000   18.3700   29.6760 O.3    73  THR73      -0.2211
     15  CG2      -14.3920   16.3240   29.1600 C.3    73  THR73       0.0376
     16  N        -18.5440   17.7820   30.6810 N.am   74  GLN74      -0.1979
     17  CA       -19.5600   18.3430   31.5780 C.3    74  GLN74       0.1601
     18  C        -20.6340   17.3280   31.9240 C.2    74  GLN74       0.2287
     19  O        -21.0840   17.2400   33.0740 O.2    74  GLN74      -0.2864
     20  CB       -20.2340   19.5670   30.9510 C.3    74  GLN74       0.0394
     21  CG       -19.3780   20.8140   30.9300 C.3    74  GLN74       0.0908
     22  CD       -20.1640   22.0110   30.4360 C.2    74  GLN74       0.2608
     23  OE1      -21.1620   21.8640   29.7300 O.2    74  GLN74      -0.2717
     24  NE2      -19.7270   23.1960   30.8070 N.am   74  GLN74      -0.0878
     25  N        -13.1990   17.3120   35.8250 N.3    96  LEU96      -0.1231
     26  CA       -12.5580   17.0830   34.5430 C.3    96  LEU96       0.1693
     27  C        -12.2000   18.4390   33.9610 C.2    96  LEU96       0.2592
     28  O        -12.9990   19.3800   34.0050 O.2    96  LEU96      -0.2718
     29  CB       -13.4820   16.3080   33.5980 C.3    96  LEU96       0.0284
     30  CG       -13.8470   14.8880   34.0170 C.3    96  LEU96       0.0019
     31  CD1      -14.8570   14.2670   33.0560 C.3    96  LEU96       0.0001
     32  CD2      -12.5940   14.0180   34.1010 C.3    96  LEU96       0.0001
     33  N        -10.9800   18.5670   33.4680 N.am   97  ASP97      -0.1960
     34  CA       -10.5950   19.7820   32.7630 C.3    97  ASP97       0.1840
     35  C         -9.8820   19.4190   31.4890 C.2    97  ASP97       0.2621
     36  O         -8.9960   18.5830   31.5010 O.2    97  ASP97      -0.2715
     37  CB        -9.6500   20.6410   33.5960 C.3    97  ASP97       0.1450
     38  CG       -10.3690   21.3920   34.6870 C.2    97  ASP97       0.3671
     39  OD1      -10.9200   22.4680   34.3900 O.co2  97  ASP97      -0.2456
     40  OD2      -10.3840   20.8940   35.8280 O.co2  97  ASP97      -0.2456
     41  N        -10.2520   20.0650   30.3950 N.am   98  ILE98      -0.1977
     42  CA        -9.4760   19.9200   29.1790 C.3    98  ILE98       0.1596
     43  C         -8.2450   20.8190   29.3250 C.2    98  ILE98       0.2287
     44  O         -8.3510   22.0280   29.2850 O.2    98  ILE98      -0.2864
     45  CB       -10.2860   20.3320   27.9470 C.3    98  ILE98       0.0276
     46  CG1      -11.5740   19.5090   27.8690 C.3    98  ILE98       0.0022
     47  CG2       -9.4470   20.1950   26.6860 C.3    98  ILE98       0.0022
     48  CD1      -12.5790   20.0500   26.8880 C.3    98  ILE98       0.0001
     49  N        -17.3000   29.6850   26.9990 N.3   110  ARG110     -0.1231
     50  CA       -17.3820   28.4180   27.7210 C.3   110  ARG110      0.1694
     51  C        -16.0220   27.7510   27.9330 C.2   110  ARG110      0.2592
     52  O        -15.8450   26.9830   28.8780 O.2   110  ARG110     -0.2718
     53  CB       -18.2520   27.4190   26.9650 C.3   110  ARG110      0.0321
     54  CG       -19.7110   27.7730   26.8410 C.3   110  ARG110      0.0489
     55  CD       -20.3950   26.6890   26.0450 C.3   110  ARG110      0.2205
     56  NE       -20.5430   25.4680   26.8260 N.pl3 110  ARG110     -0.0865
     57  CZ       -20.5390   24.2400   26.3190 C.cat 110  ARG110      0.5346
     58  NH1      -20.3730   24.0490   25.0160 N.pl3 110  ARG110      0.1354
     59  NH2      -20.6890   23.1960   27.1210 N.pl3 110  ARG110      0.1354
     60  N        -15.0780   28.0040   27.0380 N.am  111  LEU111     -0.1966
     61  CA       -13.8780   27.1650   26.9990 C.3   111  LEU111      0.1728
     62  C        -12.5970   27.9690   26.8630 C.2   111  LEU111      0.2616
     63  O        -12.4560   28.7740   25.9560 O.2   111  LEU111     -0.2715
     64  CB       -14.0000   26.1410   25.8560 C.3   111  LEU111      0.0311
     65  CG       -12.9930   25.0070   25.7140 C.3   111  LEU111      0.0022
     66  CD1      -12.9160   24.2060   26.9990 C.3   111  LEU111      0.0001
     67  CD2      -13.4050   24.1040   24.5650 C.3   111  LEU111      0.0001
     68  N        -11.6590   27.7410   27.7740 N.am  112  THR112     -0.1951
     69  CA       -10.3370   28.3370   27.6660 C.3   112  THR112      0.1897
     70  C         -9.2550   27.2530   27.6840 C.2   112  THR112      0.2313
     71  O         -9.1660   26.4780   28.6390 O.2   112  THR112     -0.2863
     72  CB       -10.0800   29.3820   28.7640 C.3   112  THR112      0.1794
     73  OG1      -10.9440   30.5040   28.5450 O.3   112  THR112     -0.2208
     74  CG2       -8.6370   29.8590   28.7110 C.3   112  THR112      0.0378
     75  N         -5.6680   25.2410   29.6080 N.3   115  HIS115     -0.1226
     76  CA        -6.2590   25.5970   30.8910 C.3   115  HIS115      0.1752
     77  C         -5.5110   26.8050   31.4520 C.2   115  HIS115      0.2596
     78  O         -4.2820   26.8560   31.4200 O.2   115  HIS115     -0.2718
     79  CB        -6.1610   24.4200   31.8510 C.3   115  HIS115      0.0759
     80  CG        -6.7430   24.6930   33.1950 C.ar  115  HIS115      0.0818
     81  ND1       -6.0710   25.4070   34.1620 N.ar  115  HIS115     -0.2268
     82  CD2       -7.9330   24.3380   33.7350 C.ar  115  HIS115      0.1154
     83  CE1       -6.8290   25.4860   35.2430 C.ar  115  HIS115      0.1986
     84  NE2       -7.9550   24.8310   35.0160 N.ar  115  HIS115     -0.2212
     85  N         -6.2560   27.7860   31.9690 N.am  116  TYR116     -0.1976
     86  CA        -5.6970   29.1060   32.2370 C.3   116  TYR116      0.1639
     87  C         -4.6250   29.1420   33.3210 C.2   116  TYR116      0.2290
     88  O         -3.8290   30.0740   33.3680 O.2   116  TYR116     -0.2864
     89  CB        -6.8240   30.0930   32.5930 C.3   116  TYR116      0.0560
     90  CG        -7.3090   29.9330   34.0140 C.ar  116  TYR116     -0.0198
     91  CD1       -8.1450   28.8840   34.3700 C.ar  116  TYR116     -0.0009
     92  CD2       -6.9150   30.8240   35.0040 C.ar  116  TYR116     -0.0009
     93  CE1       -8.5770   28.7220   35.6740 C.ar  116  TYR116      0.0417
     94  CE2       -7.3510   30.6800   36.3090 C.ar  116  TYR116      0.0417
     95  CZ        -8.1780   29.6250   36.6340 C.ar  116  TYR116      0.1957
     96  OH        -8.6140   29.4740   37.9230 O.3   116  TYR116     -0.2866
@<TRIPOS>BOND
     1    67    65    1
     2    58    57    1
     3     1     2    1
     4    65    64    1
     5    65    66    1
     6    64    61    1
     7    63    62    2
     8    55    56    1
     9    55    54    1
    10    57    56    2
    11    57    59    1
    12     5     2    1
    13     5     6    1
    14     2     3    1
    15    47    45    1
    16    54    53    1
    17    62    61    1
    18    62    68   am
    19    48    46    1
    20    53    50    1
    21    61    60    1
    22    49    50    1
    23    60    51   am
    24     3     4    2
    25     8     6    1
    26     6     7    1
    27    69    70    1
    28    69    68    1
    29    69    72    1
    30    70    71    2
    31    50    51    1
    32    46    45    1
    33    51    52    2
    34    45    42    1
    35    73    72    1
    36    74    72    1
    37     9    10    1
    38    15    13    1
    39    42    43    1
    40    42    41    1
    41    44    43    2
    42    75    76    1
    43    14    13    1
    44    23    22    2
    45    10    13    1
    46    10    11    1
    47    41    35   am
    48    22    24   am
    49    22    21    1
    50    16    11   am
    51    16    17    1
    52    76    77    1
    53    76    79    1
    54    21    20    1
    55    20    17    1
    56    11    12    2
    57    78    77    2
    58    77    85   am
    59    35    36    2
    60    35    34    1
    61    17    18    1
    62    79    80    1
    63    18    19    2
    64    85    86    1
    65    86    89    1
    66    86    87    1
    67    89    90    1
    68    34    33    1
    69    34    37    1
    70    31    30    1
    71    80    82   ar
    72    80    81   ar
    73    87    88    2
    74    33    27   am
    75    37    38    1
    76    29    30    1
    77    29    26    1
    78    82    84   ar
    79    27    28    2
    80    27    26    1
    81    90    91   ar
    82    90    92   ar
    83    30    32    1
    84    81    83   ar
    85    91    93   ar
    86    39    38   ar
    87    26    25    1
    88    38    40   ar
    89    92    94   ar
    90    84    83   ar
    91    93    95   ar
    92    94    95   ar
    93    95    96    1
