@<TRIPOS>MOLECULE
tmp/3hd2A01.pdb
 83 80 0 0 0
SMALL
GASTEIGER

@<TRIPOS>ATOM
      1  N         14.0730   -1.6450    7.8410 N.3     8  GLY8       -0.1225
      2  CA        12.6600   -1.3810    7.6930 C.3     8  GLY8        0.1811
      3  C         12.1650   -1.8290    6.3330 C.2     8  GLY8        0.2280
      4  O         12.8410   -1.6310    5.3210 O.2     8  GLY8       -0.2866
      5  N          5.1150   -1.9390   13.0440 N.3    42  THR42      -0.1204
      6  CA         4.9720   -0.5600   13.4750 C.3    42  THR42       0.1979
      7  C          4.2000    0.2570   12.4580 C.2    42  THR42       0.2460
      8  O          4.5110    0.2340   11.2700 O.2    42  THR42      -0.2732
      9  CB         6.3430    0.0920   13.7280 C.3    42  THR42       0.1783
     10  OG1        7.1130    0.0560   12.5240 O.3    42  THR42      -0.2211
     11  CG2        7.0950   -0.6550   14.8220 C.3    42  THR42       0.0376
     12  N          3.1750    0.9800   12.9230 N.am   43  PRO43      -0.2718
     13  CA         2.3760    1.8360   12.0450 C.3    43  PRO43       0.1520
     14  C          3.2400    2.8880   11.3660 C.2    43  PRO43       0.2440
     15  O          4.2630    3.2980   11.9180 O.2    43  PRO43      -0.2731
     16  CB         1.3980    2.5110   13.0130 C.3    43  PRO43       0.0310
     17  CG         1.3110    1.5810   14.1730 C.3    43  PRO43       0.0237
     18  CD         2.6810    0.9930   14.3110 C.3    43  PRO43       0.0939
     19  N          2.8390    3.3140   10.1620 N.am   44  PRO44      -0.2716
     20  CA         3.5040    4.4190    9.4700 C.3    44  PRO44       0.1536
     21  C          3.1400    5.7240   10.1600 C.2    44  PRO44       0.2598
     22  O          2.0560    5.8210   10.7350 O.2    44  PRO44      -0.2715
     23  CB         2.8860    4.3810    8.0660 C.3    44  PRO44       0.0310
     24  CG         2.1750    3.0600    7.9680 C.3    44  PRO44       0.0237
     25  CD         1.7520    2.7350    9.3600 C.3    44  PRO44       0.0939
     26  N          4.0290    6.7080   10.1140 N.am   45  LEU45      -0.1978
     27  CA         3.7560    7.9940   10.7430 C.3    45  LEU45       0.1596
     28  C          2.9620    8.9170    9.8190 C.2    45  LEU45       0.2287
     29  O          3.4420    9.9750    9.4130 O.2    45  LEU45      -0.2864
     30  CB         5.0560    8.6540   11.2140 C.3    45  LEU45       0.0297
     31  CG         6.3020    8.4290   10.3570 C.3    45  LEU45       0.0022
     32  CD1        6.4120    9.4910    9.2740 C.3    45  LEU45       0.0001
     33  CD2        7.5490    8.4260   11.2290 C.3    45  LEU45       0.0001
     34  N          5.0060   -1.0620    8.7550 N.3    53  TYR53      -0.1241
     35  CA         6.4180   -1.3910    8.5730 C.3    53  TYR53       0.1605
     36  C          6.7980   -2.5910    9.4250 C.2    53  TYR53       0.2264
     37  O          6.3130   -2.7470   10.5460 O.2    53  TYR53      -0.2867
     38  CB         7.3310   -0.2380    8.9930 C.3    53  TYR53       0.0534
     39  CG         7.4170    0.9110    8.0180 C.ar   53  TYR53      -0.0201
     40  CD1        6.3830    1.8270    7.9160 C.ar   53  TYR53      -0.0009
     41  CD2        8.5400    1.0960    7.2120 C.ar   53  TYR53      -0.0009
     42  CE1        6.4500    2.8900    7.0380 C.ar   53  TYR53       0.0417
     43  CE2        8.6170    2.1670    6.3280 C.ar   53  TYR53       0.0417
     44  CZ         7.5650    3.0570    6.2510 C.ar   53  TYR53       0.1957
     45  OH         7.6210    4.1240    5.3820 O.3    53  TYR53      -0.2866
     46  N         10.0650   -3.6500   11.3160 N.3    55  ASN55      -0.1240
     47  CA        11.3360   -3.0770   11.7620 C.3    55  ASN55       0.1653
     48  C         12.1350   -4.0470   12.6260 C.2    55  ASN55       0.2266
     49  O         11.5790   -4.7310   13.4850 O.2    55  ASN55      -0.2867
     50  CB        11.1080   -1.7870   12.5590 C.3    55  ASN55       0.1155
     51  CG        10.7050   -0.6240   11.6890 C.2    55  ASN55       0.2627
     52  OD1        9.6150   -0.0790   11.8310 O.2    55  ASN55      -0.2716
     53  ND2       11.5700   -0.2550   10.7600 N.am   55  ASN55      -0.0877
     54  N         14.7330   -0.2940    3.6700 N.3    95  ASP95      -0.1239
     55  CA        15.5940    0.7500    4.1930 C.3    95  ASP95       0.1674
     56  C         16.5960    0.1420    5.1800 C.2    95  ASP95       0.2266
     57  O         16.2040   -0.4690    6.1750 O.2    95  ASP95      -0.2867
     58  CB        14.7320    1.8050    4.8840 C.3    95  ASP95       0.1410
     59  CG        15.5130    3.0230    5.2810 C.2    95  ASP95       0.3668
     60  OD1       16.2780    3.5280    4.4420 O.co2  95  ASP95      -0.2456
     61  OD2       15.3360    3.4910    6.4210 O.co2  95  ASP95      -0.2456
     62  N         12.4930    7.7370   17.7130 N.3   121  ARG121     -0.1245
     63  CA        11.7940    6.6490   17.0390 C.3   121  ARG121      0.1563
     64  C         11.7920    5.3660   17.8490 C.2   121  ARG121      0.2260
     65  O         12.7980    4.6470   17.8920 O.2   121  ARG121     -0.2867
     66  CB        12.4540    6.3870   15.6920 C.3   121  ARG121      0.0307
     67  CG        12.3080    7.5340   14.7120 C.3   121  ARG121      0.0489
     68  CD        13.2270    7.3380   13.5230 C.3   121  ARG121      0.2205
     69  NE        13.0780    8.4000   12.5330 N.pl3 121  ARG121     -0.0865
     70  CZ        13.4870    8.3180   11.2700 C.cat 121  ARG121      0.5346
     71  NH1       14.0600    7.2070   10.8220 N.pl3 121  ARG121      0.1354
     72  NH2       13.3110    9.3490   10.4480 N.pl3 121  ARG121      0.1354
     73  N         10.4790    2.7380   17.0280 N.3   123  PHE123     -0.1241
     74  CA        10.6650    1.6310   16.0910 C.3   123  PHE123      0.1605
     75  C         12.1340    1.3610   15.7790 C.2   123  PHE123      0.2264
     76  O         12.4670    0.3060   15.2370 O.2   123  PHE123     -0.2867
     77  CB         9.8290    1.8130   14.8060 C.3   123  PHE123      0.0534
     78  CG        10.2190    3.0050   13.9560 C.ar  123  PHE123     -0.0203
     79  CD1       11.3160    2.9580   13.1050 C.ar  123  PHE123     -0.0042
     80  CD2        9.4480    4.1560   13.9710 C.ar  123  PHE123     -0.0042
     81  CE1       11.6470    4.0500   12.3090 C.ar  123  PHE123     -0.0003
     82  CE2        9.7720    5.2400   13.1790 C.ar  123  PHE123     -0.0003
     83  CZ        10.8720    5.1860   12.3520 C.ar  123  PHE123     -0.0000
@<TRIPOS>BOND
     1    54    55    1
     2    55    58    1
     3    55    56    1
     4    60    59   ar
     5    58    59    1
     6    56    57    2
     7    59    61   ar
     8     4     3    2
     9    45    44    1
    10    44    43   ar
    11    44    42   ar
    12    43    41   ar
    13     3     2    1
    14    42    40   ar
    15    41    39   ar
    16     2     1    1
    17    40    39   ar
    18    24    23    1
    19    24    25    1
    20    39    38    1
    21    23    20    1
    22    35    34    1
    23    35    38    1
    24    35    36    1
    25    32    31    1
    26    25    19    1
    27    29    28    2
    28    36    37    2
    29    20    21    1
    30    20    19    1
    31    28    27    1
    32    26    21   am
    33    26    27    1
    34    21    22    2
    35    19    14   am
    36    31    30    1
    37    31    33    1
    38    72    70    1
    39    27    30    1
    40    53    51   am
    41    71    70    1
    42    70    69    2
    43     8     7    2
    44    46    47    1
    45    14    15    2
    46    14    13    1
    47    51    52    2
    48    51    50    1
    49    47    50    1
    50    47    48    1
    51    13    12    1
    52    13    16    1
    53    81    83   ar
    54    81    79   ar
    55    83    82   ar
    56     7    12   am
    57     7     6    1
    58    10     9    1
    59    69    68    1
    60    48    49    2
    61    12    18    1
    62    16    17    1
    63     5     6    1
    64    79    78   ar
    65    82    80   ar
    66     6     9    1
    67    68    67    1
    68     9    11    1
    69    78    80   ar
    70    78    77    1
    71    17    18    1
    72    67    66    1
    73    77    74    1
    74    76    75    2
    75    66    63    1
    76    75    74    1
    77    74    73    1
    78    63    62    1
    79    63    64    1
    80    64    65    2
