@<TRIPOS>MOLECULE
tmp/3hd3B00.pdb
 157 153 0 0 0
SMALL
GASTEIGER

@<TRIPOS>ATOM
      1  N          7.4900  -22.8840   32.3490 N.3    19  GLN19      -0.1245
      2  CA         7.0290  -22.9080   30.9560 C.3    19  GLN19       0.1566
      3  C          7.3900  -24.2410   30.2560 C.2    19  GLN19       0.2260
      4  O          6.8970  -24.5610   29.1680 O.2    19  GLN19      -0.2867
      5  CB         7.6250  -21.6940   30.2140 C.3    19  GLN19       0.0367
      6  CG         9.0890  -21.7490   30.0560 C.3    19  GLN19       0.0905
      7  CD         9.6380  -20.4800   29.3940 C.2    19  GLN19       0.2608
      8  OE1        9.8260  -19.4420   30.0390 O.2    19  GLN19      -0.2717
      9  NE2        9.9630  -20.6000   28.0900 N.am   19  GLN19      -0.0878
     10  N          9.0160  -25.2290   25.9060 N.3    22  CYS22      -0.1221
     11  CA         8.1720  -24.4120   25.0450 C.3    22  CYS22       0.1808
     12  C          8.6440  -22.9740   25.1490 C.2    22  CYS22       0.2601
     13  O          8.9010  -22.4710   26.2550 O.2    22  CYS22      -0.2717
     14  CB         6.7330  -24.5170   25.5290 C.3    22  CYS22       0.0970
     15  SG         5.5010  -23.5270   24.7610 S.3    22  CYS22      -0.0800
     16  N          8.7820  -22.3100   24.0080 N.am   23  GLY23      -0.1957
     17  CA         9.1410  -20.8680   23.9820 C.3    23  GLY23       0.1869
     18  C          7.9720  -19.9210   24.2670 C.2    23  GLY23       0.2309
     19  O          7.7540  -18.9240   23.5410 O.2    23  GLY23      -0.2863
     20  N          7.5450  -18.0620   26.9570 N.3    25  CYS25      -0.1221
     21  CA         7.9320  -17.0420   27.9260 C.3    25  CYS25       0.1808
     22  C          7.0690  -15.7970   27.8540 C.2    25  CYS25       0.2601
     23  O          6.6710  -15.2580   28.8920 O.2    25  CYS25      -0.2717
     24  CB         9.3840  -16.6540   27.7260 C.3    25  CYS25       0.0970
     25  SG         9.7480  -16.0210   26.0430 S.3    25  CYS25      -0.0800
     26  N          6.7790  -15.3610   26.6420 N.am   26  TRP26      -0.1976
     27  CA         5.9560  -14.1350   26.3810 C.3    26  TRP26       0.1640
     28  C          4.5850  -14.2260   27.0430 C.2    26  TRP26       0.2290
     29  O          4.0240  -13.2240   27.5180 O.2    26  TRP26      -0.2864
     30  CB         5.7640  -13.9120   24.8590 C.3    26  TRP26       0.0576
     31  CG         5.1490  -15.0710   24.1430 C.ar   26  TRP26       0.0006
     32  CD1        5.7970  -16.2330   23.7290 C.ar   26  TRP26       0.0946
     33  CD2        3.7550  -15.2870   23.8540 C.ar   26  TRP26       0.0152
     34  NE1        4.8810  -17.0820   23.1050 N.ar   26  TRP26      -0.2442
     35  CE2        3.6380  -16.5420   23.2200 C.ar   26  TRP26       0.0810
     36  CE3        2.6040  -14.5230   24.0120 C.ar   26  TRP26       0.0012
     37  CZ2        2.4130  -17.0240   22.7370 C.ar   26  TRP26       0.0191
     38  CZ3        1.4200  -15.0160   23.5830 C.ar   26  TRP26       0.0001
     39  CH2        1.3250  -16.2550   22.9540 C.ar   26  TRP26       0.0015
     40  N          0.3790  -14.2050   17.8040 N.3    60  ASP60      -0.1225
     41  CA         1.6290  -14.7850   18.3240 C.3    60  ASP60       0.1805
     42  C          1.7990  -16.2450   17.8900 C.2    60  ASP60       0.2598
     43  O          0.9210  -16.8020   17.2120 O.2    60  ASP60      -0.2718
     44  CB         1.6720  -14.5440   19.8360 C.3    60  ASP60       0.1424
     45  CG         1.7630  -13.0820   20.1490 C.2    60  ASP60       0.3668
     46  OD1        2.7690  -12.4460   19.6630 O.co2  60  ASP60      -0.2456
     47  OD2        0.8590  -12.5810   20.8740 O.co2  60  ASP60      -0.2456
     48  N          2.9690  -16.8150   18.2080 N.am   61  SER61      -0.1952
     49  CA         3.3880  -18.0890   17.6730 C.3    61  SER61       0.1924
     50  C          3.6290  -19.2210   18.6770 C.2    61  SER61       0.2314
     51  O          4.4840  -20.0880   18.4540 O.2    61  SER61      -0.2863
     52  CB         4.6020  -17.8790   16.7700 C.3    61  SER61       0.2116
     53  OG         4.2440  -17.0930   15.6360 O.3    61  SER61      -0.2180
     54  N          4.6260  -21.8800   21.1230 N.3    63  CYS63      -0.1221
     55  CA         5.9690  -22.2890   21.6530 C.3    63  CYS63       0.1808
     56  C          7.1240  -21.7440   20.8060 C.2    63  CYS63       0.2602
     57  O          8.2980  -21.9320   21.1790 O.2    63  CYS63      -0.2717
     58  CB         6.0980  -23.8060   21.8010 C.3    63  CYS63       0.0970
     59  SG         4.9970  -24.5010   23.0600 S.3    63  CYS63      -0.0800
     60  N          6.8060  -21.1090   19.6590 N.am   64  SER64      -0.1938
     61  CA         7.8250  -20.4780   18.8190 C.3    64  SER64       0.2055
     62  C          8.0360  -18.9920   19.0640 C.2    64  SER64       0.2644
     63  O          8.8370  -18.3820   18.3350 O.2    64  SER64      -0.2714
     64  CB         7.5320  -20.7610   17.3290 C.3    64  SER64       0.2130
     65  OG         7.6160  -22.1690   17.1010 O.3    64  SER64      -0.2179
     66  N          7.3640  -18.4220   20.0710 N.am   65  GLY65      -0.1939
     67  CA         7.6070  -17.0490   20.4540 C.3    65  GLY65       0.2014
     68  C          6.4040  -16.1380   20.2430 C.2    65  GLY65       0.2639
     69  O          5.3860  -16.4880   19.5820 O.2    65  GLY65      -0.2714
     70  N          6.5240  -14.9870   20.8460 N.am   66  GLY66      -0.1939
     71  CA         5.4410  -13.9840   20.7830 C.3    66  GLY66       0.2014
     72  C          5.8210  -12.7100   21.4870 C.2    66  GLY66       0.2639
     73  O          6.9010  -12.6100   22.0600 O.2    66  GLY66      -0.2714
     74  N          4.9220  -11.7440   21.4700 N.am   67  LEU67      -0.1963
     75  CA         5.1530  -10.4460   22.0690 C.3    67  LEU67       0.1728
     76  C          4.0550  -10.1770   23.1090 C.2    67  LEU67       0.2616
     77  O          2.8550  -10.3680   22.8900 O.2    67  LEU67      -0.2715
     78  CB         5.1860   -9.3090   21.0660 C.3    67  LEU67       0.0311
     79  CG         6.1630   -9.4130   19.8560 C.3    67  LEU67       0.0022
     80  CD1        5.9810   -8.1600   19.0160 C.3    67  LEU67       0.0001
     81  CD2        7.6570   -9.5750   20.2220 C.3    67  LEU67       0.0001
     82  N          4.4880   -9.7220   24.2620 N.am   68  MET68      -0.1977
     83  CA         3.5420   -9.4180   25.3450 C.3    68  MET68       0.1605
     84  C          2.5260   -8.3700   24.9310 C.2    68  MET68       0.2287
     85  O          1.3620   -8.5290   25.2260 O.2    68  MET68      -0.2864
     86  CB         4.2890   -8.9090   26.5820 C.3    68  MET68       0.0413
     87  CG         5.0740   -9.9990   27.2750 C.3    68  MET68       0.0598
     88  SD         6.7010  -10.3900   26.5650 S.3    68  MET68      -0.1393
     89  CE         7.7160   -9.0030   27.2020 C.3    68  MET68       0.0692
     90  N         10.6810   -7.2800   27.9460 N.3   138  ALA138     -0.1245
     91  CA        11.5380   -8.1260   27.1160 C.3   138  ALA138      0.1562
     92  C         12.9590   -7.9450   27.5510 C.2   138  ALA138      0.2260
     93  O         13.3940   -6.7980   27.8970 O.2   138  ALA138     -0.2867
     94  CB        11.3540   -7.7940   25.6210 C.3   138  ALA138      0.0290
     95  N         18.1780  -12.7500   27.4510 N.3   141  ALA141     -0.1231
     96  CA        18.4310  -13.7030   28.5340 C.3   141  ALA141      0.1694
     97  C         19.4840  -14.7370   28.1400 C.2   141  ALA141      0.2592
     98  O         19.5990  -15.7840   28.7870 O.2   141  ALA141     -0.2718
     99  CB        17.1100  -14.4190   28.9380 C.3   141  ALA141      0.0304
    100  N         20.2020  -14.4620   27.0620 N.am  142  SER142     -0.1952
    101  CA        21.1610  -15.4470   26.5460 C.3   142  SER142      0.1924
    102  C         22.2300  -15.7940   27.6040 C.2   142  SER142      0.2314
    103  O         22.6860  -16.9480   27.6380 O.2   142  SER142     -0.2863
    104  CB        21.8020  -14.9480   25.2460 C.3   142  SER142      0.2116
    105  OG        22.5050  -13.7520   25.4550 O.3   142  SER142     -0.2180
    106  N         22.0530  -18.4520   31.6430 N.3   145  MET145     -0.1245
    107  CA        22.1090  -19.8860   31.7610 C.3   145  MET145      0.1570
    108  C         22.8110  -20.3390   33.0420 C.2   145  MET145      0.2261
    109  O         22.4340  -21.3510   33.5800 O.2   145  MET145     -0.2867
    110  CB        22.7300  -20.5200   30.4860 C.3   145  MET145      0.0387
    111  CG        21.9240  -20.2170   29.1930 C.3   145  MET145      0.0595
    112  SD        20.1820  -20.7250   29.2470 S.3   145  MET145     -0.1393
    113  CE        19.3170  -19.3670   28.4710 C.3   145  MET145      0.0692
    114  N         16.7470   -8.9780   22.1610 N.3   160  LEU160     -0.1231
    115  CA        15.6390   -9.3730   23.0310 C.3   160  LEU160      0.1693
    116  C         15.2340  -10.7840   22.6350 C.2   160  LEU160      0.2592
    117  O         15.0350  -11.0530   21.4520 O.2   160  LEU160     -0.2718
    118  CB        14.4660   -8.4370   22.8940 C.3   160  LEU160      0.0284
    119  CG        14.8030   -7.0140   23.3000 C.3   160  LEU160      0.0019
    120  CD1       13.6880   -6.0610   22.8650 C.3   160  LEU160      0.0001
    121  CD2       15.0710   -6.8900   24.8170 C.3   160  LEU160      0.0001
    122  N         15.2180  -11.6960   23.6100 N.am  161  ASP161     -0.1960
    123  CA        14.8860  -13.0960   23.2990 C.3   161  ASP161      0.1840
    124  C         14.0470  -13.7630   24.3680 C.2   161  ASP161      0.2622
    125  O         13.7530  -14.9380   24.2520 O.2   161  ASP161     -0.2715
    126  CB        16.1520  -13.8880   23.0160 C.3   161  ASP161      0.1450
    127  CG        17.0290  -14.0570   24.2290 C.2   161  ASP161      0.3671
    128  OD1       18.1430  -14.6430   24.0760 O.co2 161  ASP161     -0.2456
    129  OD2       16.6270  -13.6760   25.3450 O.co2 161  ASP161     -0.2456
    130  N         13.6460  -12.9980   25.3680 N.am  162  HIS162     -0.1959
    131  CA        12.9160  -13.5400   26.5090 C.3   162  HIS162      0.1787
    132  C         11.9730  -12.5130   27.0970 C.2   162  HIS162      0.2620
    133  O         12.1730  -11.3040   26.9690 O.2   162  HIS162     -0.2715
    134  CB        13.9460  -14.0120   27.5190 C.3   162  HIS162      0.0785
    135  CG        13.4000  -14.7890   28.6580 C.ar  162  HIS162      0.0821
    136  ND1       12.2880  -15.6100   28.5540 N.ar  162  HIS162     -0.2267
    137  CD2       13.8050  -14.8490   29.9440 C.ar  162  HIS162      0.1154
    138  CE1       12.0600  -16.1450   29.7500 C.ar  162  HIS162      0.1986
    139  NE2       12.9610  -15.6920   30.6080 N.ar  162  HIS162     -0.2212
    140  N         10.9140  -13.0000   27.7030 N.am  163  GLY163     -0.1954
    141  CA         9.9130  -12.1440   28.3380 C.3   163  GLY163      0.1869
    142  C          9.7690  -12.5210   29.7940 C.2   163  GLY163      0.2309
    143  O          9.6050  -13.7180   30.1570 O.2   163  GLY163     -0.2863
    144  N         11.0290  -20.3220   34.9240 N.3   184  TRP184     -0.1241
    145  CA        11.9160  -21.4810   34.7910 C.3   184  TRP184      0.1605
    146  C         12.0380  -22.2890   36.0830 C.2   184  TRP184      0.2264
    147  O         13.0900  -22.9160   36.3260 O.2   184  TRP184     -0.2867
    148  CB        13.3130  -21.0790   34.3090 C.3   184  TRP184      0.0550
    149  CG        13.3770  -20.3590   32.9820 C.ar  184  TRP184      0.0003
    150  CD1       12.3820  -20.2060   32.0460 C.ar  184  TRP184      0.0946
    151  CD2       14.5410  -19.7120   32.4350 C.ar  184  TRP184      0.0152
    152  NE1       12.8520  -19.4620   30.9680 N.ar  184  TRP184     -0.2442
    153  CE2       14.1690  -19.1370   31.2030 C.ar  184  TRP184      0.0810
    154  CE3       15.8280  -19.5150   32.8980 C.ar  184  TRP184      0.0012
    155  CZ2       15.0720  -18.3970   30.4170 C.ar  184  TRP184      0.0191
    156  CZ3       16.7170  -18.7720   32.1340 C.ar  184  TRP184      0.0001
    157  CH2       16.3350  -18.2290   30.8990 C.ar  184  TRP184      0.0015
@<TRIPOS>BOND
     1    53    52    1
     2    52    49    1
     3    65    64    1
     4    43    42    2
     5    64    61    1
     6    49    48    1
     7    49    50    1
     8    40    41    1
     9    42    48   am
    10    42    41    1
    11    41    44    1
    12    63    62    2
    13    51    50    2
    14    61    62    1
    15    61    60    1
    16    80    79    1
    17    62    66   am
    18    69    68    2
    19    60    56   am
    20    46    45   ar
    21    44    45    1
    22    79    81    1
    23    79    78    1
    24    66    67    1
    25    45    47   ar
    26    68    67    1
    27    68    70   am
    28    71    70    1
    29    71    72    1
    30    56    57    2
    31    56    55    1
    32    78    75    1
    33    54    55    1
    34   117   116    2
    35    74    72   am
    36    74    75    1
    37    72    73    2
    38    55    58    1
    39    58    59    1
    40    75    76    1
    41   114   115    1
    42   116   115    1
    43   116   122   am
    44    37    39   ar
    45    37    35   ar
    46   120   119    1
    47    77    76    2
    48   118   115    1
    49   118   119    1
    50    39    38   ar
    51   126   123    1
    52   126   127    1
    53    59    15    1
    54    34    35   ar
    55    34    32   ar
    56    76    82   am
    57    35    33   ar
    58   123   122    1
    59   123   124    1
    60   119   121    1
    61    19    18    2
    62    38    36   ar
    63    32    31   ar
    64    33    36   ar
    65    33    31   ar
    66    17    16    1
    67    17    18    1
    68    16    12   am
    69   128   127   ar
    70    31    30    1
    71   127   129   ar
    72   125   124    2
    73    82    83    1
    74   124   130   am
    75    15    14    1
    76    30    27    1
    77    84    85    2
    78    84    83    1
    79    11    12    1
    80    11    14    1
    81    11    10    1
    82    12    13    2
    83   104   105    1
    84   104   101    1
    85    83    86    1
    86   130   131    1
    87    94    91    1
    88    25    24    1
    89    27    26    1
    90    27    28    1
    91   131   132    1
    92   131   134    1
    93   101   100    1
    94   101   102    1
    95    88    89    1
    96    88    87    1
    97    86    87    1
    98    26    22   am
    99    20    21    1
   100   133   132    2
   101    28    29    2
   102   100    97   am
   103   132   140   am
   104    91    92    1
   105    91    90    1
   106    95    96    1
   107   134   135    1
   108    92    93    2
   109   102   103    2
   110   140   141    1
   111    24    21    1
   112    22    21    1
   113    22    23    2
   114     9     7   am
   115    97    96    1
   116    97    98    2
   117   141   142    1
   118   113   112    1
   119    96    99    1
   120   136   135   ar
   121   136   138   ar
   122   135   137   ar
   123     4     3    2
   124   111   112    1
   125   111   110    1
   126     7     8    2
   127     7     6    1
   128   138   139   ar
   129   142   143    2
   130   137   139   ar
   131     6     5    1
   132     5     2    1
   133     3     2    1
   134   155   157   ar
   135   155   153   ar
   136   110   107    1
   137   157   156   ar
   138     2     1    1
   139   152   153   ar
   140   152   150   ar
   141   153   151   ar
   142   106   107    1
   143   107   108    1
   144   150   149   ar
   145   156   154   ar
   146   151   154   ar
   147   151   149   ar
   148   149   148    1
   149   108   109    2
   150   148   145    1
   151   145   144    1
   152   145   146    1
   153   146   147    2
