@<TRIPOS>MOLECULE
tmp/3hd6A00.pdb
 112 105 0 0 0
SMALL
GASTEIGER

@<TRIPOS>ATOM
      1  N         16.7400   73.0360   58.7590 N.3   281  MET281     -0.1230
      2  CA        17.4230   74.0780   59.5410 C.3   281  MET281      0.1702
      3  C         16.7850   75.4750   59.4860 C.2   281  MET281      0.2592
      4  O         16.9460   76.2640   60.4180 O.2   281  MET281     -0.2718
      5  CB        18.8620   74.2430   59.0430 C.3   281  MET281      0.0401
      6  CG        19.7250   73.0080   59.0770 C.3   281  MET281      0.0596
      7  SD        21.2820   73.3150   58.2020 S.3   281  MET281     -0.1393
      8  CE        21.9620   71.6580   58.1060 C.3   281  MET281      0.0692
      9  N         16.1090   75.8090   58.3880 N.am  282  MET282     -0.1965
     10  CA        15.6240   77.1830   58.1880 C.3   282  MET282      0.1736
     11  C         14.4020   77.5000   59.0400 C.2   282  MET282      0.2616
     12  O         13.3540   76.8680   58.9090 O.2   282  MET282     -0.2715
     13  CB        15.3190   77.4470   56.7200 C.3   282  MET282      0.0427
     14  CG        16.5660   77.5260   55.8720 C.3   282  MET282      0.0599
     15  SD        16.1980   78.0020   54.1880 S.3   282  MET282     -0.1393
     16  CE        15.4630   79.5900   54.4880 C.3   282  MET282      0.0692
     17  N         14.5490   78.4870   59.9140 N.am  283  LEU283     -0.1963
     18  CA        13.4900   78.8680   60.8490 C.3   283  LEU283      0.1728
     19  C         12.3670   79.7070   60.2290 C.2   283  LEU283      0.2616
     20  O         11.3290   79.9050   60.8590 O.2   283  LEU283     -0.2715
     21  CB        14.0960   79.5990   62.0630 C.3   283  LEU283      0.0311
     22  CG        15.1340   78.8040   62.8780 C.3   283  LEU283      0.0022
     23  CD1       15.4730   79.5220   64.1850 C.3   283  LEU283      0.0001
     24  CD2       14.6710   77.3710   63.1670 C.3   283  LEU283      0.0001
     25  N         12.5570   80.1840   58.9990 N.am  284  MET284     -0.1977
     26  CA        11.5480   81.0050   58.3240 C.3   284  MET284      0.1605
     27  C         11.3330   80.5800   56.8820 C.2   284  MET284      0.2287
     28  O         12.3020   80.3350   56.1670 O.2   284  MET284     -0.2864
     29  CB        11.9710   82.4620   58.3530 C.3   284  MET284      0.0413
     30  CG        11.9600   83.0450   59.7420 C.3   284  MET284      0.0598
     31  SD        12.0730   84.8290   59.6770 S.3   284  MET284     -0.1393
     32  CE        10.5630   85.2070   58.8030 C.3   284  MET284      0.0692
     33  N         10.2970   82.2690   54.2000 N.3   286  TYR286     -0.1227
     34  CA        10.6020   83.1950   53.1090 C.3   286  TYR286      0.1736
     35  C         11.9640   82.8690   52.4670 C.2   286  TYR286      0.2596
     36  O         12.1460   83.0660   51.2700 O.2   286  TYR286     -0.2718
     37  CB        10.5180   84.6560   53.5590 C.3   286  TYR286      0.0548
     38  CG        11.8090   85.2400   54.0690 C.ar  286  TYR286     -0.0200
     39  CD1       12.7090   85.8350   53.1950 C.ar  286  TYR286     -0.0009
     40  CD2       12.1290   85.2100   55.4200 C.ar  286  TYR286     -0.0009
     41  CE1       13.9000   86.3790   53.6470 C.ar  286  TYR286      0.0417
     42  CE2       13.3260   85.7630   55.8870 C.ar  286  TYR286      0.0417
     43  CZ        14.2040   86.3460   54.9870 C.ar  286  TYR286      0.1957
     44  OH        15.3960   86.8940   55.4150 O.3   286  TYR286     -0.2866
     45  N         12.9010   82.3630   53.2650 N.am  287  GLY287     -0.1957
     46  CA        14.1970   81.9270   52.7500 C.3   287  GLY287      0.1869
     47  C         14.0710   80.7580   51.7750 C.2   287  GLY287      0.2309
     48  O         14.7790   80.7090   50.7730 O.2   287  GLY287     -0.2863
     49  N         12.9650   82.0530   48.4740 N.3   290  ILE290     -0.1231
     50  CA        14.0880   82.6420   47.7550 C.3   290  ILE290      0.1692
     51  C         14.9640   81.5730   47.0900 C.2   290  ILE290      0.2591
     52  O         15.3940   81.7540   45.9590 O.2   290  ILE290     -0.2718
     53  CB        14.9570   83.5250   48.6550 C.3   290  ILE290      0.0266
     54  CG1       14.1580   84.7460   49.1190 C.3   290  ILE290      0.0019
     55  CG2       16.2010   83.9860   47.8900 C.3   290  ILE290      0.0020
     56  CD1       14.9440   85.6960   50.0270 C.3   290  ILE290      0.0001
     57  N         15.2340   80.4800   47.7990 N.am  291  ILE291     -0.1980
     58  CA        16.0510   79.3910   47.2540 C.3   291  ILE291      0.1595
     59  C         15.3780   78.7810   46.0130 C.2   291  ILE291      0.2287
     60  O         16.0210   78.5850   44.9800 O.2   291  ILE291     -0.2864
     61  CB        16.3100   78.2930   48.3130 C.3   291  ILE291      0.0276
     62  CG1       17.2180   78.8320   49.4230 C.3   291  ILE291      0.0022
     63  CG2       16.9580   77.0470   47.6770 C.3   291  ILE291      0.0022
     64  CD1       17.1480   78.0120   50.7190 C.3   291  ILE291      0.0001
     65  N         15.5150   81.3920   43.0110 N.3   294  VAL294     -0.1231
     66  CA        16.8150   81.4760   42.3520 C.3   294  VAL294      0.1692
     67  C         17.1250   80.2050   41.5540 C.2   294  VAL294      0.2592
     68  O         17.6500   80.2780   40.4310 O.2   294  VAL294     -0.2718
     69  CB        17.9440   81.7470   43.3860 C.3   294  VAL294      0.0266
     70  CG1       19.3240   81.5860   42.7610 C.3   294  VAL294      0.0020
     71  CG2       17.7940   83.1410   43.9790 C.3   294  VAL294      0.0020
     72  N         16.8000   79.0510   42.1320 N.am  295  CYS295     -0.1970
     73  CA        17.1620   77.7730   41.5370 C.3   295  CYS295      0.1712
     74  C         16.3170   77.4130   40.3190 C.2   295  CYS295      0.2296
     75  O         16.8100   76.7520   39.4180 O.2   295  CYS295     -0.2864
     76  CB        17.1320   76.6520   42.5880 C.3   295  CYS295      0.0983
     77  SG        18.5320   76.8070   43.7210 S.3   295  CYS295     -0.0798
     78  N         24.5100   74.2420   45.3640 N.3   332  ILE332     -0.1245
     79  CA        23.8220   75.3710   45.9940 C.3   332  ILE332      0.1561
     80  C         23.2240   74.9380   47.3280 C.2   332  ILE332      0.2260
     81  O         23.4260   75.6090   48.3510 O.2   332  ILE332     -0.2867
     82  CB        22.7140   75.9710   45.0880 C.3   332  ILE332      0.0252
     83  CG1       23.3390   76.7370   43.9130 C.3   332  ILE332      0.0019
     84  CG2       21.8140   76.9070   45.8860 C.3   332  ILE332      0.0019
     85  CD1       22.3570   77.0640   42.7800 C.3   332  ILE332      0.0001
     86  N         24.1080   76.5420   50.8660 N.3   336  VAL336     -0.1245
     87  CA        23.0680   77.1580   51.6980 C.3   336  VAL336      0.1561
     88  C         22.9480   76.4300   53.0400 C.2   336  VAL336      0.2260
     89  O         22.7130   77.0630   54.0780 O.2   336  VAL336     -0.2867
     90  CB        21.6930   77.2170   50.9910 C.3   336  VAL336      0.0252
     91  CG1       20.6610   77.8830   51.8970 C.3   336  VAL336      0.0019
     92  CG2       21.8010   77.9840   49.6770 C.3   336  VAL336      0.0019
     93  N         25.8070   77.8410   55.2740 N.3   339  VAL339     -0.1231
     94  CA        25.4740   79.1870   55.7440 C.3   339  VAL339      0.1692
     95  C         24.3720   79.1180   56.7920 C.2   339  VAL339      0.2592
     96  O         24.4510   79.7910   57.8160 O.2   339  VAL339     -0.2718
     97  CB        25.0250   80.1170   54.5920 C.3   339  VAL339      0.0266
     98  CG1       24.5490   81.4550   55.1380 C.3   339  VAL339      0.0020
     99  CG2       26.1610   80.3240   53.5920 C.3   339  VAL339      0.0020
    100  N         23.3600   78.2900   56.5400 N.am  340  THR340     -0.1953
    101  CA        22.2410   78.1320   57.4710 C.3   340  THR340      0.1897
    102  C         22.7150   77.4630   58.7680 C.2   340  THR340      0.2313
    103  O         22.3180   77.8730   59.8650 O.2   340  THR340     -0.2863
    104  CB        21.0760   77.3360   56.8430 C.3   340  THR340      0.1794
    105  OG1       20.7430   77.8920   55.5640 O.3   340  THR340     -0.2208
    106  CG2       19.8500   77.3870   57.7320 C.3   340  THR340      0.0378
    107  N         24.5110   80.0420   60.9490 N.3   343  SER343     -0.1217
    108  CA        23.6100   81.0240   61.5580 C.3   343  SER343      0.1889
    109  C         22.9410   80.4860   62.8250 C.2   343  SER343      0.2288
    110  O         22.9540   79.2820   63.0970 O.2   343  SER343     -0.2866
    111  CB        22.5440   81.4610   60.5510 C.3   343  SER343      0.2089
    112  OG        23.1300   82.1820   59.4810 O.3   343  SER343     -0.2183
@<TRIPOS>BOND
     1    75    74    2
     2    74    73    1
     3    68    67    2
     4    73    72    1
     5    73    76    1
     6    67    72   am
     7    67    66    1
     8    66    65    1
     9    66    69    1
    10    76    77    1
    11    70    69    1
    12    85    83    1
    13    69    71    1
    14    83    82    1
    15    60    59    2
    16    82    84    1
    17    82    79    1
    18    78    79    1
    19    52    51    2
    20    79    80    1
    21    59    58    1
    22    51    50    1
    23    51    57   am
    24    58    57    1
    25    58    61    1
    26    80    81    2
    27    63    61    1
    28    50    49    1
    29    50    53    1
    30    55    53    1
    31    61    62    1
    32    53    54    1
    33    54    56    1
    34    62    64    1
    35    92    90    1
    36    48    47    2
    37    86    87    1
    38    90    87    1
    39    90    91    1
    40    36    35    2
    41    87    88    1
    42    47    46    1
    43    35    34    1
    44    35    45   am
    45    46    45    1
    46    88    89    2
    47    34    37    1
    48    34    33    1
    49    39    41   ar
    50    39    38   ar
    51    37    38    1
    52    99    97    1
    53    41    43   ar
    54    38    40   ar
    55    15    16    1
    56    15    14    1
    57    97    98    1
    58    97    94    1
    59    43    44    1
    60    43    42   ar
    61    93    94    1
    62    40    42   ar
    63   105   104    1
    64    94    95    1
    65    14    13    1
    66    28    27    2
    67   100    95   am
    68   100   101    1
    69    13    10    1
    70    95    96    2
    71   104   101    1
    72   104   106    1
    73    27    26    1
    74   101   102    1
    75     8     7    1
    76    10     9    1
    77    10    11    1
    78     7     6    1
    79    26    29    1
    80    26    25    1
    81    29    30    1
    82     9     3   am
    83     1     2    1
    84   102   103    2
    85    32    31    1
    86    12    11    2
    87    25    19   am
    88    11    17   am
    89     5     6    1
    90     5     2    1
    91   112   111    1
    92     3     2    1
    93     3     4    2
    94    31    30    1
    95    17    18    1
    96    19    18    1
    97    19    20    2
    98   111   108    1
    99    18    21    1
   100   107   108    1
   101   108   109    1
   102    21    22    1
   103   109   110    2
   104    22    24    1
   105    22    23    1
