@<TRIPOS>MOLECULE
tmp/3hdbA04.pdb
 102 96 0 0 0
SMALL
GASTEIGER

@<TRIPOS>ATOM
      1  N         18.5590   30.5690   60.4380 N.3    30  THR30      -0.1218
      2  CA        17.8630   29.2850   60.3100 C.3    30  THR30       0.1862
      3  C         16.4090   29.4800   59.8740 C.2    30  THR30       0.2287
      4  O         15.9450   28.8100   58.9480 O.2    30  THR30      -0.2866
      5  CB        17.9960   28.4370   61.6050 C.3    30  THR30       0.1770
      6  OG1       19.3810   28.2100   61.8590 O.3    30  THR30      -0.2211
      7  CG2       17.3140   27.0740   61.4710 C.3    30  THR30       0.0375
      8  N         16.6070   30.3720   56.2030 N.3    33  TYR33      -0.1227
      9  CA        16.9040   29.2020   55.3690 C.3    33  TYR33       0.1736
     10  C         15.6560   28.3370   55.2080 C.2    33  TYR33       0.2595
     11  O         15.3450   27.8930   54.1040 O.2    33  TYR33      -0.2718
     12  CB        18.0480   28.3460   55.9350 C.3    33  TYR33       0.0548
     13  CG        19.3700   29.0570   56.1610 C.ar   33  TYR33      -0.0200
     14  CD1       19.8350   30.0220   55.2700 C.ar   33  TYR33      -0.0009
     15  CD2       20.1740   28.7290   57.2570 C.ar   33  TYR33      -0.0009
     16  CE1       21.0560   30.6640   55.4730 C.ar   33  TYR33       0.0417
     17  CE2       21.3980   29.3570   57.4640 C.ar   33  TYR33       0.0417
     18  CZ        21.8300   30.3250   56.5660 C.ar   33  TYR33       0.1957
     19  OH        23.0320   30.9610   56.7680 O.3    33  TYR33      -0.2866
     20  N         14.9500   28.1020   56.3120 N.am   34  GLU34      -0.1979
     21  CA        13.6980   27.3500   56.2890 C.3    34  GLU34       0.1602
     22  C         12.6330   28.0420   55.4450 C.2    34  GLU34       0.2287
     23  O         11.9090   27.3760   54.6890 O.2    34  GLU34      -0.2864
     24  CB        13.1560   27.1730   57.7030 C.3    34  GLU34       0.0415
     25  CG        13.8730   26.1410   58.5320 C.3    34  GLU34       0.1163
     26  CD        13.1220   25.8310   59.8060 C.2    34  GLU34       0.3649
     27  OE1       13.7400   25.2680   60.7390 O.co2  34  GLU34      -0.2457
     28  OE2       11.9100   26.1520   59.8660 O.co2  34  GLU34      -0.2457
     29  N         13.3740   27.6700   51.7960 N.3    37  ASN37      -0.1225
     30  CA        13.0980   26.3000   51.3720 C.3    37  ASN37       0.1785
     31  C         11.5980   26.0120   51.2180 C.2    37  ASN37       0.2597
     32  O         11.1880   25.3180   50.2880 O.2    37  ASN37      -0.2718
     33  CB        13.7550   25.2810   52.3070 C.3    37  ASN37       0.1169
     34  CG        13.5640   23.8620   51.8260 C.2    37  ASN37       0.2627
     35  OD1       12.9470   23.0450   52.5030 O.2    37  ASN37      -0.2716
     36  ND2       14.0610   23.5720   50.6300 N.am   37  ASN37      -0.0877
     37  N         10.7900   26.5420   52.1340 N.am   38  ASN38      -0.1974
     38  CA         9.3400   26.4460   52.0170 C.3    38  ASN38       0.1688
     39  C          8.8330   27.1190   50.7470 C.2    38  ASN38       0.2292
     40  O          7.9830   26.5650   50.0560 O.2    38  ASN38      -0.2864
     41  CB         8.6400   27.0420   53.2440 C.3    38  ASN38       0.1181
     42  CG         8.6230   26.0940   54.4400 C.2    38  ASN38       0.2629
     43  OD1        8.7270   26.5320   55.5890 O.2    38  ASN38      -0.2716
     44  ND2        8.4840   24.7970   54.1760 N.am   38  ASN38      -0.0877
     45  N          9.5630   24.9440   47.6430 N.3    41  GLU41      -0.1245
     46  CA         8.5580   23.8850   47.5290 C.3    41  GLU41       0.1567
     47  C          7.2240   24.3900   46.9830 C.2    41  GLU41       0.2260
     48  O          6.5940   23.7290   46.1480 O.2    41  GLU41      -0.2867
     49  CB         8.3440   23.1930   48.8790 C.3    41  GLU41       0.0388
     50  CG         9.3710   22.1080   49.1760 C.3    41  GLU41       0.1160
     51  CD         9.4560   21.0660   48.0580 C.2    41  GLU41       0.3649
     52  OE1       10.4600   21.0730   47.2950 O.co2  41  GLU41      -0.2457
     53  OE2        8.5040   20.2620   47.9280 O.co2  41  GLU41      -0.2457
     54  N          0.7560   25.2660   51.1160 N.3   175  LYS175     -0.1245
     55  CA         1.9110   25.4840   50.2440 C.3   175  LYS175      0.1561
     56  C          1.5040   25.6130   48.7730 C.2   175  LYS175      0.2260
     57  O          2.3470   25.4820   47.8830 O.2   175  LYS175     -0.2867
     58  CB         2.9170   24.3310   50.3850 C.3   175  LYS175      0.0271
     59  CG         3.5080   24.1490   51.7790 C.3   175  LYS175      0.0035
     60  CD         4.6490   23.1270   51.7720 C.3   175  LYS175      0.0206
     61  CE         5.0810   22.7370   53.1830 C.3   175  LYS175      0.1093
     62  NZ         4.0290   21.9620   53.9110 N.3   175  LYS175     -0.1314
     63  N         22.5030   26.5200   53.4430 N.3   209  PRO209     -0.2116
     64  CA        23.1760   25.2240   53.5630 C.3   209  PRO209      0.1372
     65  C         22.5730   24.2030   52.6000 C.2   209  PRO209      0.2244
     66  O         21.3460   24.0580   52.5610 O.2   209  PRO209     -0.2868
     67  CB        22.9240   24.8090   55.0210 C.3   209  PRO209      0.0268
     68  CG        21.7540   25.6360   55.4720 C.3   209  PRO209      0.0207
     69  CD        21.8140   26.9120   54.6900 C.3   209  PRO209      0.0892
     70  N         20.9450   21.1770   50.6730 N.3   211  LEU211     -0.1231
     71  CA        19.8680   20.3080   51.1180 C.3   211  LEU211      0.1693
     72  C         19.5650   19.2950   50.0180 C.2   211  LEU211      0.2592
     73  O         19.1350   19.6780   48.9260 O.2   211  LEU211     -0.2718
     74  CB        18.6210   21.1520   51.3870 C.3   211  LEU211      0.0284
     75  CG        17.6760   20.8410   52.5490 C.3   211  LEU211      0.0019
     76  CD1       16.5820   21.9240   52.6030 C.3   211  LEU211      0.0001
     77  CD2       17.0710   19.4250   52.4880 C.3   211  LEU211      0.0001
     78  N         19.7950   18.0090   50.2920 N.am  212  CYS212     -0.1956
     79  CA        19.5910   16.9800   49.2740 C.3   212  CYS212      0.1843
     80  C         18.1060   16.6940   49.0640 C.2   212  CYS212      0.2626
     81  O         17.4230   16.2280   49.9740 O.2   212  CYS212     -0.2714
     82  CB        20.3490   15.7000   49.6200 C.3   212  CYS212      0.0997
     83  SG        20.0730   14.3260   48.4600 S.3   212  CYS212     -0.0797
     84  N         17.6120   16.9720   47.8620 N.am  213  GLY213     -0.1940
     85  CA        16.2050   16.7420   47.5410 C.3   213  GLY213      0.2014
     86  C         15.3800   18.0010   47.3290 C.2   213  GLY213      0.2638
     87  O         14.1650   17.9240   47.1490 O.2   213  GLY213     -0.2714
     88  N         16.0300   19.1620   47.3480 N.am  214  ASN214     -0.1972
     89  CA        15.3450   20.4150   47.0330 C.3   214  ASN214      0.1688
     90  C         15.3300   20.7490   45.5330 C.2   214  ASN214      0.2292
     91  O         14.8160   21.7950   45.1370 O.2   214  ASN214     -0.2864
     92  CB        15.8790   21.5790   47.8830 C.3   214  ASN214      0.1181
     93  CG        17.3030   21.9700   47.5450 C.2   214  ASN214      0.2629
     94  OD1       17.9970   21.2720   46.8130 O.2   214  ASN214     -0.2716
     95  ND2       17.7490   23.1040   48.0900 N.am  214  ASN214     -0.0877
     96  N         12.8490   14.5850   45.7260 N.3   227  THR227     -0.1218
     97  CA        12.5070   13.4760   46.6140 C.3   227  THR227      0.1862
     98  C         12.4980   12.1780   45.8100 C.2   227  THR227      0.2287
     99  O         12.1630   12.2030   44.6270 O.2   227  THR227     -0.2866
    100  CB        11.1080   13.6780   47.2600 C.3   227  THR227      0.1770
    101  OG1       10.0900   13.5880   46.2520 O.3   227  THR227     -0.2211
    102  CG2       11.0090   15.0350   47.9690 C.3   227  THR227      0.0375
@<TRIPOS>BOND
     1    99    98    2
     2    91    90    2
     3    90    89    1
     4    96    97    1
     5    98    97    1
     6    48    47    2
     7   101   100    1
     8    97   100    1
     9    94    93    2
    10    47    46    1
    11    89    88    1
    12    89    92    1
    13    87    86    2
    14   100   102    1
    15    52    51   ar
    16    86    88   am
    17    86    85    1
    18    46    45    1
    19    46    49    1
    20    85    84    1
    21    93    92    1
    22    93    95   am
    23    84    80   am
    24    57    56    2
    25    53    51   ar
    26    51    50    1
    27    83    82    1
    28    56    55    1
    29    49    50    1
    30    73    72    2
    31    80    79    1
    32    80    81    2
    33    79    82    1
    34    79    78    1
    35    72    78   am
    36    72    71    1
    37    40    39    2
    38    55    58    1
    39    55    54    1
    40    32    31    2
    41    58    59    1
    42    36    34   am
    43    70    71    1
    44    39    38    1
    45    71    74    1
    46    31    30    1
    47    31    37   am
    48    30    29    1
    49    30    33    1
    50    74    75    1
    51    60    59    1
    52    60    61    1
    53    34    33    1
    54    34    35    2
    55    38    37    1
    56    38    41    1
    57    77    75    1
    58    75    76    1
    59    66    65    2
    60    65    64    1
    61    61    62    1
    62    41    42    1
    63    63    64    1
    64    63    69    1
    65    64    67    1
    66    11    10    2
    67    44    42   am
    68    42    43    2
    69    23    22    2
    70    69    68    1
    71    67    68    1
    72    10     9    1
    73    10    20   am
    74    14    16   ar
    75    14    13   ar
    76     9    12    1
    77     9     8    1
    78    22    21    1
    79    16    18   ar
    80    12    13    1
    81    13    15   ar
    82    21    20    1
    83    21    24    1
    84    18    19    1
    85    18    17   ar
    86    15    17   ar
    87    24    25    1
    88    25    26    1
    89     4     3    2
    90    26    28   ar
    91    26    27   ar
    92     3     2    1
    93     2     1    1
    94     2     5    1
    95     7     5    1
    96     5     6    1
