@<TRIPOS>MOLECULE
tmp/3hdbA03.pdb
 113 115 0 0 0
SMALL
GASTEIGER

@<TRIPOS>ATOM
      1  N          5.6140   23.5600   42.1370 N.3    45  TYR45      -0.1227
      2  CA         4.3490   23.2880   41.4420 C.3    45  TYR45       0.1736
      3  C          4.0850   24.1850   40.2330 C.2    45  TYR45       0.2595
      4  O          3.3350   23.8050   39.3330 O.2    45  TYR45      -0.2718
      5  CB         3.1740   23.3910   42.4230 C.3    45  TYR45       0.0548
      6  CG         3.2290   22.3520   43.5090 C.ar   45  TYR45      -0.0200
      7  CD1        2.8090   21.0450   43.2650 C.ar   45  TYR45      -0.0009
      8  CD2        3.7250   22.6640   44.7770 C.ar   45  TYR45      -0.0009
      9  CE1        2.8680   20.0840   44.2510 C.ar   45  TYR45       0.0417
     10  CE2        3.7840   21.7060   45.7750 C.ar   45  TYR45       0.0417
     11  CZ         3.3530   20.4200   45.5020 C.ar   45  TYR45       0.1957
     12  OH         3.4090   19.4570   46.4780 O.3    45  TYR45      -0.2866
     13  N          4.6940   25.3670   40.2290 N.am   46  MET46      -0.1965
     14  CA         4.5770   26.3030   39.1230 C.3    46  MET46       0.1736
     15  C          5.8210   26.2950   38.2240 C.2    46  MET46       0.2616
     16  O          6.0230   27.2170   37.4280 O.2    46  MET46      -0.2715
     17  CB         4.3330   27.7210   39.6470 C.3    46  MET46       0.0427
     18  CG         3.0880   27.9020   40.5250 C.3    46  MET46       0.0599
     19  SD         2.4010   29.5650   40.3270 S.3    46  MET46      -0.1393
     20  CE         3.7910   30.6100   40.7780 C.3    46  MET46       0.0692
     21  N          6.6400   25.2470   38.3440 N.am   47  PHE47      -0.1974
     22  CA         7.9070   25.1300   37.6010 C.3    47  PHE47       0.1639
     23  C          8.8510   26.2980   37.8900 C.2    47  PHE47       0.2290
     24  O          9.4330   26.8940   36.9820 O.2    47  PHE47      -0.2864
     25  CB         7.6610   24.9300   36.0940 C.3    47  PHE47       0.0560
     26  CG         6.9900   23.6280   35.7700 C.ar   47  PHE47      -0.0200
     27  CD1        7.7460   22.4840   35.5370 C.ar   47  PHE47      -0.0042
     28  CD2        5.6000   23.5360   35.7330 C.ar   47  PHE47      -0.0042
     29  CE1        7.1310   21.2680   35.2560 C.ar   47  PHE47      -0.0003
     30  CE2        4.9690   22.3250   35.4570 C.ar   47  PHE47      -0.0003
     31  CZ         5.7360   21.1890   35.2160 C.ar   47  PHE47      -0.0000
     32  N         -8.4320   27.7610   42.0290 N.3   157  TYR157     -0.1227
     33  CA        -8.4320   26.4870   42.7500 C.3   157  TYR157      0.1736
     34  C         -7.0220   25.9530   43.0130 C.2   157  TYR157      0.2596
     35  O         -6.1520   26.0150   42.1350 O.2   157  TYR157     -0.2718
     36  CB        -9.2580   25.4610   41.9620 C.3   157  TYR157      0.0548
     37  CG        -9.3740   24.0920   42.5940 C.ar  157  TYR157     -0.0200
     38  CD1      -10.2240   23.8740   43.6780 C.ar  157  TYR157     -0.0009
     39  CD2       -8.6480   23.0080   42.0950 C.ar  157  TYR157     -0.0009
     40  CE1      -10.3400   22.6110   44.2620 C.ar  157  TYR157      0.0417
     41  CE2       -8.7530   21.7420   42.6700 C.ar  157  TYR157      0.0417
     42  CZ        -9.6020   21.5520   43.7520 C.ar  157  TYR157      0.1957
     43  OH        -9.7130   20.3060   44.3340 O.3   157  TYR157     -0.2866
     44  N         -6.8190   25.4270   44.2240 N.am  158  CYS158     -0.1956
     45  CA        -5.5420   24.8420   44.6490 C.3   158  CYS158      0.1843
     46  C         -5.7690   23.6580   45.5900 C.2   158  CYS158      0.2626
     47  O         -5.1430   23.5640   46.6540 O.2   158  CYS158     -0.2714
     48  CB        -4.6610   25.9020   45.3310 C.3   158  CYS158      0.0997
     49  SG        -5.3430   26.6330   46.8490 S.3   158  CYS158     -0.0797
     50  N         -6.6510   22.7450   45.1900 N.am  159  GLY159     -0.1954
     51  CA        -7.1750   21.7350   46.1160 C.3   159  GLY159      0.1869
     52  C         -8.2170   22.3910   47.0130 C.2   159  GLY159      0.2309
     53  O         -8.6550   23.5210   46.7520 O.2   159  GLY159     -0.2863
     54  N         -7.5890   23.4440   49.8990 N.3   161  TYR161     -0.1241
     55  CA        -6.7780   24.3540   50.7160 C.3   161  TYR161      0.1605
     56  C         -6.9420   25.8490   50.4020 C.2   161  TYR161      0.2264
     57  O         -7.3920   26.2160   49.3100 O.2   161  TYR161     -0.2867
     58  CB        -5.2930   23.9860   50.5600 C.3   161  TYR161      0.0534
     59  CG        -4.9860   22.5000   50.5870 C.ar  161  TYR161     -0.0201
     60  CD1       -4.6940   21.8470   51.7870 C.ar  161  TYR161     -0.0009
     61  CD2       -4.9690   21.7520   49.4060 C.ar  161  TYR161     -0.0009
     62  CE1       -4.4080   20.4850   51.8120 C.ar  161  TYR161      0.0417
     63  CE2       -4.6860   20.3900   49.4200 C.ar  161  TYR161      0.0417
     64  CZ        -4.4060   19.7630   50.6240 C.ar  161  TYR161      0.1957
     65  OH        -4.1200   18.4140   50.6330 O.3   161  TYR161     -0.2866
     66  N          0.2270   25.8840   48.5120 N.3   176  PHE176     -0.1227
     67  CA        -0.2970   25.7580   47.1520 C.3   176  PHE176      0.1736
     68  C         -0.7450   27.0490   46.4730 C.2   176  PHE176      0.2595
     69  O         -1.5920   27.7800   46.9820 O.2   176  PHE176     -0.2718
     70  CB        -1.4050   24.6980   47.1050 C.3   176  PHE176      0.0547
     71  CG        -0.9690   23.3480   47.6170 C.ar  176  PHE176     -0.0202
     72  CD1       -0.0160   22.5980   46.9250 C.ar  176  PHE176     -0.0042
     73  CD2       -1.5020   22.8300   48.7950 C.ar  176  PHE176     -0.0042
     74  CE1        0.3970   21.3540   47.4010 C.ar  176  PHE176     -0.0003
     75  CE2       -1.0990   21.5910   49.2740 C.ar  176  PHE176     -0.0003
     76  CZ        -0.1480   20.8510   48.5770 C.ar  176  PHE176     -0.0000
     77  N         -0.1480   27.3150   45.3180 N.am  177  PHE177     -0.1962
     78  CA        -0.6350   28.3360   44.4000 C.3   177  PHE177      0.1771
     79  C         -1.8640   27.8190   43.6460 C.2   177  PHE177      0.2620
     80  O         -2.0270   26.6080   43.4610 O.2   177  PHE177     -0.2715
     81  CB         0.4560   28.7250   43.3990 C.3   177  PHE177      0.0574
     82  CG         1.4650   29.6930   43.9400 C.ar  177  PHE177     -0.0200
     83  CD1        1.1810   31.0520   43.9960 C.ar  177  PHE177     -0.0042
     84  CD2        2.7090   29.2500   44.3730 C.ar  177  PHE177     -0.0042
     85  CE1        2.1140   31.9550   44.4850 C.ar  177  PHE177     -0.0003
     86  CE2        3.6500   30.1450   44.8620 C.ar  177  PHE177     -0.0003
     87  CZ         3.3490   31.5010   44.9230 C.ar  177  PHE177     -0.0000
     88  N         -2.7230   28.7390   43.2140 N.am  178  SER178     -0.1936
     89  CA        -3.9340   28.3750   42.4860 C.3   178  SER178      0.2055
     90  C         -3.6670   28.2470   40.9820 C.2   178  SER178      0.2643
     91  O         -2.5810   28.6050   40.5040 O.2   178  SER178     -0.2714
     92  CB        -5.0370   29.4050   42.7440 C.3   178  SER178      0.2130
     93  OG        -4.7450   30.6370   42.1020 O.3   178  SER178     -0.2179
     94  N         -4.6600   27.7440   40.2420 N.am  179  ASN179     -0.1971
     95  CA        -4.5700   27.6870   38.7800 C.3   179  ASN179      0.1688
     96  C         -4.4900   29.0690   38.1310 C.2   179  ASN179      0.2292
     97  O         -3.7960   29.2420   37.1290 O.2   179  ASN179     -0.2864
     98  CB        -5.6690   26.8070   38.1470 C.3   179  ASN179      0.1181
     99  CG        -7.0960   27.2520   38.4960 C.2   179  ASN179      0.2629
    100  OD1       -7.3160   28.0640   39.4030 O.2   179  ASN179     -0.2716
    101  ND2       -8.0770   26.6970   37.7510 N.am  179  ASN179     -0.0877
    102  N         -0.6990   30.3200   38.5420 N.3   182  TYR182     -0.1241
    103  CA         0.1150   29.6590   37.5210 C.3   182  TYR182      0.1605
    104  C         -0.0490   30.3250   36.1470 C.2   182  TYR182      0.2264
    105  O          0.9400   30.7290   35.5190 O.2   182  TYR182     -0.2867
    106  CB        -0.2280   28.1680   37.4470 C.3   182  TYR182      0.0534
    107  CG         0.5770   27.3990   36.4230 C.ar  182  TYR182     -0.0201
    108  CD1        1.9390   27.1490   36.6190 C.ar  182  TYR182     -0.0009
    109  CD2       -0.0220   26.9130   35.2570 C.ar  182  TYR182     -0.0009
    110  CE1        2.6830   26.4420   35.6810 C.ar  182  TYR182      0.0417
    111  CE2        0.7170   26.2050   34.3080 C.ar  182  TYR182      0.0417
    112  CZ         2.0680   25.9750   34.5280 C.ar  182  TYR182      0.1957
    113  OH         2.8050   25.2780   33.5990 O.3   182  TYR182     -0.2866
@<TRIPOS>BOND
     1   113   112    1
     2   111   112   ar
     3   111   109   ar
     4   112   110   ar
     5    31    29   ar
     6    31    30   ar
     7    29    27   ar
     8   109   107   ar
     9    30    28   ar
    10   105   104    2
    11    27    26   ar
    12   110   108   ar
    13    28    26   ar
    14    26    25    1
    15    25    22    1
    16   104   103    1
    17   107   108   ar
    18   107   106    1
    19    24    23    2
    20    97    96    2
    21    16    15    2
    22   106   103    1
    23   103   102    1
    24    22    23    1
    25    22    21    1
    26   101    99   am
    27    96    95    1
    28    98    99    1
    29    98    95    1
    30    15    21   am
    31    15    14    1
    32    99   100    2
    33    95    94    1
    34    14    17    1
    35    14    13    1
    36     4     3    2
    37    17    18    1
    38    13     3   am
    39     3     2    1
    40    94    90   am
    41    19    18    1
    42    19    20    1
    43    91    90    2
    44    90    89    1
    45     2     1    1
    46     2     5    1
    47    36    37    1
    48    36    33    1
    49    32    33    1
    50    39    37   ar
    51    39    41   ar
    52    93    92    1
    53    35    34    2
    54     5     6    1
    55    89    92    1
    56    89    88    1
    57    37    38   ar
    58    41    42   ar
    59    33    34    1
    60    34    44   am
    61    88    79   am
    62     7     6   ar
    63     7     9   ar
    64    81    82    1
    65    81    78    1
    66    80    79    2
    67     6     8   ar
    68    79    78    1
    69    38    40   ar
    70    42    40   ar
    71    42    43    1
    72    82    83   ar
    73    82    84   ar
    74    83    85   ar
    75    44    45    1
    76     9    11   ar
    77    84    86   ar
    78    78    77    1
    79    85    87   ar
    80    45    48    1
    81    45    46    1
    82     8    10   ar
    83    86    87   ar
    84    50    46   am
    85    50    51    1
    86    77    68   am
    87    48    49    1
    88    11    10   ar
    89    11    12    1
    90    46    47    2
    91    51    52    1
    92    68    69    2
    93    68    67    1
    94    53    52    2
    95    72    74   ar
    96    72    71   ar
    97    70    67    1
    98    70    71    1
    99    67    66    1
   100    74    76   ar
   101    71    73   ar
   102    76    75   ar
   103    73    75   ar
   104    57    56    2
   105    61    63   ar
   106    61    59   ar
   107    63    64   ar
   108    54    55    1
   109    56    55    1
   110    58    59    1
   111    58    55    1
   112    59    60   ar
   113    64    65    1
   114    64    62   ar
   115    60    62   ar
