@<TRIPOS>MOLECULE
tmp/3hdiA01.pdb
 95 89 0 0 0
SMALL
GASTEIGER

@<TRIPOS>ATOM
      1  N         18.0550  -20.1150  -15.0100 N.3    73  GLN73      -0.1245
      2  CA        17.2020  -20.1180  -13.8320 C.3    73  GLN73       0.1566
      3  C         15.7250  -20.1650  -14.2130 C.2    73  GLN73       0.2260
      4  O         15.0180  -19.1560  -14.1940 O.2    73  GLN73      -0.2867
      5  CB        17.4890  -18.9040  -12.9560 C.3    73  GLN73       0.0367
      6  CG        18.8150  -19.0000  -12.2340 C.3    73  GLN73       0.0905
      7  CD        18.9430  -17.9780  -11.1250 C.2    73  GLN73       0.2608
      8  OE1       18.1490  -17.9660  -10.1750 O.2    73  GLN73      -0.2717
      9  NE2       19.9470  -17.1090  -11.2360 N.am   73  GLN73      -0.0878
     10  N         13.8980  -16.7060  -13.9000 N.3    88  LYS88      -0.1245
     11  CA        14.5510  -15.4890  -13.4370 C.3    88  LYS88       0.1561
     12  C         15.5100  -15.0840  -14.5600 C.2    88  LYS88       0.2260
     13  O         16.2890  -15.9120  -15.0340 O.2    88  LYS88      -0.2867
     14  CB        15.3190  -15.7880  -12.1500 C.3    88  LYS88       0.0271
     15  CG        15.7540  -14.5880  -11.3250 C.3    88  LYS88       0.0035
     16  CD        16.3060  -15.0900   -9.9870 C.3    88  LYS88       0.0206
     17  CE        16.7200  -13.9770   -9.0310 C.3    88  LYS88       0.1093
     18  NZ        17.9650  -13.2790   -9.4620 N.3    88  LYS88      -0.1314
     19  N         15.7230  -24.5460   15.2350 N.3   264  MET264     -0.1245
     20  CA        16.7350  -25.1400   16.0890 C.3   264  MET264      0.1570
     21  C         16.2640  -25.1410   17.5310 C.2   264  MET264      0.2261
     22  O         16.4620  -26.1110   18.2570 O.2   264  MET264     -0.2867
     23  CB        18.0430  -24.3640   15.9680 C.3   264  MET264      0.0387
     24  CG        18.5790  -24.3070   14.5560 C.3   264  MET264      0.0595
     25  SD        18.5650  -25.9420   13.7750 S.3   264  MET264     -0.1393
     26  CE        17.2090  -25.7670   12.5470 C.3   264  MET264      0.0692
     27  N         13.8210  -30.4680   17.9760 N.3   269  PHE269     -0.1241
     28  CA        15.2430  -30.4050   17.6770 C.3   269  PHE269      0.1605
     29  C         16.0400  -30.5040   18.9660 C.2   269  PHE269      0.2264
     30  O         17.0690  -31.1690   19.0190 O.2   269  PHE269     -0.2867
     31  CB        15.6100  -29.1130   16.9450 C.3   269  PHE269      0.0534
     32  CG        16.9650  -29.1670   16.2830 C.ar  269  PHE269     -0.0203
     33  CD1       17.1170  -29.7560   15.0300 C.ar  269  PHE269     -0.0042
     34  CD2       18.1000  -28.6970   16.9360 C.ar  269  PHE269     -0.0042
     35  CE1       18.3800  -29.8810   14.4340 C.ar  269  PHE269     -0.0003
     36  CE2       19.3640  -28.8190   16.3500 C.ar  269  PHE269     -0.0003
     37  CZ        19.5000  -29.4140   15.0950 C.ar  269  PHE269     -0.0000
     38  N         17.0130  -34.3730   19.1410 N.3   273  ARG273     -0.1245
     39  CA        18.3570  -34.3750   18.5720 C.3   273  ARG273      0.1563
     40  C         19.4980  -33.8910   19.4570 C.2   273  ARG273      0.2260
     41  O         20.4530  -34.6280   19.7070 O.2   273  ARG273     -0.2867
     42  CB        18.3900  -33.5820   17.2660 C.3   273  ARG273      0.0307
     43  CG        19.7990  -33.4810   16.7200 C.3   273  ARG273      0.0489
     44  CD        19.8800  -32.7710   15.4010 C.3   273  ARG273      0.2205
     45  NE        21.2720  -32.5110   15.0610 N.pl3 273  ARG273     -0.0865
     46  CZ        21.6640  -31.8980   13.9550 C.cat 273  ARG273      0.5346
     47  NH1       22.9500  -31.7010   13.7310 N.pl3 273  ARG273      0.1354
     48  NH2       20.7690  -31.4920   13.0710 N.pl3 273  ARG273      0.1354
     49  N         19.5250  -37.0710   13.3340 N.3   280  TYR280     -0.1227
     50  CA        20.3290  -36.0320   12.7020 C.3   280  TYR280      0.1736
     51  C         19.2910  -35.0890   12.1010 C.2   280  TYR280      0.2596
     52  O         19.4430  -33.8650   12.1150 O.2   280  TYR280     -0.2718
     53  CB        21.1870  -36.6010   11.5790 C.3   280  TYR280      0.0548
     54  CG        21.7040  -35.5260   10.6570 C.ar  280  TYR280     -0.0200
     55  CD1       21.1940  -35.3780    9.3690 C.ar  280  TYR280     -0.0009
     56  CD2       22.6880  -34.6410   11.0810 C.ar  280  TYR280     -0.0009
     57  CE1       21.6560  -34.3750    8.5270 C.ar  280  TYR280      0.0417
     58  CE2       23.1550  -33.6370   10.2550 C.ar  280  TYR280      0.0417
     59  CZ        22.6410  -33.5080    8.9780 C.ar  280  TYR280      0.1957
     60  OH        23.1310  -32.5190    8.1570 O.3   280  TYR280     -0.2866
     61  N         18.2280  -35.6910   11.5740 N.am  281  SER281     -0.1952
     62  CA        17.1290  -34.9460   10.9850 C.3   281  SER281      0.1924
     63  C         15.7720  -35.2230   11.6550 C.2   281  SER281      0.2314
     64  O         15.2790  -36.3530   11.6710 O.2   281  SER281     -0.2863
     65  CB        17.0300  -35.2480    9.4910 C.3   281  SER281      0.2116
     66  OG        16.0060  -34.4720    8.9000 O.3   281  SER281     -0.2180
     67  N         14.9100   -9.5250   -0.3430 N.3   346  GLU346     -0.1231
     68  CA        16.0300   -9.2750   -1.2350 C.3   346  GLU346      0.1699
     69  C         15.9950  -10.1640   -2.4770 C.2   346  GLU346      0.2592
     70  O         16.7090   -9.9150   -3.4510 O.2   346  GLU346     -0.2718
     71  CB        17.3370   -9.4940   -0.4780 C.3   346  GLU346      0.0402
     72  CG        17.5030   -8.5860    0.7230 C.3   346  GLU346      0.1161
     73  CD        18.8380   -8.7650    1.4070 C.2   346  GLU346      0.3649
     74  OE1       19.0880   -8.0470    2.4000 O.co2 346  GLU346     -0.2457
     75  OE2       19.6330   -9.6210    0.9500 O.co2 346  GLU346     -0.2457
     76  N         15.1600  -11.1980   -2.4390 N.am  347  SER347     -0.1952
     77  CA        15.0480  -12.1320   -3.5510 C.3   347  SER347      0.1924
     78  C         13.8140  -11.8600   -4.3750 C.2   347  SER347      0.2314
     79  O         12.7140  -11.7800   -3.8410 O.2   347  SER347     -0.2863
     80  CB        14.9900  -13.5720   -3.0360 C.3   347  SER347      0.2116
     81  OG        14.9120  -14.4910   -4.1120 O.3   347  SER347     -0.2180
     82  N         12.5880  -13.9050   -6.7690 N.3   349  ASN349     -0.1225
     83  CA        11.7900  -15.1190   -6.8510 C.3   349  ASN349      0.1785
     84  C         10.9390  -15.1780   -5.6030 C.2   349  ASN349      0.2597
     85  O          9.7450  -15.4720   -5.6540 O.2   349  ASN349     -0.2718
     86  CB        12.6650  -16.3710   -6.9050 C.3   349  ASN349      0.1169
     87  CG        13.4200  -16.5110   -8.2190 C.2   349  ASN349      0.2627
     88  OD1       12.8840  -16.2420   -9.2980 O.2   349  ASN349     -0.2716
     89  ND2       14.6680  -16.9610   -8.1310 N.am  349  ASN349     -0.0877
     90  N         11.5630  -14.8720   -4.4750 N.am  350  SER350     -0.1952
     91  CA        10.8780  -14.9140   -3.2000 C.3   350  SER350      0.1924
     92  C          9.5990  -14.0820   -3.1880 C.2   350  SER350      0.2314
     93  O          8.5530  -14.5590   -2.7470 O.2   350  SER350     -0.2863
     94  CB        11.8280  -14.4670   -2.0990 C.3   350  SER350      0.2116
     95  OG        11.6080  -15.2360   -0.9320 O.3   350  SER350     -0.2180
@<TRIPOS>BOND
     1    13    12    2
     2     1     2    1
     3    12    11    1
     4     3     4    2
     5     3     2    1
     6    10    11    1
     7     2     5    1
     8    11    14    1
     9     5     6    1
    10     6     7    1
    11    14    15    1
    12    15    16    1
    13     9     7   am
    14     7     8    2
    15    16    17    1
    16    18    17    1
    17    88    87    2
    18    87    89   am
    19    87    86    1
    20    86    83    1
    21    83    82    1
    22    83    84    1
    23    85    84    2
    24    84    90   am
    25    90    91    1
    26    78    79    2
    27    78    77    1
    28    81    80    1
    29    77    80    1
    30    77    76    1
    31    70    69    2
    32    91    92    1
    33    91    94    1
    34    92    93    2
    35    69    76   am
    36    69    68    1
    37    94    95    1
    38    68    71    1
    39    68    67    1
    40    71    72    1
    41    72    73    1
    42    75    73   ar
    43    73    74   ar
    44    60    59    1
    45    57    59   ar
    46    57    55   ar
    47    66    65    1
    48    59    58   ar
    49    55    54   ar
    50    65    62    1
    51    58    56   ar
    52    54    56   ar
    53    54    53    1
    54    62    61    1
    55    62    63    1
    56    61    51   am
    57    53    50    1
    58    63    64    2
    59    51    52    2
    60    51    50    1
    61    26    25    1
    62    50    49    1
    63    48    46    1
    64    47    46    1
    65    25    24    1
    66    46    45    2
    67    35    33   ar
    68    35    37   ar
    69    24    23    1
    70    33    32   ar
    71    45    44    1
    72    37    36   ar
    73    19    20    1
    74    44    43    1
    75    23    20    1
    76    20    21    1
    77    32    34   ar
    78    32    31    1
    79    36    34   ar
    80    43    42    1
    81    31    28    1
    82    42    39    1
    83    21    22    2
    84    28    27    1
    85    28    29    1
    86    39    38    1
    87    39    40    1
    88    29    30    2
    89    40    41    2
