@<TRIPOS>MOLECULE
tmp/3hdlA03.pdb
 84 79 0 0 0
SMALL
GASTEIGER

@<TRIPOS>ATOM
      1  N         -2.1590   56.6050   28.7410 N.3    25  ALA25      -0.1245
      2  CA        -3.1900   57.0030   27.7910 C.3    25  ALA25       0.1562
      3  C         -4.2470   55.9080   27.6140 C.2    25  ALA25       0.2260
      4  O         -5.4240   56.2000   27.4310 O.2    25  ALA25      -0.2867
      5  CB        -2.5640   57.3690   26.4500 C.3    25  ALA25       0.0290
      6  N         -6.7600   55.8620   30.3180 N.3    28  ASN28      -0.1225
      7  CA        -7.6920   56.9600   30.0760 C.3    28  ASN28       0.1785
      8  C         -8.6880   56.6450   28.9560 C.2    28  ASN28       0.2597
      9  O         -9.8780   56.9490   29.0560 O.2    28  ASN28      -0.2718
     10  CB        -6.9050   58.2280   29.7310 C.3    28  ASN28       0.1169
     11  CG        -7.8000   59.4140   29.4320 C.2    28  ASN28       0.2627
     12  OD1       -8.6760   59.7660   30.2230 O.2    28  ASN28      -0.2716
     13  ND2       -7.5660   60.0510   28.2880 N.am   28  ASN28      -0.0877
     14  N         -8.1880   56.0300   27.8910 N.am   29  ASN29      -0.1974
     15  CA        -8.9930   55.7450   26.7090 C.3    29  ASN29       0.1688
     16  C         -8.4050   54.5530   25.9650 C.2    29  ASN29       0.2292
     17  O         -7.3410   54.6600   25.3620 O.2    29  ASN29      -0.2864
     18  CB        -9.0320   56.9800   25.8040 C.3    29  ASN29       0.1181
     19  CG        -9.6260   56.6960   24.4330 C.2    29  ASN29       0.2629
     20  OD1      -10.3800   55.7400   24.2490 O.2    29  ASN29      -0.2716
     21  ND2       -9.2890   57.5390   23.4610 N.am   29  ASN29      -0.0877
     22  N          2.1260   67.8650   10.8690 N.3    56  ASP56      -0.1239
     23  CA         0.9550   68.7170   10.6790 C.3    56  ASP56       0.1674
     24  C          1.0390   69.4260    9.3370 C.2    56  ASP56       0.2266
     25  O          2.1290   69.7490    8.8640 O.2    56  ASP56      -0.2867
     26  CB         0.8650   69.7740   11.7840 C.3    56  ASP56       0.1410
     27  CG         0.2820   69.2330   13.0750 C.2    56  ASP56       0.3668
     28  OD1       -0.6010   68.3500   13.0160 O.co2  56  ASP56      -0.2456
     29  OD2        0.6930   69.7110   14.1520 O.co2  56  ASP56      -0.2456
     30  N         -1.8380   63.8460    7.1680 N.3    65  LYS65      -0.1245
     31  CA        -2.9050   63.9630    8.1650 C.3    65  LYS65       0.1561
     32  C         -4.2510   64.3120    7.5540 C.2    65  LYS65       0.2260
     33  O         -5.2940   63.9080    8.0650 O.2    65  LYS65      -0.2867
     34  CB        -2.5640   65.0440    9.1990 C.3    65  LYS65       0.0271
     35  CG        -1.5890   64.6260   10.2710 C.3    65  LYS65       0.0035
     36  CD        -1.6900   65.5580   11.4700 C.3    65  LYS65       0.0206
     37  CE        -0.7500   65.1370   12.5820 C.3    65  LYS65       0.1093
     38  NZ        -1.0640   65.8580   13.8490 N.3    65  LYS65      -0.1314
     39  N        -10.9980   62.5100    9.5390 N.3    72  PRO72      -0.2116
     40  CA       -10.5200   62.6650   10.9160 C.3    72  PRO72       0.1372
     41  C        -10.2750   61.3500   11.6620 C.2    72  PRO72       0.2244
     42  O        -10.2270   61.3690   12.8920 O.2    72  PRO72      -0.2868
     43  CB       -11.7000   63.3710   11.5680 C.3    72  PRO72       0.0268
     44  CG       -12.8870   62.6600   10.9420 C.3    72  PRO72       0.0207
     45  CD       -12.4630   62.3400    9.5080 C.3    72  PRO72       0.0892
     46  N         -7.6860   59.0990   12.0120 N.3    74  LEU74      -0.1231
     47  CA        -6.4690   58.8190   12.7740 C.3    74  LEU74       0.1693
     48  C         -6.6140   59.3420   14.1950 C.2    74  LEU74       0.2591
     49  O         -7.1630   60.4200   14.4130 O.2    74  LEU74      -0.2718
     50  CB        -5.2260   59.4310   12.1150 C.3    74  LEU74       0.0284
     51  CG        -4.6880   58.7720   10.8410 C.3    74  LEU74       0.0019
     52  CD1       -3.4140   59.4730   10.3830 C.3    74  LEU74       0.0001
     53  CD2       -4.4220   57.2900   11.0640 C.3    74  LEU74       0.0001
     54  N         -6.1220   58.5790   15.1630 N.am   75  ARG75      -0.1980
     55  CA        -6.1590   59.0270   16.5500 C.3    75  ARG75       0.1597
     56  C         -4.9910   58.4660   17.3540 C.2    75  ARG75       0.2287
     57  O         -4.4660   57.3940   17.0420 O.2    75  ARG75      -0.2864
     58  CB        -7.5020   58.6720   17.2000 C.3    75  ARG75       0.0334
     59  CG        -7.8440   57.1840   17.1840 C.3    75  ARG75       0.0492
     60  CD        -9.2030   56.9230   17.8460 C.3    75  ARG75       0.2205
     61  NE        -9.6240   55.5250   17.7550 N.pl3  75  ARG75      -0.0865
     62  CZ       -10.4690   54.9500   18.6070 C.cat  75  ARG75       0.5346
     63  NH1      -10.9690   55.6530   19.6180 N.pl3  75  ARG75       0.1354
     64  NH2      -10.8080   53.6740   18.4590 N.pl3  75  ARG75       0.1354
     65  N         -2.4310   60.8290   18.3420 N.3    77  PHE77      -0.1227
     66  CA        -1.3420   61.7750   18.1300 C.3    77  PHE77       0.1736
     67  C         -0.8200   62.3150   19.4590 C.2    77  PHE77       0.2595
     68  O          0.3820   62.5230   19.6310 O.2    77  PHE77      -0.2718
     69  CB        -1.7980   62.9410   17.2490 C.3    77  PHE77       0.0547
     70  CG        -2.1150   62.5510   15.8300 C.ar   77  PHE77      -0.0202
     71  CD1       -1.1010   62.2210   14.9450 C.ar   77  PHE77      -0.0042
     72  CD2       -3.4260   62.5290   15.3790 C.ar   77  PHE77      -0.0042
     73  CE1       -1.3870   61.8690   13.6380 C.ar   77  PHE77      -0.0003
     74  CE2       -3.7190   62.1810   14.0710 C.ar   77  PHE77      -0.0003
     75  CZ        -2.6990   61.8460   13.2010 C.ar   77  PHE77      -0.0000
     76  N         -1.7350   62.5430   20.3970 N.am   78  GLU78      -0.1979
     77  CA        -1.3680   63.1210   21.6840 C.3    78  GLU78       0.1602
     78  C         -0.4990   62.1830   22.5170 C.2    78  GLU78       0.2287
     79  O          0.3200   62.6360   23.3100 O.2    78  GLU78      -0.2864
     80  CB        -2.6130   63.5330   22.4760 C.3    78  GLU78       0.0415
     81  CG        -2.2940   64.0060   23.8870 C.3    78  GLU78       0.1163
     82  CD        -1.2230   65.0860   23.9100 C.2    78  GLU78       0.3649
     83  OE1       -0.3100   65.0130   24.7670 O.co2  78  GLU78      -0.2457
     84  OE2       -1.2910   66.0010   23.0610 O.co2  78  GLU78      -0.2457
@<TRIPOS>BOND
     1    30    31    1
     2    32    33    2
     3    32    31    1
     4    31    34    1
     5    25    24    2
     6    34    35    1
     7    24    23    1
     8    45    39    1
     9    45    44    1
    10    39    40    1
    11    35    36    1
    12    52    51    1
    13    23    22    1
    14    23    26    1
    15    51    53    1
    16    51    50    1
    17    40    43    1
    18    40    41    1
    19    44    43    1
    20    36    37    1
    21    41    42    2
    22    26    27    1
    23    46    47    1
    24    50    47    1
    25    37    38    1
    26    47    48    1
    27    28    27   ar
    28    27    29   ar
    29    75    73   ar
    30    75    74   ar
    31    73    71   ar
    32    74    72   ar
    33    48    49    2
    34    48    54   am
    35    71    70   ar
    36    54    55    1
    37    72    70   ar
    38    70    69    1
    39    55    58    1
    40    55    56    1
    41    57    56    2
    42    59    58    1
    43    59    60    1
    44    69    66    1
    45    61    60    1
    46    61    62    2
    47    66    65    1
    48    66    67    1
    49    64    62    1
    50    62    63    1
    51    67    68    2
    52    67    76   am
    53    76    77    1
    54    77    80    1
    55    77    78    1
    56    80    81    1
    57    78    79    2
    58    84    82   ar
    59    21    19   am
    60    81    82    1
    61    82    83   ar
    62    20    19    2
    63    19    18    1
    64    17    16    2
    65    18    15    1
    66    16    15    1
    67     5     2    1
    68    15    14    1
    69     4     3    2
    70     3     2    1
    71     2     1    1
    72    14     8   am
    73    13    11   am
    74     8     9    2
    75     8     7    1
    76    11    10    1
    77    11    12    2
    78    10     7    1
    79     7     6    1
