@<TRIPOS>MOLECULE
tmp/3hdlA01.pdb
 83 82 0 0 0
SMALL
GASTEIGER

@<TRIPOS>ATOM
      1  N         -7.8310   61.6210    2.7810 N.3    68  ILE68      -0.1231
      2  CA        -9.1390   61.0060    2.9710 C.3    68  ILE68       0.1678
      3  C         -9.1360   59.8870    4.0210 C.2    68  ILE68       0.2434
      4  O         -9.9570   59.8940    4.9360 O.2    68  ILE68      -0.2733
      5  CB        -9.7070   60.4670    1.6360 C.3    68  ILE68       0.0265
      6  CG1       -9.8720   61.6070    0.6290 C.3    68  ILE68       0.0019
      7  CG2      -11.0220   59.7400    1.8640 C.3    68  ILE68       0.0020
      8  CD1      -10.7390   62.7410    1.1250 C.3    68  ILE68       0.0001
      9  N         -8.2180   58.9160    3.8930 N.am   69  PRO69      -0.2729
     10  CA        -8.2120   57.8200    4.8690 C.3    69  PRO69       0.1401
     11  C         -7.7890   58.2590    6.2760 C.2    69  PRO69       0.2269
     12  O         -8.0220   57.5150    7.2240 O.2    69  PRO69      -0.2865
     13  CB        -7.1690   56.8510    4.2900 C.3    69  PRO69       0.0296
     14  CG        -6.3040   57.7230    3.4130 C.3    69  PRO69       0.0237
     15  CD        -7.2890   58.6470    2.7820 C.3    69  PRO69       0.0939
     16  N         -7.9040   50.8240    0.2280 N.3   140  SER140     -0.1203
     17  CA        -9.3100   51.1540    0.4200 C.3   140  SER140      0.2005
     18  C        -10.0700   49.9430    0.9540 C.2   140  SER140      0.2461
     19  O         -9.7870   48.8150    0.5630 O.2   140  SER140     -0.2732
     20  CB        -9.9250   51.5940   -0.9150 C.3   140  SER140      0.2103
     21  OG       -11.3420   51.4980   -0.8900 O.3   140  SER140     -0.2182
     22  N        -11.0440   50.1720    1.8490 N.am  141  PRO141     -0.2717
     23  CA       -11.8710   49.0700    2.3550 C.3   141  PRO141      0.1535
     24  C        -12.7690   48.5050    1.2600 C.2   141  PRO141      0.2598
     25  O        -13.3850   47.4580    1.4500 O.2   141  PRO141     -0.2715
     26  CB       -12.7310   49.7490    3.4300 C.3   141  PRO141      0.0310
     27  CG       -12.7830   51.1890    2.9880 C.3   141  PRO141      0.0237
     28  CD       -11.3780   51.4430    2.5120 C.3   141  PRO141      0.0939
     29  N        -12.8410   49.1960    0.1240 N.am  142  LEU142     -0.1978
     30  CA       -13.6550   48.7410   -0.9970 C.3   142  LEU142      0.1596
     31  C        -12.8920   47.7540   -1.8840 C.2   142  LEU142      0.2287
     32  O        -13.4710   47.1550   -2.7900 O.2   142  LEU142     -0.2864
     33  CB       -14.1360   49.9350   -1.8320 C.3   142  LEU142      0.0297
     34  CG       -14.8480   51.0600   -1.0730 C.3   142  LEU142      0.0022
     35  CD1      -15.2240   52.2050   -2.0220 C.3   142  LEU142      0.0001
     36  CD2      -16.0800   50.5280   -0.3490 C.3   142  LEU142      0.0001
     37  N        -19.1680   55.4750    7.2010 N.3   177  SER177     -0.1202
     38  CA       -18.8880   55.6950    5.7830 C.3   177  SER177      0.2020
     39  C        -17.9570   54.6470    5.1690 C.2   177  SER177      0.2619
     40  O        -17.9140   54.4890    3.9470 O.2   177  SER177     -0.2717
     41  CB       -18.3120   57.0970    5.5670 C.3   177  SER177      0.2103
     42  OG       -17.1610   57.2980    6.3670 O.3   177  SER177     -0.2182
     43  N        -17.2140   53.9270    6.0060 N.am  178  SER178     -0.1951
     44  CA       -16.2720   52.9270    5.5150 C.3   178  SER178      0.1924
     45  C        -16.9600   51.6220    5.1070 C.2   178  SER178      0.2314
     46  O        -16.3530   50.7690    4.4550 O.2   178  SER178     -0.2863
     47  CB       -15.1760   52.6580    6.5520 C.3   178  SER178      0.2116
     48  OG       -14.3260   53.7860    6.7000 O.3   178  SER178     -0.2180
     49  N        -23.8760   59.0830    5.3790 N.3   212  SER212     -0.1202
     50  CA       -22.6780   59.1860    6.2140 C.3   212  SER212      0.2020
     51  C        -21.4470   59.5310    5.3840 C.2   212  SER212      0.2619
     52  O        -21.2680   59.0100    4.2810 O.2   212  SER212     -0.2717
     53  CB       -22.4160   57.8660    6.9500 C.3   212  SER212      0.2103
     54  OG       -23.3990   57.5980    7.9370 O.3   212  SER212     -0.2182
     55  N        -20.5990   60.4050    5.9210 N.am  213  THR213     -0.1938
     56  CA       -19.3040   60.7020    5.3130 C.3   213  THR213      0.2028
     57  C        -18.2150   60.4210    6.3460 C.2   213  THR213      0.2642
     58  O        -18.5140   60.0480    7.4760 O.2   213  THR213     -0.2714
     59  CB       -19.1950   62.1710    4.8690 C.3   213  THR213      0.1808
     60  OG1      -19.0280   63.0090    6.0210 O.3   213  THR213     -0.2208
     61  CG2      -20.4390   62.6020    4.0940 C.3   213  THR213      0.0379
     62  N        -16.9530   60.5970    5.9720 N.am  214  ARG214     -0.1963
     63  CA       -15.8480   60.3520    6.8970 C.3   214  ARG214      0.1729
     64  C        -15.9210   61.2660    8.1160 C.2   214  ARG214      0.2616
     65  O        -15.3110   60.9890    9.1470 O.2   214  ARG214     -0.2715
     66  CB       -14.4970   60.5170    6.1920 C.3   214  ARG214      0.0348
     67  CG       -14.1950   61.9370    5.7280 C.3   214  ARG214      0.0492
     68  CD       -13.0120   61.9530    4.7650 C.3   214  ARG214      0.2205
     69  NE       -12.9350   63.1940    3.9970 N.pl3 214  ARG214     -0.0865
     70  CZ       -12.0060   64.1280    4.1720 C.cat 214  ARG214      0.5346
     71  NH1      -11.0650   63.9650    5.0910 N.pl3 214  ARG214      0.1354
     72  NH2      -12.0130   65.2240    3.4260 N.pl3 214  ARG214      0.1354
     73  N        -16.6700   62.3610    7.9920 N.am  215  PHE215     -0.1974
     74  CA       -16.8000   63.3190    9.0870 C.3   215  PHE215      0.1639
     75  C        -18.0100   63.0410    9.9770 C.2   215  PHE215      0.2290
     76  O        -18.1740   63.6700   11.0230 O.2   215  PHE215     -0.2864
     77  CB       -16.8480   64.7590    8.5600 C.3   215  PHE215      0.0560
     78  CG       -15.5630   65.2120    7.9210 C.ar  215  PHE215     -0.0200
     79  CD1      -14.4400   65.4610    8.6940 C.ar  215  PHE215     -0.0042
     80  CD2      -15.4790   65.3890    6.5490 C.ar  215  PHE215     -0.0042
     81  CE1      -13.2530   65.8730    8.1100 C.ar  215  PHE215     -0.0003
     82  CE2      -14.2960   65.8040    5.9580 C.ar  215  PHE215     -0.0003
     83  CZ       -13.1820   66.0460    6.7390 C.ar  215  PHE215     -0.0000
@<TRIPOS>BOND
     1    32    31    2
     2    35    34    1
     3    31    30    1
     4    33    34    1
     5    33    30    1
     6    34    36    1
     7    30    29    1
     8    20    21    1
     9    20    17    1
    10    29    24   am
    11    16    17    1
    12    17    18    1
    13    19    18    2
    14     6     8    1
    15     6     5    1
    16    18    22   am
    17    24    25    2
    18    24    23    1
    19     5     7    1
    20     5     2    1
    21    22    23    1
    22    22    28    1
    23    23    26    1
    24    28    27    1
    25     1     2    1
    26    15    14    1
    27    15     9    1
    28     2     3    1
    29    27    26    1
    30    14    13    1
    31    72    70    1
    32     9     3   am
    33     9    10    1
    34    40    39    2
    35    69    70    2
    36    69    68    1
    37     3     4    2
    38    61    59    1
    39    70    71    1
    40    52    51    2
    41    13    10    1
    42    46    45    2
    43    68    67    1
    44    10    11    1
    45    59    56    1
    46    59    60    1
    47    45    44    1
    48    39    38    1
    49    39    43   am
    50    56    55    1
    51    56    57    1
    52    49    50    1
    53    51    55   am
    54    51    50    1
    55    44    43    1
    56    44    47    1
    57    41    38    1
    58    41    42    1
    59    67    66    1
    60    38    37    1
    61    82    80   ar
    62    82    83   ar
    63    62    57   am
    64    62    63    1
    65    66    63    1
    66    50    53    1
    67    11    12    2
    68    57    58    2
    69    80    78   ar
    70    47    48    1
    71    83    81   ar
    72    63    64    1
    73    53    54    1
    74    78    77    1
    75    78    79   ar
    76    73    64   am
    77    73    74    1
    78    81    79   ar
    79    64    65    2
    80    77    74    1
    81    74    75    1
    82    75    76    2
