@<TRIPOS>MOLECULE
tmp/3hdmA00.pdb
 173 164 0 0 0
SMALL
GASTEIGER

@<TRIPOS>ATOM
      1  N         43.9100   36.8530   60.0270 N.3    22  LYS22      -0.1245
      2  CA        42.7960   36.2990   59.2480 C.3    22  LYS22       0.1561
      3  C         41.4460   36.4800   59.9480 C.2    22  LYS22       0.2260
      4  O         41.3900   36.9030   61.1060 O.2    22  LYS22      -0.2867
      5  CB        43.0410   34.8160   58.9230 C.3    22  LYS22       0.0271
      6  CG        42.9630   33.8660   60.1150 C.3    22  LYS22       0.0035
      7  CD        43.0520   32.4120   59.6660 C.3    22  LYS22       0.0206
      8  CE        42.7450   31.4530   60.8120 C.3    22  LYS22       0.1093
      9  NZ        42.8400   30.0230   60.3950 N.3    22  LYS22      -0.1314
     10  N         38.4870   34.9900   61.8520 N.3    24  ILE24      -0.1231
     11  CA        38.2080   33.8250   62.6920 C.3    24  ILE24       0.1692
     12  C         36.7740   33.3190   62.5170 C.2    24  ILE24       0.2593
     13  O         36.5590   32.1260   62.2960 O.2    24  ILE24      -0.2718
     14  CB        38.4900   34.1260   64.1910 C.3    24  ILE24       0.0266
     15  CG1       39.9530   33.8410   64.5320 C.3    24  ILE24       0.0019
     16  CG2       37.5820   33.3060   65.1000 C.3    24  ILE24       0.0020
     17  CD1       40.3100   34.1350   65.9830 C.3    24  ILE24       0.0001
     18  N         35.8030   34.2250   62.6220 N.am   25  GLY25      -0.1942
     19  CA        34.3930   33.8500   62.5500 C.3    25  GLY25       0.2014
     20  C         33.4210   35.0060   62.6780 C.2    25  GLY25       0.2639
     21  O         33.8240   36.1620   62.8440 O.2    25  GLY25      -0.2714
     22  N         32.1330   34.6820   62.5850 N.am   26  LYS26      -0.1963
     23  CA        31.0550   35.6660   62.6840 C.3    26  LYS26       0.1728
     24  C         29.9000   35.0900   63.5030 C.2    26  LYS26       0.2616
     25  O         29.4440   33.9740   63.2460 O.2    26  LYS26      -0.2715
     26  CB        30.5650   36.0860   61.2890 C.3    26  LYS26       0.0311
     27  CG        31.6480   36.6810   60.3770 C.3    26  LYS26       0.0038
     28  CD        31.0830   37.2350   59.0760 C.3    26  LYS26       0.0206
     29  CE        30.6420   38.6860   59.2290 C.3    26  LYS26       0.1093
     30  NZ        30.1930   39.2720   57.9360 N.3    26  LYS26      -0.1314
     31  N         29.4450   35.8480   64.4990 N.am   27  GLY27      -0.1955
     32  CA        28.3030   35.4440   65.3240 C.3    27  GLY27       0.1869
     33  C         27.0040   35.8210   64.6430 C.2    27  GLY27       0.2309
     34  O         26.7860   35.4750   63.4810 O.2    27  GLY27      -0.2863
     35  N         26.2070   39.1590   64.8080 N.3    29  PHE29      -0.1241
     36  CA        26.5770   40.5310   64.4530 C.3    29  PHE29       0.1605
     37  C         28.0960   40.7180   64.4860 C.2    29  PHE29       0.2264
     38  O         28.7860   40.1040   65.3060 O.2    29  PHE29      -0.2867
     39  CB        25.8830   41.5470   65.3760 C.3    29  PHE29       0.0534
     40  CG        25.7520   41.0920   66.8110 C.ar   29  PHE29      -0.0203
     41  CD1       26.8360   41.1590   67.6870 C.ar   29  PHE29      -0.0042
     42  CD2       24.5360   40.6080   67.2900 C.ar   29  PHE29      -0.0042
     43  CE1       26.7160   40.7350   69.0160 C.ar   29  PHE29      -0.0003
     44  CE2       24.4030   40.1830   68.6170 C.ar   29  PHE29      -0.0003
     45  CZ        25.4950   40.2470   69.4810 C.ar   29  PHE29      -0.0000
     46  N         34.9170   38.5360   63.9210 N.3    32  VAL32      -0.1245
     47  CA        36.0210   38.2270   64.8300 C.3    32  VAL32       0.1561
     48  C         37.2840   37.9330   64.0270 C.2    32  VAL32       0.2260
     49  O         37.2490   37.1810   63.0490 O.2    32  VAL32      -0.2867
     50  CB        35.6830   37.0410   65.7690 C.3    32  VAL32       0.0252
     51  CG1       36.8680   36.6900   66.6650 C.3    32  VAL32       0.0019
     52  CG2       34.4630   37.3670   66.6130 C.3    32  VAL32       0.0019
     53  N         41.9410   37.1550   70.0270 N.3    45  ALA45      -0.1245
     54  CA        40.7810   37.2260   69.1530 C.3    45  ALA45       0.1562
     55  C         40.1320   38.5930   69.3350 C.2    45  ALA45       0.2260
     56  O         39.6840   38.9400   70.4320 O.2    45  ALA45      -0.2867
     57  CB        39.8000   36.1160   69.4700 C.3    45  ALA45       0.0290
     58  N         37.1230   40.9320   68.3730 N.3    47  LYS47      -0.1245
     59  CA        35.8130   41.1830   67.7960 C.3    47  LYS47       0.1561
     60  C         35.7380   42.6490   67.3920 C.2    47  LYS47       0.2260
     61  O         36.0970   43.5460   68.1650 O.2    47  LYS47      -0.2867
     62  CB        34.6880   40.8280   68.7710 C.3    47  LYS47       0.0271
     63  CG        33.2900   40.9720   68.1720 C.3    47  LYS47       0.0035
     64  CD        32.2580   40.1610   68.9400 C.3    47  LYS47       0.0206
     65  CE        30.8600   40.3310   68.3630 C.3    47  LYS47       0.1093
     66  NZ        30.7480   39.8350   66.9630 N.3    47  LYS47      -0.1314
     67  N         34.7580   33.2310   78.0590 N.3    67  VAL67      -0.1245
     68  CA        35.9740   33.7900   77.4480 C.3    67  VAL67       0.1561
     69  C         36.3560   35.1320   78.0730 C.2    67  VAL67       0.2260
     70  O         35.5110   36.0070   78.2420 O.2    67  VAL67      -0.2867
     71  CB        35.8800   33.8760   75.8910 C.3    67  VAL67       0.0252
     72  CG1       35.0140   35.0530   75.4320 C.3    67  VAL67       0.0019
     73  CG2       37.2690   33.9310   75.2800 C.3    67  VAL67       0.0019
     74  N         39.9650   39.6620   73.2570 N.3    83  LEU83      -0.1231
     75  CA        39.6080   38.4580   74.0060 C.3    83  LEU83       0.1693
     76  C         40.7610   37.4530   74.0050 C.2    83  LEU83       0.2592
     77  O         41.7130   37.6040   73.2380 O.2    83  LEU83      -0.2718
     78  CB        38.3590   37.8210   73.3870 C.3    83  LEU83       0.0284
     79  CG        37.1830   38.7420   73.0250 C.3    83  LEU83       0.0019
     80  CD1       36.2420   38.0740   72.0470 C.3    83  LEU83       0.0001
     81  CD2       36.4230   39.2140   74.2550 C.3    83  LEU83       0.0001
     82  N         40.6850   36.4390   74.8700 N.am   84  ASP84      -0.1960
     83  CA        41.6220   35.3080   74.8260 C.3    84  ASP84       0.1840
     84  C         41.4540   34.5760   73.5020 C.2    84  ASP84       0.2622
     85  O         40.3270   34.3830   73.0390 O.2    84  ASP84      -0.2715
     86  CB        41.3380   34.2870   75.9390 C.3    84  ASP84       0.1450
     87  CG        41.5190   34.8460   77.3340 C.2    84  ASP84       0.3671
     88  OD1       42.4690   35.6210   77.5760 O.co2  84  ASP84      -0.2456
     89  OD2       40.7070   34.4740   78.2060 O.co2  84  ASP84      -0.2456
     90  N         42.5630   34.1630   72.8980 N.am   85  TYR85      -0.1960
     91  CA        42.4840   33.2800   71.7470 C.3    85  TYR85       0.1771
     92  C         42.3850   31.8490   72.2380 C.2    85  TYR85       0.2619
     93  O         43.3030   31.3510   72.8830 O.2    85  TYR85      -0.2715
     94  CB        43.6890   33.4410   70.8180 C.3    85  TYR85       0.0574
     95  CG        43.6350   32.4810   69.6520 C.ar   85  TYR85      -0.0198
     96  CD1       42.7930   32.7240   68.5680 C.ar   85  TYR85      -0.0009
     97  CD2       44.3990   31.3130   69.6490 C.ar   85  TYR85      -0.0009
     98  CE1       42.7230   31.8370   67.5010 C.ar   85  TYR85       0.0417
     99  CE2       44.3360   30.4180   68.5880 C.ar   85  TYR85       0.0417
    100  CZ        43.4970   30.6870   67.5160 C.ar   85  TYR85       0.1957
    101  OH        43.4280   29.8080   66.4590 O.3    85  TYR85      -0.2866
    102  N         41.2700   31.1930   71.9260 N.am   86  ILE86      -0.1977
    103  CA        41.0030   29.8390   72.4240 C.3    86  ILE86       0.1596
    104  C         41.3310   28.7960   71.3550 C.2    86  ILE86       0.2287
    105  O         40.6540   28.7110   70.3270 O.2    86  ILE86      -0.2864
    106  CB        39.5390   29.6860   72.9210 C.3    86  ILE86       0.0276
    107  CG1       39.1610   30.8160   73.8900 C.3    86  ILE86       0.0022
    108  CG2       39.3240   28.3240   73.5630 C.3    86  ILE86       0.0022
    109  CD1       40.0240   30.8940   75.1510 C.3    86  ILE86       0.0001
    110  N         40.0280   24.1380   69.9640 N.3    89  GLY89      -0.1210
    111  CA        39.0650   23.7420   68.9430 C.3    89  GLY89       0.1956
    112  C         37.6310   23.9000   69.4070 C.2    89  GLY89       0.2611
    113  O         37.3550   23.9020   70.6090 O.2    89  GLY89      -0.2717
    114  N         36.7140   24.0300   68.4540 N.am   90  GLU90      -0.1979
    115  CA        35.2910   24.0710   68.7670 C.3    90  GLU90       0.1602
    116  C         34.8710   22.7220   69.3340 C.2    90  GLU90       0.2287
    117  O         35.3590   21.6750   68.8900 O.2    90  GLU90      -0.2864
    118  CB        34.4790   24.4030   67.5190 C.3    90  GLU90       0.0415
    119  CG        34.8720   25.7230   66.8910 C.3    90  GLU90       0.1163
    120  CD        34.5430   25.8080   65.4180 C.2    90  GLU90       0.3649
    121  OE1       33.3400   25.8090   65.0640 O.co2  90  GLU90      -0.2457
    122  OE2       35.4970   25.8880   64.6120 O.co2  90  GLU90      -0.2457
    123  N         28.4460   26.9700   67.7970 N.3   133  GLU133     -0.1231
    124  CA        29.5250   27.8690   67.3730 C.3   133  GLU133      0.1699
    125  C         30.0600   28.7220   68.5310 C.2   133  GLU133      0.2592
    126  O         31.1370   29.3110   68.4270 O.2   133  GLU133     -0.2718
    127  CB        29.0640   28.7650   66.2200 C.3   133  GLU133      0.0402
    128  CG        28.0380   29.8090   66.6220 C.3   133  GLU133      0.1161
    129  CD        27.6530   30.7300   65.4870 C.2   133  GLU133      0.3649
    130  OE1       27.5930   31.9580   65.7220 O.co2 133  GLU133     -0.2457
    131  OE2       27.4060   30.2330   64.3640 O.co2 133  GLU133     -0.2457
    132  N         29.2900   28.7820   69.6180 N.am  134  ASN134     -0.1974
    133  CA        29.6580   29.5300   70.8200 C.3   134  ASN134      0.1688
    134  C         30.4420   28.6840   71.8140 C.2   134  ASN134      0.2292
    135  O         30.9240   29.2020   72.8200 O.2   134  ASN134     -0.2864
    136  CB        28.4060   30.0800   71.5230 C.3   134  ASN134      0.1181
    137  CG        27.6170   31.0660   70.6610 C.2   134  ASN134      0.2629
    138  OD1       26.3870   31.0980   70.7210 O.2   134  ASN134     -0.2716
    139  ND2       28.3200   31.8770   69.8670 N.am  134  ASN134     -0.0877
    140  N         33.5360   26.4350   72.7530 N.3   136  LEU136     -0.1245
    141  CA        34.9120   26.0610   72.4450 C.3   136  LEU136      0.1561
    142  C         35.5430   25.3050   73.6100 C.2   136  LEU136      0.2260
    143  O         35.0060   25.3060   74.7170 O.2   136  LEU136     -0.2867
    144  CB        35.7500   27.3090   72.1230 C.3   136  LEU136      0.0270
    145  CG        35.2820   28.3770   71.1210 C.3   136  LEU136      0.0019
    146  CD1       36.2770   29.5180   71.0870 C.3   136  LEU136      0.0001
    147  CD2       35.0950   27.8300   69.7180 C.3   136  LEU136      0.0001
    148  N         31.7920   31.8340   74.2160 N.3   146  THR146     -0.1203
    149  CA        32.3110   33.0470   73.5410 C.3   146  THR146      0.1994
    150  C         31.6260   34.3780   73.8810 C.2   146  THR146      0.2618
    151  O         32.0940   35.4330   73.4550 O.2   146  THR146     -0.2717
    152  CB        32.3510   32.9050   71.9910 C.3   146  THR146      0.1784
    153  OG1       31.0370   32.6310   71.4930 O.3   146  THR146     -0.2211
    154  CG2       33.3070   31.8050   71.5610 C.3   146  THR146      0.0376
    155  N         30.5250   34.3310   74.6280 N.am  147  ASP147     -0.1959
    156  CA        29.8380   35.5470   75.0840 C.3   147  ASP147      0.1840
    157  C         30.6940   36.2650   76.1280 C.2   147  ASP147      0.2622
    158  O         31.1430   35.6540   77.1070 O.2   147  ASP147     -0.2715
    159  CB        28.4560   35.2020   75.6580 C.3   147  ASP147      0.1450
    160  CG        27.7830   36.3820   76.3440 C.2   147  ASP147      0.3671
    161  OD1       27.8270   36.4530   77.5960 O.co2 147  ASP147     -0.2456
    162  OD2       27.2080   37.2380   75.6410 O.co2 147  ASP147     -0.2456
    163  N         30.9210   37.5570   75.9080 N.am  148  PHE148     -0.1974
    164  CA        31.7510   38.3520   76.8090 C.3   148  PHE148      0.1639
    165  C         31.0280   39.5630   77.4020 C.2   148  PHE148      0.2290
    166  O         31.6460   40.3870   78.0700 O.2   148  PHE148     -0.2864
    167  CB        33.0710   38.7580   76.1320 C.3   148  PHE148      0.0560
    168  CG        32.8980   39.5800   74.8850 C.ar  148  PHE148     -0.0200
    169  CD1       32.9370   40.9700   74.9400 C.ar  148  PHE148     -0.0042
    170  CD2       32.7190   38.9660   73.6500 C.ar  148  PHE148     -0.0042
    171  CE1       32.7870   41.7350   73.7860 C.ar  148  PHE148     -0.0003
    172  CE2       32.5690   39.7210   72.4930 C.ar  148  PHE148     -0.0003
    173  CZ        32.6060   41.1080   72.5600 C.ar  148  PHE148     -0.0000
@<TRIPOS>BOND
     1    30    29    1
     2     5     2    1
     3     5     6    1
     4    28    29    1
     5    28    27    1
     6     2     3    1
     7     2     1    1
     8     7     6    1
     9     7     8    1
    10     3     4    2
    11    27    26    1
    12     9     8    1
    13    26    23    1
    14    10    11    1
    15    13    12    2
    16    12    18   am
    17    12    11    1
    18    19    18    1
    19    19    20    1
    20    22    20   am
    21    22    23    1
    22    20    21    2
    23    23    24    1
    24    11    14    1
    25    49    48    2
    26    25    24    2
    27    34    33    2
    28    24    31   am
    29    46    47    1
    30    48    47    1
    31    14    15    1
    32    14    16    1
    33   131   129   ar
    34    36    37    1
    35    36    35    1
    36    36    39    1
    37    37    38    2
    38    31    32    1
    39    15    17    1
    40   122   120   ar
    41    33    32    1
    42    47    50    1
    43   121   120   ar
    44    39    40    1
    45   120   119    1
    46   129   130   ar
    47   129   128    1
    48    50    52    1
    49    50    51    1
    50   127   128    1
    51   127   124    1
    52   101   100    1
    53    40    42   ar
    54    40    41   ar
    55   119   118    1
    56    66    65    1
    57    42    44   ar
    58   124   123    1
    59   124   125    1
    60    60    59    1
    61    60    61    2
    62    98   100   ar
    63    98    96   ar
    64   100    99   ar
    65   118   115    1
    66    41    43   ar
    67    59    58    1
    68    59    62    1
    69    63    62    1
    70    63    64    1
    71    65    64    1
    72   126   125    2
    73   114   115    1
    74   114   112   am
    75   125   132   am
    76    96    95   ar
    77    99    97   ar
    78    44    45   ar
    79   115   116    1
    80   117   116    2
    81   111   112    1
    82   111   110    1
    83    43    45   ar
    84    54    55    1
    85    54    57    1
    86    54    53    1
    87    55    56    2
    88   112   113    2
    89   132   133    1
    90    97    95   ar
    91    95    94    1
    92   147   145    1
    93   139   137   am
    94   105   104    2
    95   137   138    2
    96   137   136    1
    97    94    91    1
    98   133   136    1
    99   133   134    1
   100   146   145    1
   101   145   144    1
   102   104   103    1
   103   153   152    1
   104   154   152    1
   105    91    92    1
   106    91    90    1
   107   134   135    2
   108   102    92   am
   109   102   103    1
   110   152   149    1
   111    80    79    1
   112   144   141    1
   113    92    93    2
   114   103   106    1
   115   141   140    1
   116   141   142    1
   117   172   173   ar
   118   172   170   ar
   119   173   171   ar
   120    90    84   am
   121   106   108    1
   122   106   107    1
   123    79    78    1
   124    79    81    1
   125    85    84    2
   126    77    76    2
   127    74    75    1
   128    78    75    1
   129   151   150    2
   130    84    83    1
   131   149   150    1
   132   149   148    1
   133   142   143    2
   134   170   168   ar
   135   171   169   ar
   136   150   155   am
   137   107   109    1
   138    76    75    1
   139    76    82   am
   140   155   156    1
   141    83    82    1
   142    83    86    1
   143   168   169   ar
   144   168   167    1
   145   156   159    1
   146   156   157    1
   147    73    71    1
   148    72    71    1
   149   162   160   ar
   150   159   160    1
   151    71    68    1
   152   163   157   am
   153   163   164    1
   154    86    87    1
   155   157   158    2
   156   167   164    1
   157   160   161   ar
   158   164   165    1
   159    87    88   ar
   160    87    89   ar
   161   165   166    2
   162    68    67    1
   163    68    69    1
   164    69    70    2
