@<TRIPOS>MOLECULE
tmp/3hdnA00.pdb
 183 174 0 0 0
SMALL
GASTEIGER

@<TRIPOS>ATOM
      1  N         44.8720   35.9370   60.2520 N.3    21  LYS21      -0.1245
      2  CA        43.7910   35.3400   59.4640 C.3    21  LYS21       0.1561
      3  C         42.4250   35.5750   60.1090 C.2    21  LYS21       0.2260
      4  O         42.3400   35.9570   61.2790 O.2    21  LYS21      -0.2867
      5  CB        44.0360   33.8370   59.2530 C.3    21  LYS21       0.0271
      6  CG        44.0590   33.0070   60.5330 C.3    21  LYS21       0.0035
      7  CD        44.1360   31.5180   60.2350 C.3    21  LYS21       0.0206
      8  CE        44.0670   30.7000   61.5160 C.3    21  LYS21       0.1093
      9  NZ        44.1080   29.2350   61.2510 N.3    21  LYS21      -0.1314
     10  N         39.1470   34.4080   61.8510 N.3    23  ILE23      -0.1231
     11  CA        38.7320   33.2950   62.7050 C.3    23  ILE23       0.1696
     12  C         37.2950   32.8560   62.4040 C.2    23  ILE23       0.2632
     13  O         37.0550   31.6850   62.1040 O.2    23  ILE23      -0.2714
     14  CB        38.9190   33.6220   64.2140 C.3    23  ILE23       0.0266
     15  CG1       40.3890   33.4510   64.6140 C.3    23  ILE23       0.0019
     16  CG2       38.0330   32.7320   65.0820 C.3    23  ILE23       0.0020
     17  CD1       40.6920   33.7890   66.0690 C.3    23  ILE23       0.0001
     18  N         36.3510   33.7940   62.4760 N.am   24  GLY24      -0.1718
     19  CA        34.9420   33.4790   62.2490 C.2    24  GLY24       0.1480
     20  C         34.0130   34.6770   62.2270 C.2    24  GLY24       0.2820
     21  O         34.0720   35.5410   63.1060 O.2    24  GLY24      -0.2669
     22  N         33.1510   34.7180   61.2130 N.am   25  LYS25      -0.1929
     23  CA        32.1260   35.7510   61.0870 C.3    25  LYS25       0.1731
     24  C         30.8390   35.2970   61.7750 C.2    25  LYS25       0.2617
     25  O         30.2610   34.2610   61.4170 O.2    25  LYS25      -0.2715
     26  CB        31.8430   36.0640   59.6120 C.3    25  LYS25       0.0312
     27  CG        32.9910   36.7230   58.8580 C.3    25  LYS25       0.0038
     28  CD        32.6700   36.8210   57.3730 C.3    25  LYS25       0.0206
     29  CE        33.8440   37.3740   56.5790 C.3    25  LYS25       0.1093
     30  NZ        33.5720   37.3610   55.1140 N.3    25  LYS25      -0.1314
     31  N         30.4010   36.0750   62.7660 N.am   26  GLY26      -0.1940
     32  CA        29.1510   35.8000   63.4730 C.3    26  GLY26       0.2014
     33  C         28.0460   36.7730   63.1060 C.2    26  GLY26       0.2640
     34  O         28.1050   37.4360   62.0610 O.2    26  GLY26      -0.2714
     35  N         27.0340   36.8530   63.9710 N.am   27  SER27      -0.1935
     36  CA        25.9020   37.7560   63.7640 C.3    27  SER27       0.2055
     37  C         26.2440   39.1980   64.1340 C.2    27  SER27       0.2643
     38  O         25.6770   40.1400   63.5750 O.2    27  SER27      -0.2714
     39  CB        24.6880   37.2880   64.5700 C.3    27  SER27       0.2130
     40  OG        24.2450   36.0150   64.1350 O.3    27  SER27      -0.2179
     41  N         27.1730   39.3610   65.0730 N.am   28  PHE28      -0.1959
     42  CA        27.5050   40.6760   65.6190 C.3    28  PHE28       0.1771
     43  C         28.9410   41.1000   65.2860 C.2    28  PHE28       0.2620
     44  O         29.6500   41.6590   66.1320 O.2    28  PHE28      -0.2715
     45  CB        27.2440   40.7050   67.1350 C.3    28  PHE28       0.0574
     46  CG        25.9400   40.0620   67.5400 C.ar   28  PHE28      -0.0200
     47  CD1       24.7270   40.7120   67.3230 C.ar   28  PHE28      -0.0042
     48  CD2       25.9270   38.7980   68.1290 C.ar   28  PHE28      -0.0042
     49  CE1       23.5190   40.1200   67.6900 C.ar   28  PHE28      -0.0003
     50  CE2       24.7230   38.1940   68.4990 C.ar   28  PHE28      -0.0003
     51  CZ        23.5160   38.8570   68.2770 C.ar   28  PHE28      -0.0000
     52  N         29.3560   40.8360   64.0460 N.am   29  GLY29      -0.1954
     53  CA        30.6720   41.2460   63.5560 C.3    29  GLY29       0.1869
     54  C         31.5730   40.1020   63.1260 C.2    29  GLY29       0.2309
     55  O         31.1020   38.9710   62.8910 O.2    29  GLY29      -0.2863
     56  N         35.4050   37.9820   63.8250 N.3    31  VAL31      -0.1245
     57  CA        36.4730   37.6380   64.7660 C.3    31  VAL31       0.1561
     58  C         37.7420   37.3030   63.9820 C.2    31  VAL31       0.2260
     59  O         37.7000   36.5430   63.0120 O.2    31  VAL31      -0.2867
     60  CB        36.0710   36.4590   65.6940 C.3    31  VAL31       0.0252
     61  CG1       37.1850   36.1350   66.6830 C.3    31  VAL31       0.0019
     62  CG2       34.7800   36.7770   66.4400 C.3    31  VAL31       0.0019
     63  N         42.2170   36.6590   70.1510 N.3    44  ALA44      -0.1245
     64  CA        41.0650   36.6680   69.2650 C.3    44  ALA44       0.1562
     65  C         40.3920   38.0320   69.3820 C.2    44  ALA44       0.2260
     66  O         39.8840   38.3930   70.4460 O.2    44  ALA44      -0.2867
     67  CB        40.1030   35.5520   69.6300 C.3    44  ALA44       0.0290
     68  N         37.4770   40.5200   68.2060 N.3    46  LYS46      -0.1245
     69  CA        36.1730   40.7040   67.5810 C.3    46  LYS46       0.1561
     70  C         35.9670   42.1750   67.2290 C.2    46  LYS46       0.2260
     71  O         36.0310   43.0500   68.0980 O.2    46  LYS46      -0.2867
     72  CB        35.0560   40.1990   68.5010 C.3    46  LYS46       0.0271
     73  CG        33.6670   40.1810   67.8700 C.3    46  LYS46       0.0035
     74  CD        32.6460   39.5620   68.8170 C.3    46  LYS46       0.0206
     75  CE        31.2190   39.7350   68.3160 C.3    46  LYS46       0.1093
     76  NZ        30.9310   38.9250   67.0990 N.3    46  LYS46      -0.1314
     77  N         34.7010   33.1210   78.1310 N.3    66  VAL66      -0.1245
     78  CA        35.9120   33.6850   77.5300 C.3    66  VAL66       0.1561
     79  C         36.2700   35.0310   78.1770 C.2    66  VAL66       0.2260
     80  O         35.3930   35.8530   78.4560 O.2    66  VAL66      -0.2867
     81  CB        35.8110   33.7670   75.9710 C.3    66  VAL66       0.0252
     82  CG1       34.9270   34.9260   75.5140 C.3    66  VAL66       0.0019
     83  CG2       37.1950   33.8390   75.3390 C.3    66  VAL66       0.0019
     84  N         39.8970   39.3910   73.0880 N.3    82  LEU82      -0.1231
     85  CA        39.5060   38.2120   73.8600 C.3    82  LEU82       0.1693
     86  C         40.6360   37.1850   73.9260 C.2    82  LEU82       0.2592
     87  O         41.6240   37.2910   73.1950 O.2    82  LEU82      -0.2718
     88  CB        38.2540   37.5660   73.2480 C.3    82  LEU82       0.0284
     89  CG        37.0680   38.4430   72.8250 C.3    82  LEU82       0.0019
     90  CD1       36.0690   37.6340   72.0070 C.3    82  LEU82       0.0001
     91  CD2       36.3840   39.0950   74.0240 C.3    82  LEU82       0.0001
     92  N         40.4850   36.2020   74.8130 N.am   83  ASP83      -0.1960
     93  CA        41.3750   35.0440   74.8540 C.3    83  ASP83       0.1840
     94  C         41.2750   34.2750   73.5450 C.2    83  ASP83       0.2622
     95  O         40.1730   34.0390   73.0400 O.2    83  ASP83      -0.2715
     96  CB        40.9900   34.1010   76.0000 C.3    83  ASP83       0.1450
     97  CG        41.4390   34.6020   77.3580 C.2    83  ASP83       0.3671
     98  OD1       42.5850   35.0830   77.4790 O.co2  83  ASP83      -0.2456
     99  OD2       40.6450   34.4900   78.3150 O.co2  83  ASP83      -0.2456
    100  N         42.4190   33.8900   72.9900 N.am   84  TYR84      -0.1960
    101  CA        42.4160   32.9980   71.8410 C.3    84  TYR84       0.1771
    102  C         42.2990   31.5590   72.3250 C.2    84  TYR84       0.2619
    103  O         43.2700   30.9710   72.8080 O.2    84  TYR84      -0.2715
    104  CB        43.6580   33.1850   70.9650 C.3    84  TYR84       0.0574
    105  CG        43.7700   32.1460   69.8700 C.ar   84  TYR84      -0.0198
    106  CD1       42.8410   32.0990   68.8280 C.ar   84  TYR84      -0.0009
    107  CD2       44.7940   31.2000   69.8810 C.ar   84  TYR84      -0.0009
    108  CE1       42.9330   31.1400   67.8220 C.ar   84  TYR84       0.0417
    109  CE2       44.8980   30.2390   68.8780 C.ar   84  TYR84       0.0417
    110  CZ        43.9630   30.2130   67.8540 C.ar   84  TYR84       0.1957
    111  OH        44.0590   29.2630   66.8600 O.3    84  TYR84      -0.2866
    112  N         41.0940   31.0090   72.2030 N.am   85  ILE85      -0.1963
    113  CA        40.8120   29.6430   72.6270 C.3    85  ILE85       0.1727
    114  C         41.1490   28.6900   71.4800 C.2    85  ILE85       0.2616
    115  O         40.4620   28.6690   70.4580 O.2    85  ILE85      -0.2715
    116  CB        39.3350   29.4890   73.0800 C.3    85  ILE85       0.0290
    117  CG1       38.9680   30.5400   74.1410 C.3    85  ILE85       0.0022
    118  CG2       39.0600   28.0810   73.5820 C.3    85  ILE85       0.0023
    119  CD1       39.7980   30.4920   75.4300 C.3    85  ILE85       0.0001
    120  N         42.2110   27.9070   71.6600 N.am   86  ASN86      -0.1972
    121  CA        42.8040   27.1380   70.5610 C.3    86  ASN86       0.1688
    122  C         42.4370   25.6580   70.4930 C.2    86  ASN86       0.2292
    123  O         42.7310   24.9930   69.4950 O.2    86  ASN86      -0.2864
    124  CB        44.3310   27.2970   70.5610 C.3    86  ASN86       0.1181
    125  CG        44.9770   26.8110   71.8480 C.2    86  ASN86       0.2629
    126  OD1       44.3050   26.5930   72.8600 O.2    86  ASN86      -0.2716
    127  ND2       46.2960   26.6450   71.8160 N.am   86  ASN86      -0.0877
    128  N         39.8160   24.2480   69.8680 N.3    88  GLY88      -0.1210
    129  CA        38.8710   23.9640   68.7920 C.3    88  GLY88       0.1956
    130  C         37.4430   23.8620   69.2860 C.2    88  GLY88       0.2611
    131  O         37.2040   23.6270   70.4740 O.2    88  GLY88      -0.2717
    132  N         36.4970   24.0420   68.3660 N.am   89  GLU89      -0.1979
    133  CA        35.0710   23.9480   68.6750 C.3    89  GLU89       0.1602
    134  C         34.7330   22.5690   69.2230 C.2    89  GLU89       0.2287
    135  O         35.2170   21.5590   68.7090 O.2    89  GLU89      -0.2864
    136  CB        34.2300   24.2220   67.4260 C.3    89  GLU89       0.0415
    137  CG        34.4080   25.6110   66.8350 C.3    89  GLU89       0.1163
    138  CD        33.6370   25.8080   65.5440 C.2    89  GLU89       0.3649
    139  OE1       32.4440   25.4380   65.4860 O.co2  89  GLU89      -0.2457
    140  OE2       34.2280   26.3430   64.5840 O.co2  89  GLU89      -0.2457
    141  N         28.4620   26.8500   67.8920 N.3   132  GLU132     -0.1231
    142  CA        29.5380   27.7550   67.4820 C.3   132  GLU132      0.1699
    143  C         29.9850   28.6700   68.6260 C.2   132  GLU132      0.2592
    144  O         31.0240   29.3290   68.5340 O.2   132  GLU132     -0.2718
    145  CB        29.1190   28.5870   66.2620 C.3   132  GLU132      0.0402
    146  CG        28.0390   29.6360   66.5410 C.3   132  GLU132      0.1161
    147  CD        27.6630   30.4580   65.3140 C.2   132  GLU132      0.3649
    148  OE1       26.9280   31.4550   65.4760 O.co2 132  GLU132     -0.2457
    149  OE2       28.0950   30.1140   64.1920 O.co2 132  GLU132     -0.2457
    150  N         29.1870   28.7110   69.6920 N.am  133  ASN133     -0.1974
    151  CA        29.5240   29.4720   70.8920 C.3   133  ASN133      0.1688
    152  C         30.2250   28.6150   71.9410 C.2   133  ASN133      0.2292
    153  O         30.5770   29.1080   73.0120 O.2   133  ASN133     -0.2864
    154  CB        28.2710   30.1060   71.5080 C.3   133  ASN133      0.1181
    155  CG        27.6230   31.1440   70.6050 C.2   133  ASN133      0.2629
    156  OD1       26.4250   31.4060   70.7200 O.2   133  ASN133     -0.2716
    157  ND2       28.4080   31.7460   69.7100 N.am  133  ASN133     -0.0877
    158  N         33.4420   26.2350   72.8180 N.3   135  LEU135     -0.1245
    159  CA        34.8020   25.8330   72.4750 C.3   135  LEU135      0.1561
    160  C         35.4830   25.1500   73.6580 C.2   135  LEU135      0.2260
    161  O         35.0930   25.3500   74.8100 O.2   135  LEU135     -0.2867
    162  CB        35.6400   27.0490   72.0530 C.3   135  LEU135      0.0270
    163  CG        35.0580   28.1860   71.2050 C.3   135  LEU135      0.0019
    164  CD1       36.0270   29.3530   71.1800 C.3   135  LEU135      0.0001
    165  CD2       34.7310   27.7380   69.7910 C.3   135  LEU135      0.0001
    166  N         31.7980   31.7100   74.2690 N.3   145  THR145     -0.1218
    167  CA        32.3170   32.8870   73.5630 C.3   145  THR145      0.1862
    168  C         31.6210   34.1990   73.9270 C.2   145  THR145      0.2287
    169  O         32.1500   35.2770   73.6470 O.2   145  THR145     -0.2866
    170  CB        32.2660   32.7010   72.0310 C.3   145  THR145      0.1770
    171  OG1       30.9090   32.5090   71.6120 O.3   145  THR145     -0.2211
    172  CG2       33.1020   31.5050   71.6030 C.3   145  THR145      0.0375
    173  N         30.6570   37.3180   75.8600 N.3   147  PHE147     -0.1241
    174  CA        31.4000   38.1370   76.8170 C.3   147  PHE147      0.1605
    175  C         30.6230   39.3440   77.3500 C.2   147  PHE147      0.2264
    176  O         31.1130   40.0550   78.2260 O.2   147  PHE147     -0.2867
    177  CB        32.7700   38.5500   76.2550 C.3   147  PHE147      0.0534
    178  CG        32.7040   39.2670   74.9340 C.ar  147  PHE147     -0.0203
    179  CD1       32.6180   40.6560   74.8840 C.ar  147  PHE147     -0.0042
    180  CD2       32.7500   38.5550   73.7380 C.ar  147  PHE147     -0.0042
    181  CE1       32.5650   41.3250   73.6640 C.ar  147  PHE147     -0.0003
    182  CE2       32.6980   39.2140   72.5140 C.ar  147  PHE147     -0.0003
    183  CZ        32.6060   40.6020   72.4780 C.ar  147  PHE147     -0.0000
@<TRIPOS>BOND
     1    30    29    1
     2    29    28    1
     3    28    27    1
     4    27    26    1
     5     5     2    1
     6     5     6    1
     7     2     3    1
     8     2     1    1
     9    26    23    1
    10     3     4    2
    11     7     6    1
    12     7     8    1
    13    23    22    1
    14    23    24    1
    15    22    20   am
    16     9     8    1
    17    25    24    2
    18    24    31   am
    19    10    11    1
    20    34    33    2
    21    13    12    2
    22    20    19    1
    23    20    21    2
    24    19    18    2
    25    12    18    1
    26    12    11    1
    27    11    14    1
    28    31    32    1
    29    55    54    2
    30    59    58    2
    31    33    32    1
    32    33    35   am
    33    54    53    1
    34    53    52    1
    35    38    37    2
    36    36    35    1
    37    36    37    1
    38    36    39    1
    39    56    57    1
    40    58    57    1
    41    52    43   am
    42    37    41   am
    43    40    39    1
    44   149   147   ar
    45    14    15    1
    46    14    16    1
    47   140   138   ar
    48    15    17    1
    49    57    60    1
    50    41    42    1
    51    43    42    1
    52    43    44    2
    53   147   148   ar
    54   147   146    1
    55   139   138   ar
    56   138   137    1
    57    42    45    1
    58    60    62    1
    59    60    61    1
    60   145   146    1
    61   145   142    1
    62   137   136    1
    63   111   110    1
    64    76    75    1
    65    45    46    1
    66    70    69    1
    67    70    71    2
    68    47    46   ar
    69    47    49   ar
    70   136   133    1
    71   142   141    1
    72   142   143    1
    73    46    48   ar
    74    69    68    1
    75    69    72    1
    76    49    51   ar
    77   108   110   ar
    78   108   106   ar
    79   110   109   ar
    80    73    72    1
    81    73    74    1
    82    48    50   ar
    83    51    50   ar
    84    75    74    1
    85   132   133    1
    86   132   130   am
    87   144   143    2
    88   143   150   am
    89   133   134    1
    90   135   134    2
    91   129   130    1
    92   129   128    1
    93   106   105   ar
    94   109   107   ar
    95    64    65    1
    96    64    67    1
    97    64    63    1
    98   130   131    2
    99    65    66    2
   100   123   122    2
   101   150   151    1
   102   157   155   am
   103   165   163    1
   104   105   107   ar
   105   105   104    1
   106   115   114    2
   107   122   121    1
   108   124   121    1
   109   124   125    1
   110   121   120    1
   111   155   156    2
   112   155   154    1
   113   151   154    1
   114   151   152    1
   115   104   101    1
   116   164   163    1
   117   163   162    1
   118   114   120   am
   119   114   113    1
   120   172   170    1
   121   171   170    1
   122   127   125   am
   123   101   102    1
   124   101   100    1
   125   125   126    2
   126   152   153    2
   127    90    89    1
   128   170   167    1
   129   162   159    1
   130   112   102   am
   131   112   113    1
   132   102   103    2
   133   159   158    1
   134   159   160    1
   135   183   182   ar
   136   183   181   ar
   137   182   180   ar
   138   113   116    1
   139    89    88    1
   140    89    91    1
   141   100    94   am
   142    95    94    2
   143   116   118    1
   144   116   117    1
   145    84    85    1
   146    87    86    2
   147    88    85    1
   148    94    93    1
   149   167   168    1
   150   167   166    1
   151   169   168    2
   152   160   161    2
   153   181   179   ar
   154   180   178   ar
   155    85    86    1
   156    86    92   am
   157   117   119    1
   158    92    93    1
   159    93    96    1
   160   179   178   ar
   161   178   177    1
   162    83    81    1
   163    82    81    1
   164   173   174    1
   165    81    78    1
   166    96    97    1
   167   177   174    1
   168   174   175    1
   169   175   176    2
   170    97    98   ar
   171    97    99   ar
   172    78    77    1
   173    78    79    1
   174    79    80    2
