@<TRIPOS>MOLECULE
tmp/3hdqD00.pdb
 250 242 0 0 0
SMALL
GASTEIGER

@<TRIPOS>ATOM
      1  N         69.6530  -71.2700   47.1740 N.3    56  PRO56      -0.2116
      2  CA        69.3620  -72.7020   47.0490 C.3    56  PRO56       0.1372
      3  C         70.6030  -73.5560   47.2910 C.2    56  PRO56       0.2244
      4  O         71.6030  -73.3790   46.5840 O.2    56  PRO56      -0.2868
      5  CB        68.9220  -72.8370   45.5830 C.3    56  PRO56       0.0268
      6  CG        69.4860  -71.6070   44.9020 C.3    56  PRO56       0.0207
      7  CD        69.3030  -70.5400   45.9470 C.3    56  PRO56       0.0892
      8  N         71.7000  -77.4180   47.2030 N.3    58  ILE58      -0.1245
      9  CA        71.3000  -78.7460   46.7720 C.3    58  ILE58       0.1561
     10  C         72.3960  -79.7370   47.1320 C.2    58  ILE58       0.2260
     11  O         73.5240  -79.6130   46.6580 O.2    58  ILE58      -0.2867
     12  CB        71.0620  -78.7960   45.2410 C.3    58  ILE58       0.0252
     13  CG1       69.8590  -77.9410   44.8390 C.3    58  ILE58       0.0019
     14  CG2       70.8470  -80.2200   44.7790 C.3    58  ILE58       0.0019
     15  CD1       70.0960  -76.4780   44.9440 C.3    58  ILE58       0.0001
     16  N         74.6430  -83.0200   47.0070 N.3    60  HIS60      -0.1241
     17  CA        75.0650  -83.9980   46.0080 C.3    60  HIS60       0.1621
     18  C         76.4830  -84.4690   46.2980 C.2    60  HIS60       0.2264
     19  O         77.3240  -83.6850   46.7450 O.2    60  HIS60      -0.2867
     20  CB        74.9720  -83.4120   44.5920 C.3    60  HIS60       0.0745
     21  CG        75.9520  -82.3100   44.3150 C.ar   60  HIS60       0.0817
     22  ND1       77.1530  -82.5230   43.6680 N.ar   60  HIS60      -0.2268
     23  CD2       75.8970  -80.9800   44.5780 C.ar   60  HIS60       0.1154
     24  CE1       77.7980  -81.3740   43.5550 C.ar   60  HIS60       0.1986
     25  NE2       77.0600  -80.4230   44.1030 N.ar   60  HIS60      -0.2212
     26  N         68.6060  -82.3680   40.9480 N.3    81  HIS81      -0.1241
     27  CA        68.3280  -80.9920   40.5930 C.3    81  HIS81       0.1621
     28  C         68.4500  -80.7890   39.0880 C.2    81  HIS81       0.2264
     29  O         69.3670  -81.3020   38.4670 O.2    81  HIS81      -0.2867
     30  CB        69.3060  -80.0950   41.3430 C.3    81  HIS81       0.0745
     31  CG        68.9740  -78.6410   41.2810 C.ar   81  HIS81       0.0817
     32  ND1       67.7240  -78.1490   41.5870 N.ar   81  HIS81      -0.2268
     33  CD2       69.7400  -77.5660   40.9810 C.ar   81  HIS81       0.1154
     34  CE1       67.7320  -76.8330   41.4680 C.ar   81  HIS81       0.1986
     35  NE2       68.9410  -76.4550   41.0950 N.ar   81  HIS81      -0.2212
     36  N         68.3690  -77.6660   36.1130 N.3    83  VAL83      -0.1245
     37  CA        68.3840  -76.2400   35.8260 C.3    83  VAL83       0.1561
     38  C         68.0820  -75.9640   34.3530 C.2    83  VAL83       0.2260
     39  O         68.5230  -76.6940   33.4680 O.2    83  VAL83      -0.2867
     40  CB        69.7470  -75.6260   36.1890 C.3    83  VAL83       0.0252
     41  CG1       69.7890  -74.1430   35.8260 C.3    83  VAL83       0.0019
     42  CG2       70.0420  -75.8390   37.6610 C.3    83  VAL83       0.0019
     43  N         68.0920  -72.7820   31.3610 N.3    85  ALA85      -0.1245
     44  CA        68.5780  -71.4390   31.0840 C.3    85  ALA85       0.1562
     45  C         67.6390  -70.7410   30.1180 C.2    85  ALA85       0.2260
     46  O         67.1820  -71.3480   29.1520 O.2    85  ALA85      -0.2867
     47  CB        70.0010  -71.4730   30.5260 C.3    85  ALA85       0.0290
     48  N         70.8050  -76.7530   30.9570 N.3    94  ILE94      -0.1245
     49  CA        72.1770  -76.3920   31.2370 C.3    94  ILE94       0.1561
     50  C         72.5660  -77.3190   32.3760 C.2    94  ILE94       0.2260
     51  O         71.7860  -77.5150   33.3040 O.2    94  ILE94      -0.2867
     52  CB        72.3260  -74.8910   31.6480 C.3    94  ILE94       0.0252
     53  CG1       73.7820  -74.5300   31.9120 C.3    94  ILE94       0.0019
     54  CG2       71.5130  -74.5580   32.8930 C.3    94  ILE94       0.0019
     55  CD1       74.5030  -73.9890   30.7110 C.3    94  ILE94       0.0001
     56  N         75.4650  -68.7180   26.6490 N.3   147  PHE147     -0.1227
     57  CA        75.2690  -69.3820   27.9320 C.3   147  PHE147      0.1736
     58  C         76.2200  -68.9370   29.0540 C.2   147  PHE147      0.2595
     59  O         75.8470  -68.9720   30.2380 O.2   147  PHE147     -0.2718
     60  CB        75.3300  -70.8990   27.7480 C.3   147  PHE147      0.0547
     61  CG        74.1570  -71.4720   26.9930 C.ar  147  PHE147     -0.0202
     62  CD1       74.2000  -71.6050   25.6140 C.ar  147  PHE147     -0.0042
     63  CD2       73.0120  -71.8820   27.6680 C.ar  147  PHE147     -0.0042
     64  CE1       73.1210  -72.1370   24.9130 C.ar  147  PHE147     -0.0003
     65  CE2       71.9290  -72.4130   26.9820 C.ar  147  PHE147     -0.0003
     66  CZ        71.9840  -72.5390   25.5960 C.ar  147  PHE147     -0.0000
     67  N         77.4280  -68.5060   28.6910 N.am  148  PHE148     -0.1976
     68  CA        78.4600  -68.2580   29.6910 C.3   148  PHE148      0.1639
     69  C         78.9050  -66.8130   29.8600 C.2   148  PHE148      0.2290
     70  O         79.0530  -66.3370   30.9890 O.2   148  PHE148     -0.2864
     71  CB        79.6680  -69.1530   29.4330 C.3   148  PHE148      0.0560
     72  CG        79.4150  -70.5820   29.7580 C.ar  148  PHE148     -0.0200
     73  CD1       79.6680  -71.0670   31.0280 C.ar  148  PHE148     -0.0042
     74  CD2       78.8860  -71.4370   28.8050 C.ar  148  PHE148     -0.0042
     75  CE1       79.4130  -72.3900   31.3360 C.ar  148  PHE148     -0.0003
     76  CE2       78.6320  -72.7520   29.1090 C.ar  148  PHE148     -0.0003
     77  CZ        78.8960  -73.2290   30.3740 C.ar  148  PHE148     -0.0000
     78  N         76.2720  -64.4300   31.6520 N.3   151  TYR151     -0.1227
     79  CA        76.0390  -64.9480   32.9950 C.3   151  TYR151      0.1736
     80  C         77.2620  -64.7000   33.8650 C.2   151  TYR151      0.2596
     81  O         77.1380  -64.2710   35.0090 O.2   151  TYR151     -0.2718
     82  CB        75.6830  -66.4430   32.9820 C.3   151  TYR151      0.0548
     83  CG        75.2550  -67.0170   34.3310 C.ar  151  TYR151     -0.0200
     84  CD1       73.9100  -67.1660   34.6550 C.ar  151  TYR151     -0.0009
     85  CD2       76.1990  -67.4310   35.2690 C.ar  151  TYR151     -0.0009
     86  CE1       73.5180  -67.7040   35.8780 C.ar  151  TYR151      0.0417
     87  CE2       75.8160  -67.9700   36.4920 C.ar  151  TYR151      0.0417
     88  CZ        74.4750  -68.1040   36.7890 C.ar  151  TYR151      0.1957
     89  OH        74.0940  -68.6320   37.9970 O.3   151  TYR151     -0.2866
     90  N         78.4430  -64.9630   33.3220 N.am  152  THR152     -0.1953
     91  CA        79.6640  -64.7930   34.0970 C.3   152  THR152      0.1897
     92  C         79.9250  -63.3290   34.4240 C.2   152  THR152      0.2313
     93  O         80.2850  -62.9980   35.5560 O.2   152  THR152     -0.2863
     94  CB        80.8820  -65.3670   33.3830 C.3   152  THR152      0.1794
     95  OG1       80.6960  -66.7740   33.1800 O.3   152  THR152     -0.2208
     96  CG2       82.1160  -65.1350   34.2260 C.3   152  THR152      0.0378
     97  N         77.5280  -62.4100   37.2580 N.3   155  GLN155     -0.1231
     98  CA        77.8300  -63.0150   38.5450 C.3   155  GLN155      0.1698
     99  C         79.1120  -62.4780   39.1750 C.2   155  GLN155      0.2592
    100  O         79.1820  -62.2920   40.3880 O.2   155  GLN155     -0.2718
    101  CB        77.9340  -64.5340   38.3730 C.3   155  GLN155      0.0381
    102  CG        78.4450  -65.2940   39.5950 C.3   155  GLN155      0.0905
    103  CD        77.3860  -65.4970   40.6610 C.2   155  GLN155      0.2608
    104  OE1       76.2600  -65.0040   40.5450 O.2   155  GLN155     -0.2717
    105  NE2       77.7430  -66.2260   41.7160 N.am  155  GLN155     -0.0878
    106  N         80.1280  -62.2350   38.3510 N.am  156  TRP156     -0.1976
    107  CA        81.4750  -61.9840   38.8660 C.3   156  TRP156      0.1640
    108  C         81.9560  -60.5440   38.7540 C.2   156  TRP156      0.2290
    109  O         82.9510  -60.1730   39.3730 O.2   156  TRP156     -0.2864
    110  CB        82.4760  -62.9060   38.1710 C.3   156  TRP156      0.0576
    111  CG        82.2210  -64.3390   38.4550 C.ar  156  TRP156      0.0006
    112  CD1       81.4910  -65.2100   37.7020 C.ar  156  TRP156      0.0946
    113  CD2       82.6850  -65.0780   39.5910 C.ar  156  TRP156      0.0152
    114  NE1       81.4820  -66.4520   38.2930 N.ar  156  TRP156     -0.2442
    115  CE2       82.2050  -66.3950   39.4560 C.ar  156  TRP156      0.0810
    116  CE3       83.4600  -64.7530   40.7070 C.ar  156  TRP156      0.0012
    117  CZ2       82.4770  -67.3850   40.3920 C.ar  156  TRP156      0.0191
    118  CZ3       83.7310  -65.7410   41.6350 C.ar  156  TRP156      0.0001
    119  CH2       83.2410  -67.0410   41.4700 C.ar  156  TRP156      0.0015
    120  N         86.4600  -71.9340   37.1440 N.3   167  VAL167     -0.1231
    121  CA        85.1260  -71.3860   37.3950 C.3   167  VAL167      0.1692
    122  C         84.0760  -71.9680   36.4340 C.2   167  VAL167      0.2592
    123  O         83.1360  -72.6420   36.8710 O.2   167  VAL167     -0.2718
    124  CB        85.1020  -69.8350   37.3750 C.3   167  VAL167      0.0266
    125  CG1       83.6900  -69.3120   37.6370 C.3   167  VAL167      0.0020
    126  CG2       86.0650  -69.2710   38.4070 C.3   167  VAL167      0.0020
    127  N         84.2360  -71.7350   35.1340 N.am  168  THR168     -0.1953
    128  CA        83.2990  -72.3040   34.1590 C.3   168  THR168      0.1897
    129  C         83.4990  -73.8120   33.9210 C.2   168  THR168      0.2313
    130  O         82.6120  -74.4870   33.3790 O.2   168  THR168     -0.2863
    131  CB        83.3170  -71.5430   32.8060 C.3   168  THR168      0.1794
    132  OG1       84.5920  -71.7030   32.1810 O.3   168  THR168     -0.2208
    133  CG2       83.0360  -70.0550   33.0160 C.3   168  THR168      0.0378
    134  N         83.4000  -75.8300   36.1370 N.3   170  ARG170     -0.1231
    135  CA        82.3940  -76.4020   37.0310 C.3   170  ARG170      0.1694
    136  C         81.1820  -76.9580   36.2700 C.2   170  ARG170      0.2591
    137  O         80.5480  -77.9080   36.7250 O.2   170  ARG170     -0.2718
    138  CB        81.9400  -75.3680   38.0800 C.3   170  ARG170      0.0321
    139  CG        82.9580  -75.1130   39.1930 C.3   170  ARG170      0.0489
    140  CD        82.5500  -73.9640   40.1070 C.3   170  ARG170      0.2205
    141  NE        81.2480  -74.1870   40.7250 N.pl3 170  ARG170     -0.0865
    142  CZ        81.0510  -74.8970   41.8330 C.cat 170  ARG170      0.5346
    143  NH1       82.0760  -75.4620   42.4660 N.pl3 170  ARG170      0.1354
    144  NH2       79.8200  -75.0410   42.3130 N.pl3 170  ARG170      0.1354
    145  N         80.8640  -76.3650   35.1190 N.am  171  VAL171     -0.1980
    146  CA        79.7050  -76.7870   34.3240 C.3   171  VAL171      0.1595
    147  C         80.1160  -77.2590   32.9240 C.2   171  VAL171      0.2287
    148  O         80.0270  -76.5020   31.9550 O.2   171  VAL171     -0.2864
    149  CB        78.6600  -75.6510   34.1830 C.3   171  VAL171      0.0276
    150  CG1       77.4500  -76.1260   33.3890 C.3   171  VAL171      0.0022
    151  CG2       78.2330  -75.1290   35.5550 C.3   171  VAL171      0.0022
    152  N         71.6050  -81.3290   36.7290 N.3   181  TYR181     -0.1227
    153  CA        72.7080  -80.4050   36.9470 C.3   181  TYR181      0.1736
    154  C         73.9530  -81.1560   37.4170 C.2   181  TYR181      0.2595
    155  O         75.0670  -80.7930   37.0560 O.2   181  TYR181     -0.2718
    156  CB        72.3500  -79.2860   37.9320 C.3   181  TYR181      0.0548
    157  CG        73.1290  -78.0170   37.6650 C.ar  181  TYR181     -0.0200
    158  CD1       72.9590  -77.3300   36.4750 C.ar  181  TYR181     -0.0009
    159  CD2       74.0380  -77.5140   38.5880 C.ar  181  TYR181     -0.0009
    160  CE1       73.6570  -76.1860   36.2060 C.ar  181  TYR181      0.0417
    161  CE2       74.7480  -76.3640   38.3290 C.ar  181  TYR181      0.0417
    162  CZ        74.5480  -75.7010   37.1270 C.ar  181  TYR181      0.1957
    163  OH        75.2260  -74.5440   36.8300 O.3   181  TYR181     -0.2866
    164  N         73.7550  -82.2010   38.2170 N.am  182  PHE182     -0.1976
    165  CA        74.8570  -83.0190   38.7240 C.3   182  PHE182      0.1639
    166  C         74.7230  -84.4520   38.2470 C.2   182  PHE182      0.2290
    167  O         73.6140  -84.9770   38.1380 O.2   182  PHE182     -0.2864
    168  CB        74.8690  -83.0320   40.2530 C.3   182  PHE182      0.0560
    169  CG        74.6960  -81.6780   40.8690 C.ar  182  PHE182     -0.0200
    170  CD1       73.4810  -81.3060   41.4210 C.ar  182  PHE182     -0.0042
    171  CD2       75.7470  -80.7660   40.8770 C.ar  182  PHE182     -0.0042
    172  CE1       73.3160  -80.0510   41.9770 C.ar  182  PHE182     -0.0003
    173  CE2       75.5940  -79.5110   41.4330 C.ar  182  PHE182     -0.0003
    174  CZ        74.3760  -79.1490   41.9840 C.ar  182  PHE182     -0.0000
    175  N         65.4000  -74.3990   39.4220 N.3   266  THR266     -0.1218
    176  CA        66.1190  -73.1560   39.1520 C.3   266  THR266      0.1862
    177  C         66.1320  -72.7930   37.6670 C.2   266  THR266      0.2287
    178  O         66.3870  -73.6400   36.8170 O.2   266  THR266     -0.2866
    179  CB        67.5900  -73.2410   39.6170 C.3   266  THR266      0.1770
    180  OG1       67.6380  -73.5360   41.0130 O.3   266  THR266     -0.2211
    181  CG2       68.3180  -71.9270   39.3610 C.3   266  THR266      0.0375
    182  N         68.0650  -70.1180   35.1230 N.3   268  ASN268     -0.1240
    183  CA        69.2030  -69.2070   35.0090 C.3   268  ASN268      0.1653
    184  C         68.9260  -68.1340   33.9540 C.2   268  ASN268      0.2266
    185  O         68.2850  -68.4130   32.9320 O.2   268  ASN268     -0.2867
    186  CB        70.4680  -69.9780   34.6140 C.3   268  ASN268      0.1155
    187  CG        71.0810  -70.7560   35.7650 C.2   268  ASN268      0.2627
    188  OD1       70.5720  -70.7480   36.8880 O.2   268  ASN268     -0.2716
    189  ND2       72.1790  -71.4480   35.4830 N.am  268  ASN268     -0.0877
    190  N         71.1850  -65.9660   31.6730 N.3   270  PRO270     -0.2116
    191  CA        72.4960  -65.5360   31.1670 C.3   270  PRO270      0.1372
    192  C         72.4840  -64.1170   30.5880 C.2   270  PRO270      0.2244
    193  O         73.4700  -63.4060   30.7260 O.2   270  PRO270     -0.2868
    194  CB        72.7940  -66.5350   30.0420 C.3   270  PRO270      0.0268
    195  CG        71.8320  -67.6570   30.2280 C.3   270  PRO270      0.0207
    196  CD        70.6430  -67.1180   30.9320 C.3   270  PRO270      0.0892
    197  N         69.5980  -65.7040   38.5990 N.3   277  ARG277     -0.1245
    198  CA        68.7190  -66.8650   38.5980 C.3   277  ARG277      0.1563
    199  C         67.5910  -66.7730   39.6190 C.2   277  ARG277      0.2260
    200  O         67.6500  -65.9840   40.5640 O.2   277  ARG277     -0.2867
    201  CB        69.5380  -68.1360   38.8250 C.3   277  ARG277      0.0307
    202  CG        70.4270  -68.0460   40.0300 C.3   277  ARG277      0.0489
    203  CD        71.3330  -69.2450   40.1650 C.3   277  ARG277      0.2205
    204  NE        72.0150  -69.2110   41.4520 N.pl3 277  ARG277     -0.0865
    205  CZ        72.9570  -70.0690   41.8240 C.cat 277  ARG277      0.5346
    206  NH1       73.3440  -71.0370   41.0020 N.pl3 277  ARG277      0.1354
    207  NH2       73.5150  -69.9550   43.0220 N.pl3 277  ARG277      0.1354
    208  N         81.6230  -66.2800   47.5240 N.3   307  TYR307     -0.1241
    209  CA        82.5090  -66.8680   46.5230 C.3   307  TYR307      0.1605
    210  C         83.9230  -66.2910   46.5490 C.2   307  TYR307      0.2264
    211  O         84.1090  -65.0720   46.4330 O.2   307  TYR307     -0.2867
    212  CB        81.9510  -66.6480   45.1170 C.3   307  TYR307      0.0534
    213  CG        80.5380  -67.1260   44.9000 C.ar  307  TYR307     -0.0201
    214  CD1       79.4570  -66.3000   45.1800 C.ar  307  TYR307     -0.0009
    215  CD2       80.2830  -68.3920   44.3890 C.ar  307  TYR307     -0.0009
    216  CE1       78.1630  -66.7220   44.9680 C.ar  307  TYR307      0.0417
    217  CE2       78.9950  -68.8290   44.1760 C.ar  307  TYR307      0.0417
    218  CZ        77.9320  -67.9890   44.4670 C.ar  307  TYR307      0.1957
    219  OH        76.6350  -68.4070   44.2600 O.3   307  TYR307     -0.2866
    220  N         85.2670  -73.4270   53.3570 N.3   336  ARG336     -0.1245
    221  CA        85.2960  -72.6320   52.1290 C.3   336  ARG336      0.1563
    222  C         85.9540  -71.2650   52.3610 C.2   336  ARG336      0.2260
    223  O         86.6510  -70.7500   51.4930 O.2   336  ARG336     -0.2867
    224  CB        83.8880  -72.4720   51.5210 C.3   336  ARG336      0.0307
    225  CG        83.8440  -71.5650   50.2760 C.3   336  ARG336      0.0489
    226  CD        82.4310  -71.3190   49.6900 C.3   336  ARG336      0.2205
    227  NE        82.0470  -72.2880   48.6590 N.pl3 336  ARG336     -0.0865
    228  CZ        81.2430  -72.0220   47.6280 C.cat 336  ARG336      0.5346
    229  NH1       80.7350  -70.8030   47.4600 N.pl3 336  ARG336      0.1354
    230  NH2       80.9500  -72.9770   46.7500 N.pl3 336  ARG336      0.1354
    231  N         86.5470  -72.9120   46.5660 N.3   342  TYR342     -0.1241
    232  CA        85.1890  -72.9500   46.0360 C.3   342  TYR342      0.1605
    233  C         84.6060  -74.3390   46.2920 C.2   342  TYR342      0.2264
    234  O         84.4290  -75.1210   45.3580 O.2   342  TYR342     -0.2867
    235  CB        85.2610  -72.6980   44.5250 C.3   342  TYR342      0.0534
    236  CG        84.0000  -72.2200   43.8320 C.ar  342  TYR342     -0.0201
    237  CD1       82.7280  -72.5630   44.2990 C.ar  342  TYR342     -0.0009
    238  CD2       84.0880  -71.4550   42.6690 C.ar  342  TYR342     -0.0009
    239  CE1       81.5860  -72.1250   43.6360 C.ar  342  TYR342      0.0417
    240  CE2       82.9600  -71.0200   42.0060 C.ar  342  TYR342      0.0417
    241  CZ        81.7130  -71.3570   42.4880 C.ar  342  TYR342      0.1957
    242  OH        80.5980  -70.9110   41.8120 O.3   342  TYR342     -0.2866
    243  N         81.9170  -77.3290   47.4530 N.3   344  ASN344     -0.1240
    244  CA        80.5610  -77.8150   47.6760 C.3   344  ASN344      0.1653
    245  C         80.4150  -78.4070   49.0790 C.2   344  ASN344      0.2266
    246  O         81.4120  -78.7190   49.7420 O.2   344  ASN344     -0.2867
    247  CB        80.2050  -78.8600   46.6250 C.3   344  ASN344      0.1155
    248  CG        80.3210  -78.3200   45.2130 C.2   344  ASN344      0.2627
    249  OD1       80.0890  -77.1360   44.9730 O.2   344  ASN344     -0.2716
    250  ND2       80.6780  -79.1860   44.2710 N.am  344  ASN344     -0.0877
@<TRIPOS>BOND
     1    64    66   ar
     2    64    62   ar
     3    66    65   ar
     4    62    61   ar
     5    56    57    1
     6    65    63   ar
     7    61    63   ar
     8    61    60    1
     9    60    57    1
    10    57    58    1
    11    67    58   am
    12    67    68    1
    13    74    76   ar
    14    74    72   ar
    15    58    59    2
    16    76    77   ar
    17    46    45    2
    18    71    68    1
    19    71    72    1
    20    68    69    1
    21    72    73   ar
    22    69    70    2
    23   194   195    1
    24   194   191    1
    25    45    44    1
    26   195   196    1
    27    77    75   ar
    28    47    44    1
    29   192   193    2
    30   192   191    1
    31    55    53    1
    32   196   190    1
    33    48    49    1
    34    73    75   ar
    35    44    43    1
    36   191   190    1
    37    49    52    1
    38    49    50    1
    39    52    53    1
    40    52    54    1
    41    78    79    1
    42   148   147    2
    43   132   131    1
    44    50    51    2
    45   131   133    1
    46   131   128    1
    47   147   146    1
    48   185   184    2
    49    82    79    1
    50    82    83    1
    51    79    80    1
    52    95    94    1
    53    90    80   am
    54    90    91    1
    55   130   129    2
    56    94    91    1
    57    94    96    1
    58   150   149    1
    59    39    38    2
    60    80    81    2
    61   129   128    1
    62   184   183    1
    63    91    92    1
    64   128   127    1
    65   149   146    1
    66   149   151    1
    67   146   145    1
    68    83    84   ar
    69    83    85   ar
    70    38    37    1
    71    92    93    2
    72   186   183    1
    73   186   187    1
    74    84    86   ar
    75   183   182    1
    76   145   136   am
    77   127   122   am
    78    85    87   ar
    79   189   187   am
    80   187   188    2
    81    37    36    1
    82    37    40    1
    83    41    40    1
    84    86    88   ar
    85   134   135    1
    86    40    42    1
    87   160   158   ar
    88   160   162   ar
    89   136   137    2
    90   136   135    1
    91   122   123    2
    92   122   121    1
    93   158   157   ar
    94    87    88   ar
    95   152   153    1
    96    88    89    1
    97   178   177    2
    98   163   162    1
    99   153   154    1
   100   153   156    1
   101   135   138    1
   102   155   154    2
   103   162   161   ar
   104   120   121    1
   105    97    98    1
   106   124   121    1
   107   124   125    1
   108   124   126    1
   109   154   164   am
   110   157   156    1
   111   157   159   ar
   112   177   176    1
   113   112   114   ar
   114   112   111   ar
   115   138   139    1
   116   167   166    2
   117   110   111    1
   118   110   107    1
   119   164   165    1
   120   166   165    1
   121   114   115   ar
   122   161   159   ar
   123   106   107    1
   124   106    99   am
   125   101    98    1
   126   101   102    1
   127   111   113   ar
   128    29    28    2
   129    98    99    1
   130   198   197    1
   131   198   201    1
   132   198   199    1
   133   165   168    1
   134   108   107    1
   135   108   109    2
   136   201   202    1
   137    28    27    1
   138   176   175    1
   139   176   179    1
   140    99   100    2
   141   139   140    1
   142   181   179    1
   143   115   113   ar
   144   115   117   ar
   145   113   116   ar
   146   102   103    1
   147   179   180    1
   148   199   200    2
   149   202   203    1
   150   140   141    1
   151   203   204    1
   152   168   169    1
   153   117   119   ar
   154   104   103    2
   155    27    26    1
   156    27    30    1
   157   103   105   am
   158   116   118   ar
   159   141   142    2
   160   169   171   ar
   161   169   170   ar
   162   171   173   ar
   163    33    35   ar
   164    33    31   ar
   165   206   205    1
   166    35    34   ar
   167    31    30    1
   168    31    32   ar
   169   170   172   ar
   170   173   174   ar
   171   204   205    2
   172    34    32   ar
   173   119   118   ar
   174   242   241    1
   175   205   207    1
   176   142   144    1
   177   142   143    1
   178   172   174   ar
   179   240   241   ar
   180   240   238   ar
   181   241   239   ar
   182   238   236   ar
   183    24    22   ar
   184    24    25   ar
   185   239   237   ar
   186    22    21   ar
   187   236   237   ar
   188   236   235    1
   189    25    23   ar
   190   217   215   ar
   191   217   218   ar
   192   219   218    1
   193   250   248   am
   194    21    23   ar
   195    21    20    1
   196   215   213   ar
   197   218   216   ar
   198   235   232    1
   199    20    17    1
   200    14    12    1
   201    13    15    1
   202    13    12    1
   203   213   212    1
   204   213   214   ar
   205     6     5    1
   206     6     7    1
   207   216   214   ar
   208   249   248    2
   209   212   209    1
   210   248   247    1
   211    12     9    1
   212   234   233    2
   213     5     2    1
   214     7     1    1
   215    17    18    1
   216    17    16    1
   217   232   233    1
   218   232   231    1
   219    18    19    2
   220   211   210    2
   221   209   210    1
   222   209   208    1
   223     4     3    2
   224   247   244    1
   225    11    10    2
   226   230   228    1
   227     9    10    1
   228     9     8    1
   229     2     1    1
   230     2     3    1
   231   243   244    1
   232   229   228    1
   233   228   227    2
   234   244   245    1
   235   227   226    1
   236   245   246    2
   237   226   225    1
   238   225   224    1
   239   223   222    2
   240   224   221    1
   241   221   222    1
   242   221   220    1
