@<TRIPOS>MOLECULE
tmp/3hdsC01.pdb
 116 112 0 0 0
SMALL
GASTEIGER

@<TRIPOS>ATOM
      1  N        -24.1570   24.5750   13.6320 N.3     8  TYR8       -0.1241
      2  CA       -24.0990   26.0030   13.9760 C.3     8  TYR8        0.1605
      3  C        -23.4710   26.2480   15.3330 C.2     8  TYR8        0.2264
      4  O        -23.8510   25.6240   16.3330 O.2     8  TYR8       -0.2867
      5  CB       -25.5290   26.5680   14.0640 C.3     8  TYR8        0.0534
      6  CG       -26.3140   26.4320   12.7810 C.ar    8  TYR8       -0.0201
      7  CD1      -26.3170   27.4720   11.8530 C.ar    8  TYR8       -0.0009
      8  CD2      -27.1030   25.3060   12.5350 C.ar    8  TYR8       -0.0009
      9  CE1      -27.0700   27.3590   10.6740 C.ar    8  TYR8        0.0417
     10  CE2      -27.8280   25.1820   11.3430 C.ar    8  TYR8        0.0417
     11  CZ       -27.8090   26.2240   10.4410 C.ar    8  TYR8        0.1957
     12  OH       -28.5260   26.1040    9.2540 O.3     8  TYR8       -0.2866
     13  N        -23.5370   28.8920   18.2050 N.3    10  LEU10      -0.1245
     14  CA       -24.4430   29.9570   18.6640 C.3    10  LEU10       0.1561
     15  C        -23.7710   30.7310   19.7700 C.2    10  LEU10       0.2260
     16  O        -23.0970   30.1530   20.6160 O.2    10  LEU10      -0.2867
     17  CB       -25.7740   29.3860   19.2050 C.3    10  LEU10       0.0270
     18  CG       -26.8740   28.8080   18.2800 C.3    10  LEU10       0.0019
     19  CD1      -26.2870   27.7270   17.3840 C.3    10  LEU10       0.0001
     20  CD2      -28.0770   28.2910   19.0480 C.3    10  LEU10       0.0001
     21  N        -36.7990   26.6710   21.4760 N.3    28  HIS28      -0.1241
     22  CA       -36.4750   26.4900   20.0660 C.3    28  HIS28       0.1621
     23  C        -36.5690   25.0250   19.6450 C.2    28  HIS28       0.2264
     24  O        -37.0360   24.6930   18.5450 O.2    28  HIS28      -0.2867
     25  CB       -35.0850   27.0470   19.7540 C.3    28  HIS28       0.0745
     26  CG       -34.9430   27.5110   18.3370 C.ar   28  HIS28       0.0817
     27  ND1      -35.7100   28.5450   17.8260 N.ar   28  HIS28      -0.2268
     28  CD2      -34.1300   27.0990   17.3300 C.ar   28  HIS28       0.1154
     29  CE1      -35.3330   28.7730   16.5790 C.ar   28  HIS28       0.1986
     30  NE2      -34.4080   27.8990   16.2430 N.ar   28  HIS28      -0.2212
     31  N        -33.3110   17.6840   14.4550 N.3    41  TYR41      -0.1241
     32  CA       -32.7770   18.8870   15.0100 C.3    41  TYR41       0.1605
     33  C        -32.1590   18.5140   16.3530 C.2    41  TYR41       0.2264
     34  O        -32.7240   17.6760   17.0880 O.2    41  TYR41      -0.2867
     35  CB       -33.8590   19.9980   15.1870 C.3    41  TYR41       0.0534
     36  CG       -33.2830   21.2710   15.6960 C.ar   41  TYR41      -0.0201
     37  CD1      -32.3180   21.9920   14.9710 C.ar   41  TYR41      -0.0009
     38  CD2      -33.6840   21.8210   16.9400 C.ar   41  TYR41      -0.0009
     39  CE1      -31.7590   23.1810   15.4470 C.ar   41  TYR41       0.0417
     40  CE2      -33.1240   23.0210   17.4150 C.ar   41  TYR41       0.0417
     41  CZ       -32.1680   23.7160   16.6790 C.ar   41  TYR41       0.1957
     42  OH       -31.6040   24.8740   17.1470 O.3    41  TYR41      -0.2866
     43  N        -26.0200   24.0610   17.5330 N.3    67  GLY67      -0.1225
     44  CA       -27.2260   23.5690   16.9100 C.3    67  GLY67       0.1811
     45  C        -26.8730   22.7460   15.6810 C.2    67  GLY67       0.2280
     46  O        -25.8160   22.9480   15.0910 O.2    67  GLY67      -0.2866
     47  N        -28.8290   20.7870   12.0880 N.3    69  CYS69      -0.1235
     48  CA       -29.9750   20.3620   11.2750 C.3    69  CYS69       0.1677
     49  C        -29.5930   19.2750   10.2920 C.2    69  CYS69       0.2270
     50  O        -28.5440   19.3670    9.6290 O.2    69  CYS69      -0.2867
     51  CB       -30.5090   21.5490   10.4420 C.3    69  CYS69       0.0956
     52  SG       -31.1530   22.8960   11.4860 S.3    69  CYS69      -0.0801
     53  N        -38.1580   22.7430    3.4080 N.3    80  TYR80      -0.1241
     54  CA       -37.8120   23.4680    4.6400 C.3    80  TYR80       0.1605
     55  C        -37.6220   24.9440    4.3710 C.2    80  TYR80       0.2264
     56  O        -38.1890   25.7950    5.0750 O.2    80  TYR80      -0.2867
     57  CB       -36.5180   22.8520    5.1940 C.3    80  TYR80       0.0534
     58  CG       -35.7990   23.5630    6.3150 C.ar   80  TYR80      -0.0201
     59  CD1      -36.1630   23.3320    7.6460 C.ar   80  TYR80      -0.0009
     60  CD2      -34.6650   24.3250    6.0490 C.ar   80  TYR80      -0.0009
     61  CE1      -35.4230   23.9210    8.6990 C.ar   80  TYR80       0.0417
     62  CE2      -33.9430   24.9110    7.0870 C.ar   80  TYR80       0.0417
     63  CZ       -34.3290   24.6890    8.3850 C.ar   80  TYR80       0.1957
     64  OH       -33.5720   25.2410    9.4230 O.3    80  TYR80      -0.2866
     65  N        -39.9520   30.2240   12.8570 N.3    89  TRP89      -0.1227
     66  CA       -38.9440   29.6250   13.7470 C.3    89  TRP89       0.1737
     67  C        -37.6790   30.4500   13.7260 C.2    89  TRP89       0.2595
     68  O        -37.0710   30.7250   14.7870 O.2    89  TRP89      -0.2718
     69  CB       -38.6960   28.1990   13.2650 C.3    89  TRP89       0.0564
     70  CG       -37.8350   27.2860   14.1730 C.ar   89  TRP89       0.0003
     71  CD1      -37.9710   27.0820   15.5400 C.ar   89  TRP89       0.0946
     72  CD2      -36.7870   26.4160   13.7270 C.ar   89  TRP89       0.0152
     73  NE1      -37.0430   26.1380   15.9520 N.ar   89  TRP89      -0.2442
     74  CE2      -36.3210   25.7050   14.8600 C.ar   89  TRP89       0.0810
     75  CE3      -36.2220   26.1290   12.4750 C.ar   89  TRP89       0.0012
     76  CZ2      -35.3010   24.7640   14.7730 C.ar   89  TRP89       0.0191
     77  CZ3      -35.2310   25.1870   12.3730 C.ar   89  TRP89       0.0001
     78  CH2      -34.7490   24.5160   13.5250 C.ar   89  TRP89       0.0015
     79  N        -37.2410   30.8740   12.5420 N.am   90  PHE90      -0.1976
     80  CA       -36.0670   31.7210   12.4520 C.3    90  PHE90       0.1639
     81  C        -36.2560   33.0800   13.1450 C.2    90  PHE90       0.2290
     82  O        -35.2630   33.6420   13.6390 O.2    90  PHE90      -0.2864
     83  CB       -35.6730   31.9300   10.9870 C.3    90  PHE90       0.0560
     84  CG       -34.8630   30.8010   10.3760 C.ar   90  PHE90      -0.0200
     85  CD1      -35.0510   29.4460   10.7370 C.ar   90  PHE90      -0.0042
     86  CD2      -33.9290   31.0950    9.3860 C.ar   90  PHE90      -0.0042
     87  CE1      -34.2910   28.4230   10.1200 C.ar   90  PHE90      -0.0003
     88  CE2      -33.1830   30.0880    8.7550 C.ar   90  PHE90      -0.0003
     89  CZ       -33.3410   28.7640    9.0990 C.ar   90  PHE90      -0.0000
     90  N        -35.3290   32.5220   16.4750 N.3    93  GLY93      -0.1225
     91  CA       -33.8730   32.5190   16.4570 C.3    93  GLY93       0.1811
     92  C        -33.2550   33.8960   16.6310 C.2    93  GLY93       0.2280
     93  O        -32.2630   34.0430   17.3690 O.2    93  GLY93      -0.2866
     94  N        -30.5870   34.2600   19.6740 N.3    97  ILE97      -0.1245
     95  CA       -29.2410   34.0530   19.1590 C.3    97  ILE97       0.1561
     96  C        -28.6300   35.3960   18.7340 C.2    97  ILE97       0.2260
     97  O        -29.1590   36.0580   17.8370 O.2    97  ILE97      -0.2867
     98  CB       -29.2020   33.0740   17.9370 C.3    97  ILE97       0.0252
     99  CG1      -29.8740   31.7530   18.3030 C.3    97  ILE97       0.0019
    100  CG2      -27.7200   32.8770   17.5150 C.3    97  ILE97       0.0019
    101  CD1      -30.2810   30.9170   17.0820 C.3    97  ILE97       0.0001
    102  N        -24.0020   33.9130   14.9690 N.3   100  LEU100     -0.1245
    103  CA       -24.1490   32.5230   14.4530 C.3   100  LEU100      0.1561
    104  C        -23.1160   32.1600   13.3880 C.2   100  LEU100      0.2260
    105  O        -23.0220   32.8740   12.3820 O.2   100  LEU100     -0.2867
    106  CB       -25.5490   32.3990   13.8170 C.3   100  LEU100      0.0270
    107  CG       -26.1790   31.0520   13.4530 C.3   100  LEU100      0.0019
    108  CD1      -26.3010   30.1110   14.6190 C.3   100  LEU100      0.0001
    109  CD2      -27.5640   31.2900   12.9470 C.3   100  LEU100      0.0001
    110  N        -22.5450   29.1890   10.6900 N.3   102  PRO102     -0.2116
    111  CA       -22.9280   27.9220   10.0680 C.3   102  PRO102      0.1372
    112  C        -21.8010   27.1980    9.3420 C.2   102  PRO102      0.2244
    113  O        -20.9630   27.8340    8.6620 O.2   102  PRO102     -0.2868
    114  CB       -24.0150   28.3020    9.0480 C.3   102  PRO102      0.0268
    115  CG       -24.2140   29.7880    9.1840 C.3   102  PRO102      0.0207
    116  CD       -22.9530   30.3330    9.8550 C.3   102  PRO102      0.0892
@<TRIPOS>BOND
     1    53    54    1
     2    55    54    1
     3    55    56    2
     4    54    57    1
     5    57    58    1
     6    60    58   ar
     7    60    62   ar
     8    58    59   ar
     9    62    63   ar
    10    59    61   ar
    11    63    61   ar
    12    63    64    1
    13   113   112    2
    14    88    89   ar
    15    88    86   ar
    16   114   115    1
    17   114   111    1
    18    89    87   ar
    19   115   116    1
    20    12    11    1
    21   112   111    1
    22    86    84   ar
    23    50    49    2
    24   116   110    1
    25   111   110    1
    26    87    85   ar
    27    49    48    1
    28    84    85   ar
    29    84    83    1
    30    11     9   ar
    31    11    10   ar
    32    51    48    1
    33    51    52    1
    34     9     7   ar
    35    83    80    1
    36    48    47    1
    37    10     8   ar
    38     7     6   ar
    39    77    75   ar
    40    77    78   ar
    41   105   104    2
    42    80    79    1
    43    80    81    1
    44    75    72   ar
    45     8     6   ar
    46    79    67   am
    47     6     5    1
    48    65    66    1
    49   109   107    1
    50    81    82    2
    51    69    66    1
    52    69    70    1
    53   104   103    1
    54   107   106    1
    55   107   108    1
    56    78    76   ar
    57     1     2    1
    58    67    66    1
    59    67    68    2
    60    72    70   ar
    61    72    74   ar
    62   106   103    1
    63     2     5    1
    64     2     3    1
    65    70    71   ar
    66   103   102    1
    67    31    32    1
    68    76    74   ar
    69    74    73   ar
    70    37    39   ar
    71    37    36   ar
    72    32    35    1
    73    32    33    1
    74    46    45    2
    75    35    36    1
    76     3     4    2
    77    39    41   ar
    78    71    73   ar
    79    45    44    1
    80    36    38   ar
    81    30    29   ar
    82    30    28   ar
    83    33    34    2
    84    91    90    1
    85    91    92    1
    86    29    27   ar
    87    92    93    2
    88    41    42    1
    89    41    40   ar
    90    44    43    1
    91    38    40   ar
    92   101    99    1
    93    28    26   ar
    94    19    18    1
    95   100    98    1
    96    27    26   ar
    97    97    96    2
    98    98    99    1
    99    98    95    1
   100    13    14    1
   101    18    20    1
   102    18    17    1
   103    26    25    1
   104    24    23    2
   105    14    17    1
   106    14    15    1
   107    96    95    1
   108    95    94    1
   109    23    22    1
   110    25    22    1
   111    15    16    2
   112    22    21    1
