@<TRIPOS>MOLECULE
tmp/3hdzA00.pdb
 141 133 0 0 0
SMALL
GASTEIGER

@<TRIPOS>ATOM
      1  N         19.0800    6.0810   14.8720 N.3    76  TYR76      -0.1241
      2  CA        17.8790    5.2660   14.8820 C.3    76  TYR76       0.1605
      3  C         17.0930    5.3930   16.1900 C.2    76  TYR76       0.2264
      4  O         15.8920    5.6730   16.1530 O.2    76  TYR76      -0.2867
      5  CB        18.2540    3.8070   14.5900 C.3    76  TYR76       0.0534
      6  CG        17.1040    2.8180   14.7030 C.ar   76  TYR76      -0.0201
      7  CD1       17.1240    1.8150   15.6580 C.ar   76  TYR76      -0.0009
      8  CD2       16.0020    2.8960   13.8560 C.ar   76  TYR76      -0.0009
      9  CE1       16.0820    0.8960   15.7660 C.ar   76  TYR76       0.0417
     10  CE2       14.9490    1.9870   13.9530 C.ar   76  TYR76       0.0417
     11  CZ        14.9900    0.9880   14.9140 C.ar   76  TYR76       0.1957
     12  OH        13.9510    0.0690   15.0250 O.3    76  TYR76      -0.2866
     13  N         16.3090   -7.4050   23.1830 N.3   190  LEU190     -0.1245
     14  CA        16.2800   -8.5650   22.2780 C.3   190  LEU190      0.1561
     15  C         16.8400   -9.8410   22.9090 C.2   190  LEU190      0.2260
     16  O         16.4530  -10.9530   22.5320 O.2   190  LEU190     -0.2867
     17  CB        17.0400   -8.2680   20.9880 C.3   190  LEU190      0.0270
     18  CG        16.2400   -7.6130   19.8780 C.3   190  LEU190      0.0019
     19  CD1       17.1540   -7.3580   18.6890 C.3   190  LEU190      0.0001
     20  CD2       15.0390   -8.4830   19.4670 C.3   190  LEU190      0.0001
     21  N         10.2020   -3.8500   16.4880 N.3   230  LEU230     -0.1245
     22  CA        10.8060   -4.2130   15.2050 C.3   230  LEU230      0.1561
     23  C          9.9520   -3.8410   13.9830 C.2   230  LEU230      0.2260
     24  O         10.2890   -4.2380   12.8540 O.2   230  LEU230     -0.2867
     25  CB        11.1250   -5.7200   15.1930 C.3   230  LEU230      0.0270
     26  CG        12.2050   -6.1420   16.1920 C.3   230  LEU230      0.0019
     27  CD1       12.3810   -7.6570   16.2570 C.3   230  LEU230      0.0001
     28  CD2       13.5260   -5.4800   15.8420 C.3   230  LEU230      0.0001
     29  N          9.5190   -1.5440   11.8300 N.3   232  ALA232     -0.1231
     30  CA        10.0830   -1.0090   10.5880 C.3   232  ALA232      0.1694
     31  C         10.4030   -2.1190    9.5770 C.2   232  ALA232      0.2591
     32  O         10.3210   -1.9010    8.3700 O.2   232  ALA232     -0.2718
     33  CB        11.3290   -0.1600   10.8730 C.3   232  ALA232      0.0304
     34  N         10.7410   -3.3060   10.0780 N.am  233  ILE233     -0.1980
     35  CA        11.0400   -4.4630    9.2270 C.3   233  ILE233      0.1595
     36  C          9.8320   -4.9570    8.4160 C.2   233  ILE233      0.2287
     37  O         10.0020   -5.7270    7.4690 O.2   233  ILE233     -0.2864
     38  CB        11.6360   -5.6330   10.0670 C.3   233  ILE233      0.0276
     39  CG1       12.5280   -6.5470    9.2140 C.3   233  ILE233      0.0022
     40  CG2       10.5410   -6.4320   10.7540 C.3   233  ILE233      0.0022
     41  CD1       13.8500   -5.9080    8.7870 C.3   233  ILE233      0.0001
     42  N         11.0240    0.8670    4.9310 N.3   240  GLN240     -0.1245
     43  CA        11.9360   -0.0640    5.5970 C.3   240  GLN240      0.1566
     44  C         13.4060    0.1660    5.2030 C.2   240  GLN240      0.2260
     45  O         14.2960    0.1450    6.0570 O.2   240  GLN240     -0.2867
     46  CB        11.4970   -1.5060    5.3300 C.3   240  GLN240      0.0367
     47  CG        12.2930   -2.5660    6.0950 C.3   240  GLN240      0.0905
     48  CD        13.5610   -3.0060    5.3980 C.2   240  GLN240      0.2608
     49  OE1       14.5070   -3.4680    6.0480 O.2   240  GLN240     -0.2717
     50  NE2       13.6050   -2.8530    4.0710 N.am  240  GLN240     -0.0878
     51  N         14.7620    3.2760    6.9550 N.3   243  ILE243     -0.1231
     52  CA        14.9780    3.0590    8.3880 C.3   243  ILE243      0.1692
     53  C         16.1380    2.0720    8.6100 C.2   243  ILE243      0.2591
     54  O         16.9200    2.2410    9.5390 O.2   243  ILE243     -0.2718
     55  CB        13.6790    2.6030    9.0890 C.3   243  ILE243      0.0266
     56  CG1       12.6480    3.7360    9.0620 C.3   243  ILE243      0.0019
     57  CG2       13.9490    2.2010   10.5320 C.3   243  ILE243      0.0020
     58  CD1       11.2260    3.2730    9.3340 C.3   243  ILE243      0.0001
     59  N         16.2700    1.0710    7.7370 N.am  244  ALA244     -0.1980
     60  CA        17.4050    0.1520    7.7820 C.3   244  ALA244      0.1597
     61  C         18.7410    0.9030    7.6910 C.2   244  ALA244      0.2287
     62  O         19.7150    0.5220    8.3470 O.2   244  ALA244     -0.2864
     63  CB        17.3000   -0.9030    6.6710 C.3   244  ALA244      0.0319
     64  N         19.4920    2.3170   11.1130 N.3   247  VAL247     -0.1231
     65  CA        19.9410    1.2330   11.9950 C.3   247  VAL247      0.1692
     66  C         21.4210    0.9600   11.7590 C.2   247  VAL247      0.2591
     67  O         22.2170    0.9100   12.7050 O.2   247  VAL247     -0.2718
     68  CB        19.1030   -0.0490   11.7810 C.3   247  VAL247      0.0266
     69  CG1       19.6970   -1.2330   12.5690 C.3   247  VAL247      0.0020
     70  CG2       17.6420    0.2000   12.1780 C.3   247  VAL247      0.0020
     71  N         21.7910    0.8290   10.4850 N.am  248  ALA248     -0.1980
     72  CA        23.1770    0.5690   10.1070 C.3   248  ALA248      0.1597
     73  C         24.0840    1.7440   10.4760 C.2   248  ALA248      0.2287
     74  O         25.2010    1.5450   10.9590 O.2   248  ALA248     -0.2864
     75  CB        23.2710    0.2630    8.6130 C.3   248  ALA248      0.0319
     76  N         24.7350    1.4570   14.2100 N.3   251  PHE251     -0.1227
     77  CA        25.6340    0.3300   14.4580 C.3   251  PHE251      0.1736
     78  C         27.0740    0.6280   14.0160 C.2   251  PHE251      0.2595
     79  O         28.0220    0.2830   14.7110 O.2   251  PHE251     -0.2718
     80  CB        25.1480   -0.9350   13.7420 C.3   251  PHE251      0.0547
     81  CG        23.9820   -1.6360   14.4040 C.ar  251  PHE251     -0.0202
     82  CD1       23.8280   -1.6650   15.7890 C.ar  251  PHE251     -0.0042
     83  CD2       23.0840   -2.3470   13.6290 C.ar  251  PHE251     -0.0042
     84  CE1       22.7710   -2.3520   16.3620 C.ar  251  PHE251     -0.0003
     85  CE2       22.0180   -3.0360   14.2030 C.ar  251  PHE251     -0.0003
     86  CZ        21.8690   -3.0400   15.5640 C.ar  251  PHE251     -0.0000
     87  N         27.2410    1.2480   12.8540 N.am  252  PHE252     -0.1976
     88  CA        28.5850    1.5610   12.3680 C.3   252  PHE252      0.1639
     89  C         29.2430    2.6380   13.2320 C.2   252  PHE252      0.2290
     90  O         30.4610    2.6300   13.4280 O.2   252  PHE252     -0.2864
     91  CB        28.5630    1.9890   10.8970 C.3   252  PHE252      0.0560
     92  CG        28.1690    0.8930    9.9350 C.ar  252  PHE252     -0.0200
     93  CD1       28.3520   -0.4470   10.2440 C.ar  252  PHE252     -0.0042
     94  CD2       27.6460    1.2170    8.6930 C.ar  252  PHE252     -0.0042
     95  CE1       27.9860   -1.4350    9.3450 C.ar  252  PHE252     -0.0003
     96  CE2       27.2860    0.2220    7.7890 C.ar  252  PHE252     -0.0003
     97  CZ        27.4590   -1.0960    8.1190 C.ar  252  PHE252     -0.0000
     98  N         28.2560   -6.5940   11.8330 N.3   269  LEU269     -0.1245
     99  CA        27.1150   -5.7240   12.1110 C.3   269  LEU269      0.1561
    100  C         27.5480   -4.2830   12.4190 C.2   269  LEU269      0.2260
    101  O         26.8670   -3.3260   12.0350 O.2   269  LEU269     -0.2867
    102  CB        26.3120   -6.2720   13.3010 C.3   269  LEU269      0.0270
    103  CG        25.0010   -5.5480   13.6270 C.3   269  LEU269      0.0019
    104  CD1       24.0590   -5.6130   12.4410 C.3   269  LEU269      0.0001
    105  CD2       24.3300   -6.1150   14.8830 C.3   269  LEU269      0.0001
    106  N         25.3250   -6.0590    4.6870 N.3   278  ILE278     -0.1245
    107  CA        23.9930   -5.6380    5.1360 C.3   278  ILE278      0.1561
    108  C         22.8320   -6.4850    4.5790 C.2   278  ILE278      0.2260
    109  O         21.9940   -6.9400    5.3620 O.2   278  ILE278     -0.2867
    110  CB        23.7570   -4.1240    4.8970 C.3   278  ILE278      0.0252
    111  CG1       24.5180   -3.3140    5.9520 C.3   278  ILE278      0.0019
    112  CG2       22.2670   -3.7550    4.9450 C.3   278  ILE278      0.0019
    113  CD1       24.5290   -1.8200    5.6750 C.3   278  ILE278      0.0001
    114  N         22.8320   -9.9120    6.1600 N.3   281  MET281     -0.1230
    115  CA        22.5080   -9.7850    7.5870 C.3   281  MET281      0.1702
    116  C         21.0280   -9.4870    7.7910 C.2   281  MET281      0.2592
    117  O         20.4200   -9.9710    8.7520 O.2   281  MET281     -0.2718
    118  CB        23.3540   -8.6950    8.2440 C.3   281  MET281      0.0401
    119  CG        24.8310   -9.0430    8.3140 C.3   281  MET281      0.0596
    120  SD        25.7700   -7.9570    9.4010 S.3   281  MET281     -0.1393
    121  CE        25.4960   -6.3530    8.6680 C.3   281  MET281      0.0692
    122  N         20.4520   -8.6840    6.9020 N.am  282  GLN282     -0.1979
    123  CA        19.0180   -8.3830    6.9660 C.3   282  GLN282      0.1601
    124  C         18.1920   -9.6500    6.7630 C.2   282  GLN282      0.2287
    125  O         17.2490   -9.9140    7.5090 O.2   282  GLN282     -0.2864
    126  CB        18.6370   -7.3310    5.9240 C.3   282  GLN282      0.0394
    127  CG        19.2120   -5.9400    6.1970 C.3   282  GLN282      0.0908
    128  CD        18.5540   -5.2160    7.3590 C.2   282  GLN282      0.2608
    129  OE1       18.9520   -4.1070    7.7020 O.2   282  GLN282     -0.2717
    130  NE2       17.5490   -5.8380    7.9730 N.am  282  GLN282     -0.0878
    131  N         18.6030  -11.8850    9.8750 N.3   285  PHE285     -0.1241
    132  CA        17.8300  -11.3110   10.9830 C.3   285  PHE285      0.1605
    133  C         16.3240  -11.5330   10.8100 C.2   285  PHE285      0.2264
    134  O         15.6330  -11.9030   11.7620 O.2   285  PHE285     -0.2867
    135  CB        18.1320   -9.8130   11.0960 C.3   285  PHE285      0.0534
    136  CG        17.4090   -9.1260   12.2200 C.ar  285  PHE285     -0.0203
    137  CD1       17.8180   -9.2950   13.5360 C.ar  285  PHE285     -0.0042
    138  CD2       16.3200   -8.3040   11.9650 C.ar  285  PHE285     -0.0042
    139  CE1       17.1480   -8.6570   14.5780 C.ar  285  PHE285     -0.0003
    140  CE2       15.6460   -7.6660   13.0110 C.ar  285  PHE285     -0.0003
    141  CZ        16.0570   -7.8430   14.3010 C.ar  285  PHE285     -0.0000
@<TRIPOS>BOND
     1    50    48   am
     2   108   107    1
     3   108   109    2
     4   106   107    1
     5   110   112    1
     6   110   107    1
     7   110   111    1
     8    42    43    1
     9    44    43    1
    10    44    45    2
    11    46    43    1
    12    46    47    1
    13    48    49    2
    14    48    47    1
    15   113   111    1
    16   126   127    1
    17   126   123    1
    18   114   115    1
    19   127   128    1
    20    63    60    1
    21   124   123    1
    22   124   125    2
    23   122   123    1
    24   122   116   am
    25    51    52    1
    26   128   129    2
    27   128   130   am
    28    37    36    2
    29   115   116    1
    30   115   118    1
    31    61    60    1
    32    61    62    2
    33    59    60    1
    34    59    53   am
    35    96    97   ar
    36    96    94   ar
    37   116   117    2
    38    97    95   ar
    39   118   119    1
    40   119   120    1
    41    32    31    2
    42    52    53    1
    43    52    55    1
    44    36    35    1
    45    53    54    2
    46    75    72    1
    47   121   120    1
    48    94    92   ar
    49    41    39    1
    50    56    55    1
    51    56    58    1
    52    55    57    1
    53    39    38    1
    54    35    38    1
    55    35    34    1
    56    95    93   ar
    57    31    34   am
    58    31    30    1
    59   131   132    1
    60    92    93   ar
    61    92    91    1
    62    38    40    1
    63    72    73    1
    64    72    71    1
    65    73    74    2
    66    71    66   am
    67    30    33    1
    68    30    29    1
    69   133   132    1
    70   133   134    2
    71    91    88    1
    72   132   135    1
    73   135   136    1
    74    64    65    1
    75    66    65    1
    76    66    67    2
    77    68    65    1
    78    68    70    1
    79    68    69    1
    80    98    99    1
    81   138   136   ar
    82   138   140   ar
    83   101   100    2
    84    99   100    1
    85    99   102    1
    86   136   137   ar
    87    88    87    1
    88    88    89    1
    89   104   103    1
    90    87    78   am
    91    24    23    2
    92   140   141   ar
    93    89    90    2
    94   102   103    1
    95   137   139   ar
    96   103   105    1
    97    83    85   ar
    98    83    81   ar
    99    80    81    1
   100    80    77    1
   101     8    10   ar
   102     8     6   ar
   103    10    11   ar
   104    23    22    1
   105    78    77    1
   106    78    79    2
   107    85    86   ar
   108    76    77    1
   109   141   139   ar
   110    81    82   ar
   111     5     6    1
   112     5     2    1
   113     6     7   ar
   114     1     2    1
   115     2     3    1
   116    11    12    1
   117    11     9   ar
   118    25    22    1
   119    25    26    1
   120    22    21    1
   121    86    84   ar
   122     7     9   ar
   123    82    84   ar
   124    28    26    1
   125     4     3    2
   126    26    27    1
   127    19    18    1
   128    20    18    1
   129    18    17    1
   130    17    14    1
   131    14    15    1
   132    14    13    1
   133    16    15    2
