@<TRIPOS>MOLECULE
tmp/3he2B00.pdb
 91 86 0 0 0
SMALL
GASTEIGER

@<TRIPOS>ATOM
      1  N         45.0420   83.5780   20.1740 N.3    72  LEU72      -0.1231
      2  CA        45.9240   82.4990   20.5480 C.3    72  LEU72       0.1693
      3  C         45.2190   81.1360   20.3730 C.2    72  LEU72       0.2591
      4  O         45.7980   80.1770   19.8130 O.2    72  LEU72      -0.2718
      5  CB        46.3800   82.6930   21.9860 C.3    72  LEU72       0.0284
      6  CG        47.5690   81.8380   22.4450 C.3    72  LEU72       0.0019
      7  CD1       48.8210   82.0330   21.5770 C.3    72  LEU72       0.0001
      8  CD2       47.8660   82.1030   23.9400 C.3    72  LEU72       0.0001
      9  N         43.9690   81.0760   20.8360 N.am   73  ILE73      -0.1980
     10  CA        43.1200   79.9110   20.6280 C.3    73  ILE73       0.1595
     11  C         43.0100   79.6300   19.1510 C.2    73  ILE73       0.2287
     12  O         43.2220   78.5030   18.7350 O.2    73  ILE73      -0.2864
     13  CB        41.7240   80.0800   21.1990 C.3    73  ILE73       0.0276
     14  CG1       41.7890   80.2650   22.7220 C.3    73  ILE73       0.0022
     15  CG2       40.8590   78.8660   20.8250 C.3    73  ILE73       0.0022
     16  CD1       42.3970   79.1200   23.4560 C.3    73  ILE73       0.0001
     17  N         46.3130   78.0320   17.6760 N.3    76  HIS76      -0.1226
     18  CA        46.3650   76.6270   18.0640 C.3    76  HIS76       0.1752
     19  C         45.3710   75.7610   17.3320 C.2    76  HIS76       0.2595
     20  O         45.7630   74.6910   16.8980 O.2    76  HIS76      -0.2718
     21  CB        46.2420   76.4630   19.5910 C.3    76  HIS76       0.0759
     22  CG        47.5320   76.7490   20.2960 C.ar   76  HIS76       0.0818
     23  ND1       48.4650   75.7720   20.5520 N.ar   76  HIS76      -0.2268
     24  CD2       48.0840   77.9170   20.7030 C.ar   76  HIS76       0.1154
     25  CE1       49.5090   76.3180   21.1440 C.ar   76  HIS76       0.1986
     26  NE2       49.3140   77.6240   21.2250 N.ar   76  HIS76      -0.2212
     27  N         44.1280   76.2430   17.1650 N.am   77  LYS77      -0.1980
     28  CA        43.1040   75.5580   16.3610 C.3    77  LYS77       0.1596
     29  C         43.6120   75.3520   14.9430 C.2    77  LYS77       0.2287
     30  O         43.4320   74.2820   14.3690 O.2    77  LYS77      -0.2864
     31  CB        41.7640   76.3480   16.3370 C.3    77  LYS77       0.0298
     32  CG        41.0130   76.3450   17.6860 C.3    77  LYS77       0.0038
     33  CD        39.6390   77.0250   17.6890 C.3    77  LYS77       0.0206
     34  CE        38.6090   76.3360   16.7740 C.3    77  LYS77       0.1093
     35  NZ        37.1750   76.7350   17.0700 N.3    77  LYS77      -0.1314
     36  N         46.5790   72.6900   14.9050 N.3    80  ASP80      -0.1239
     37  CA        45.8970   71.4200   15.1640 C.3    80  ASP80       0.1674
     38  C         45.1140   70.8950   13.9600 C.2    80  ASP80       0.2266
     39  O         45.0830   69.6730   13.7390 O.2    80  ASP80      -0.2867
     40  CB        44.9430   71.5180   16.3700 C.3    80  ASP80       0.1410
     41  CG        44.1440   70.2470   16.5710 C.2    80  ASP80       0.3668
     42  OD1       44.7290   69.2770   17.0900 O.co2  80  ASP80      -0.2456
     43  OD2       42.9320   70.2080   16.2040 O.co2  80  ASP80      -0.2456
     44  N         54.3070   76.2580   24.8710 N.3   100  GLN100     -0.1245
     45  CA        52.9960   75.9090   24.3460 C.3   100  GLN100      0.1566
     46  C         53.0100   75.8640   22.8120 C.2   100  GLN100      0.2260
     47  O         52.5070   74.9290   22.1840 O.2   100  GLN100     -0.2867
     48  CB        52.0150   76.9370   24.8860 C.3   100  GLN100      0.0367
     49  CG        50.5940   76.5640   24.8290 C.3   100  GLN100      0.0905
     50  CD        49.7230   77.6980   25.3430 C.2   100  GLN100      0.2608
     51  OE1       50.0550   78.8690   25.1330 O.2   100  GLN100     -0.2717
     52  NE2       48.5840   77.3570   25.9800 N.am  100  GLN100     -0.0878
     53  N         52.7970   72.4510   20.1130 N.3   104  GLN104     -0.1245
     54  CA        51.7500   72.3120   19.1360 C.3   104  GLN104      0.1566
     55  C         52.3620   71.9830   17.7660 C.2   104  GLN104      0.2260
     56  O         51.6550   71.6010   16.8260 O.2   104  GLN104     -0.2867
     57  CB        50.9040   73.5860   19.0970 C.3   104  GLN104      0.0367
     58  CG        49.6200   73.5150   18.3060 C.3   104  GLN104      0.0905
     59  CD        48.5460   72.6670   18.9580 C.2   104  GLN104      0.2608
     60  OE1       47.9080   73.0840   19.9350 O.2   104  GLN104     -0.2717
     61  NE2       48.3120   71.4900   18.3940 N.am  104  GLN104     -0.0878
     62  N         46.6610   76.2490   31.1120 N.3   128  ASP128     -0.1239
     63  CA        45.5790   75.4460   30.5510 C.3   128  ASP128      0.1674
     64  C         45.9220   73.9310   30.6630 C.2   128  ASP128      0.2266
     65  O         47.1100   73.5530   30.7490 O.2   128  ASP128     -0.2867
     66  CB        45.3670   75.8170   29.0740 C.3   128  ASP128      0.1410
     67  CG        46.6220   75.6120   28.2590 C.2   128  ASP128      0.3668
     68  OD1       47.6630   76.0840   28.7160 O.co2 128  ASP128     -0.2456
     69  OD2       46.5920   74.9740   27.1880 O.co2 128  ASP128     -0.2456
     70  N         45.6620   71.5000   28.4290 N.3   130  TRP130     -0.1241
     71  CA        46.3590   70.9210   27.2950 C.3   130  TRP130      0.1605
     72  C         47.8530   71.0170   27.4650 C.2   130  TRP130      0.2264
     73  O         48.5650   70.0330   27.2510 O.2   130  TRP130     -0.2867
     74  CB        45.9750   71.5850   25.9870 C.3   130  TRP130      0.0550
     75  CG        46.6870   70.9940   24.8080 C.ar  130  TRP130      0.0003
     76  CD1       46.3110   69.9070   24.0820 C.ar  130  TRP130      0.0946
     77  CD2       47.8870   71.4740   24.2120 C.ar  130  TRP130      0.0152
     78  NE1       47.2120   69.6810   23.0570 N.ar  130  TRP130     -0.2442
     79  CE2       48.1780   70.6430   23.1160 C.ar  130  TRP130      0.0810
     80  CE3       48.7360   72.5390   24.4890 C.ar  130  TRP130      0.0012
     81  CZ2       49.2880   70.8150   22.3370 C.ar  130  TRP130      0.0191
     82  CZ3       49.8340   72.7210   23.6860 C.ar  130  TRP130      0.0001
     83  CH2       50.1040   71.8650   22.6280 C.ar  130  TRP130      0.0015
     84  N         43.6160   67.4430   24.6330 N.3   202  ILE202     -0.1245
     85  CA        42.6570   68.5060   24.4560 C.3   202  ILE202      0.1561
     86  C         41.5700   68.2170   25.4310 C.2   202  ILE202      0.2260
     87  O         40.6500   67.4710   25.1220 O.2   202  ILE202     -0.2867
     88  CB        42.0870   68.5830   23.0490 C.3   202  ILE202      0.0252
     89  CG1       43.2350   68.7180   22.0370 C.3   202  ILE202      0.0019
     90  CG2       41.0840   69.7960   22.9420 C.3   202  ILE202      0.0019
     91  CD1       42.8330   68.5490   20.6060 C.3   202  ILE202      0.0001
@<TRIPOS>BOND
     1    39    38    2
     2    38    37    1
     3    30    29    2
     4    36    37    1
     5    29    28    1
     6    37    40    1
     7    43    41   ar
     8    31    28    1
     9    31    32    1
    10    28    27    1
    11    40    41    1
    12    41    42   ar
    13    34    35    1
    14    34    33    1
    15    56    55    2
    16    20    19    2
    17    27    19   am
    18    19    18    1
    19    17    18    1
    20    32    33    1
    21    55    54    1
    22    18    21    1
    23    58    59    1
    24    58    57    1
    25    61    59   am
    26    12    11    2
    27    59    60    2
    28    57    54    1
    29    54    53    1
    30    11    10    1
    31    21    22    1
    32     4     3    2
    33     1     2    1
    34    22    23   ar
    35    22    24   ar
    36     3     2    1
    37     3     9   am
    38     2     5    1
    39    23    25   ar
    40    91    89    1
    41    10     9    1
    42    10    13    1
    43    24    26   ar
    44    15    13    1
    45    25    26   ar
    46    13    14    1
    47     7     6    1
    48     5     6    1
    49    89    88    1
    50    47    46    2
    51    81    83   ar
    52    81    79   ar
    53     6     8    1
    54    83    82   ar
    55    14    16    1
    56    46    45    1
    57    90    88    1
    58    88    85    1
    59    78    79   ar
    60    78    76   ar
    61    79    77   ar
    62    82    80   ar
    63    76    75   ar
    64    77    80   ar
    65    77    75   ar
    66    45    44    1
    67    45    48    1
    68    85    84    1
    69    85    86    1
    70    75    74    1
    71    49    48    1
    72    49    50    1
    73    87    86    2
    74    51    50    2
    75    50    52   am
    76    74    71    1
    77    69    67   ar
    78    73    72    2
    79    71    72    1
    80    71    70    1
    81    67    68   ar
    82    67    66    1
    83    66    63    1
    84    63    64    1
    85    63    62    1
    86    64    65    2
