@<TRIPOS>MOLECULE
tmp/3he3A00.pdb
 193 189 0 0 0
SMALL
GASTEIGER

@<TRIPOS>ATOM
      1  N        -18.8050  -97.8950   42.8550 N.3    89  ALA89      -0.1245
      2  CA       -17.7850  -98.9330   42.9860 C.3    89  ALA89       0.1562
      3  C        -16.6390  -98.4770   43.8880 C.2    89  ALA89       0.2260
      4  O        -16.0590  -97.4140   43.6780 O.2    89  ALA89      -0.2867
      5  CB       -17.2580  -99.3210   41.6210 C.3    89  ALA89       0.0290
      6  N        -20.3020  -96.3850   38.5000 N.3    98  ILE98      -0.1245
      7  CA       -20.2120  -97.5100   37.5760 C.3    98  ILE98       0.1561
      8  C        -21.6190  -97.7210   37.0240 C.2    98  ILE98       0.2260
      9  O        -22.5740  -97.7800   37.7970 O.2    98  ILE98      -0.2867
     10  CB       -19.7320  -98.7880   38.2960 C.3    98  ILE98       0.0252
     11  CG1      -19.8220 -100.0090   37.3740 C.3    98  ILE98       0.0019
     12  CG2      -20.5380  -99.0200   39.5530 C.3    98  ILE98       0.0019
     13  CD1      -18.5390 -100.3070   36.6330 C.3    98  ILE98       0.0001
     14  N        -11.8720 -102.2340   37.6580 N.3   151  PHE151     -0.1227
     15  CA       -13.3240 -102.2860   37.7540 C.3   151  PHE151      0.1736
     16  C        -13.9470 -103.6460   37.4170 C.2   151  PHE151      0.2595
     17  O        -15.0180 -103.9830   37.9320 O.2   151  PHE151     -0.2718
     18  CB       -13.9500 -101.1810   36.8960 C.3   151  PHE151      0.0547
     19  CG       -13.8100  -99.8030   37.4850 C.ar  151  PHE151     -0.0202
     20  CD1      -12.7210  -99.0080   37.1750 C.ar  151  PHE151     -0.0042
     21  CD2      -14.7710  -99.3030   38.3490 C.ar  151  PHE151     -0.0042
     22  CE1      -12.5880  -97.7390   37.7190 C.ar  151  PHE151     -0.0003
     23  CE2      -14.6460  -98.0400   38.8930 C.ar  151  PHE151     -0.0003
     24  CZ       -13.5540  -97.2560   38.5790 C.ar  151  PHE151     -0.0000
     25  N        -13.2840 -104.4290   36.5680 N.am  152  PHE152     -0.1976
     26  CA       -13.9020 -105.6520   36.0520 C.3   152  PHE152      0.1639
     27  C        -13.2250 -106.9750   36.4340 C.2   152  PHE152      0.2290
     28  O        -13.8830 -107.8900   36.9300 O.2   152  PHE152     -0.2864
     29  CB       -14.0750 -105.5610   34.5360 C.3   152  PHE152      0.0560
     30  CG       -15.1370 -104.5870   34.1080 C.ar  152  PHE152     -0.0200
     31  CD1      -16.4540 -104.9980   33.9430 C.ar  152  PHE152     -0.0042
     32  CD2      -14.8210 -103.2570   33.8810 C.ar  152  PHE152     -0.0042
     33  CE1      -17.4320 -104.0960   33.5540 C.ar  152  PHE152     -0.0003
     34  CE2      -15.7940 -102.3530   33.4920 C.ar  152  PHE152     -0.0003
     35  CZ       -17.0990 -102.7720   33.3290 C.ar  152  PHE152     -0.0000
     36  N        -13.8820 -108.1550   40.1060 N.3   155  TYR155     -0.1227
     37  CA       -15.2820 -108.4450   40.3820 C.3   155  TYR155      0.1736
     38  C        -15.6950 -109.7470   39.7170 C.2   155  TYR155      0.2596
     39  O        -16.2570 -110.6390   40.3540 O.2   155  TYR155     -0.2718
     40  CB       -16.1530 -107.2970   39.8680 C.3   155  TYR155      0.0548
     41  CG       -17.6050 -107.3620   40.2800 C.ar  155  TYR155     -0.0200
     42  CD1      -18.0700 -106.6520   41.3800 C.ar  155  TYR155     -0.0009
     43  CD2      -18.5150 -108.1230   39.5610 C.ar  155  TYR155     -0.0009
     44  CE1      -19.4000 -106.7010   41.7540 C.ar  155  TYR155      0.0417
     45  CE2      -19.8450 -108.1810   39.9290 C.ar  155  TYR155      0.0417
     46  CZ       -20.2810 -107.4690   41.0240 C.ar  155  TYR155      0.1957
     47  OH       -21.6070 -107.5270   41.3880 O.3   155  TYR155     -0.2866
     48  N        -15.3970 -109.8450   38.4270 N.am  156  THR156     -0.1953
     49  CA       -15.7390 -111.0100   37.6240 C.3   156  THR156      0.1897
     50  C        -15.1730 -112.3110   38.2000 C.2   156  THR156      0.2313
     51  O        -15.9140 -113.2740   38.4060 O.2   156  THR156     -0.2863
     52  CB       -15.2680 -110.8190   36.1730 C.3   156  THR156      0.1794
     53  OG1      -15.8070 -109.5920   35.6610 O.3   156  THR156     -0.2208
     54  CG2      -15.7190 -111.9800   35.2930 C.3   156  THR156      0.0378
     55  N        -17.2210 -113.0080   41.2630 N.3   159  GLN159     -0.1231
     56  CA       -18.6290 -113.3160   41.0450 C.3   159  GLN159      0.1698
     57  C        -18.8320 -114.6520   40.3420 C.2   159  GLN159      0.2592
     58  O        -19.7850 -115.3750   40.6320 O.2   159  GLN159     -0.2718
     59  CB       -19.2970 -112.2020   40.2380 C.3   159  GLN159      0.0381
     60  CG       -20.6500 -112.5680   39.6480 C.3   159  GLN159      0.0905
     61  CD       -21.7320 -112.7400   40.7030 C.2   159  GLN159      0.2608
     62  OE1      -21.4670 -112.6580   41.9030 O.2   159  GLN159     -0.2717
     63  NE2      -22.9610 -112.9780   40.2550 N.am  159  GLN159     -0.0878
     64  N        -17.9320 -114.9830   39.4240 N.am  160  TRP160     -0.1976
     65  CA       -18.1000 -116.1640   38.5830 C.3   160  TRP160      0.1640
     66  C        -17.1570 -117.3110   38.9300 C.2   160  TRP160      0.2290
     67  O        -17.3980 -118.4610   38.5610 O.2   160  TRP160     -0.2864
     68  CB       -17.9360 -115.7800   37.1160 C.3   160  TRP160      0.0576
     69  CG       -18.9710 -114.8060   36.6660 C.ar  160  TRP160      0.0006
     70  CD1      -18.8320 -113.4540   36.5450 C.ar  160  TRP160      0.0946
     71  CD2      -20.3200 -115.1110   36.2960 C.ar  160  TRP160      0.0152
     72  NE1      -20.0110 -112.8970   36.1110 N.ar  160  TRP160     -0.2442
     73  CE2      -20.9400 -113.8860   35.9530 C.ar  160  TRP160      0.0810
     74  CE3      -21.0630 -116.2900   36.2170 C.ar  160  TRP160      0.0012
     75  CZ2      -22.2720 -113.8200   35.5370 C.ar  160  TRP160      0.0191
     76  CZ3      -22.3810 -116.2210   35.8030 C.ar  160  TRP160      0.0001
     77  CH2      -22.9710 -114.9940   35.4670 C.ar  160  TRP160      0.0015
     78  N        -21.4180 -111.1160   28.9920 N.3   171  VAL171     -0.1231
     79  CA       -21.4890 -110.9260   30.4310 C.3   171  VAL171      0.1692
     80  C        -21.1180 -109.4890   30.8090 C.2   171  VAL171      0.2592
     81  O        -21.9660 -108.7240   31.2730 O.2   171  VAL171     -0.2718
     82  CB       -20.6270 -111.9590   31.1910 C.3   171  VAL171      0.0266
     83  CG1      -20.3960 -111.5120   32.6150 C.3   171  VAL171      0.0020
     84  CG2      -21.2900 -113.3430   31.1540 C.3   171  VAL171      0.0020
     85  N        -19.8620 -109.1150   30.5910 N.am  172  THR172     -0.1953
     86  CA       -19.3960 -107.7720   30.9390 C.3   172  THR172      0.1897
     87  C        -19.9900 -106.6810   30.0480 C.2   172  THR172      0.2313
     88  O        -20.0300 -105.5150   30.4340 O.2   172  THR172     -0.2863
     89  CB       -17.8630 -107.6730   30.9010 C.3   172  THR172      0.1794
     90  OG1      -17.3790 -108.1950   29.6590 O.3   172  THR172     -0.2208
     91  CG2      -17.2560 -108.4600   32.0530 C.3   172  THR172      0.0378
     92  N        -22.8110 -106.1540   29.6660 N.3   174  ARG174     -0.1231
     93  CA       -24.0060 -105.6830   30.3720 C.3   174  ARG174      0.1694
     94  C        -23.7780 -104.3120   31.0130 C.2   174  ARG174      0.2591
     95  O        -24.7160 -103.5360   31.1860 O.2   174  ARG174     -0.2718
     96  CB       -24.4440 -106.6820   31.4510 C.3   174  ARG174      0.0321
     97  CG       -25.1980 -107.8990   30.9390 C.3   174  ARG174      0.0489
     98  CD       -25.3940 -108.9300   32.0480 C.3   174  ARG174      0.2205
     99  NE       -26.1500 -108.3910   33.1750 N.pl3 174  ARG174     -0.0865
    100  CZ       -27.4170 -108.6970   33.4390 C.cat 174  ARG174      0.5346
    101  NH1      -28.0700 -109.5510   32.6620 N.pl3 174  ARG174      0.1354
    102  NH2      -28.0300 -108.1560   34.4810 N.pl3 174  ARG174      0.1354
    103  N        -22.5310 -104.0290   31.3770 N.am  175  VAL175     -0.1980
    104  CA       -22.1710 -102.7480   31.9770 C.3   175  VAL175      0.1595
    105  C        -21.2820 -101.9450   31.0320 C.2   175  VAL175      0.2287
    106  O        -20.0730 -101.8570   31.2340 O.2   175  VAL175     -0.2864
    107  CB       -21.4160 -102.9410   33.3090 C.3   175  VAL175      0.0276
    108  CG1      -21.1970 -101.5990   33.9960 C.3   175  VAL175      0.0022
    109  CG2      -22.1650 -103.9010   34.2180 C.3   175  VAL175      0.0022
    110  N        -27.4740  -96.6780   36.6480 N.3   185  TYR185     -0.1227
    111  CA       -27.0740  -98.0140   36.2550 C.3   185  TYR185      0.1736
    112  C        -27.7930  -98.4290   34.9710 C.2   185  TYR185      0.2595
    113  O        -27.2310  -99.1470   34.1470 O.2   185  TYR185     -0.2718
    114  CB       -27.3130  -99.0160   37.3840 C.3   185  TYR185      0.0548
    115  CG       -26.3270 -100.1620   37.3640 C.ar  185  TYR185     -0.0200
    116  CD1      -24.9800  -99.9440   37.6210 C.ar  185  TYR185     -0.0009
    117  CD2      -26.7390 -101.4570   37.0780 C.ar  185  TYR185     -0.0009
    118  CE1      -24.0750 -100.9810   37.5970 C.ar  185  TYR185      0.0417
    119  CE2      -25.8400 -102.5000   37.0530 C.ar  185  TYR185      0.0417
    120  CZ       -24.5070 -102.2580   37.3140 C.ar  185  TYR185      0.1957
    121  OH       -23.6040 -103.2990   37.2920 O.3   185  TYR185     -0.2866
    122  N        -29.0260  -97.9590   34.7960 N.am  186  PHE186     -0.1976
    123  CA       -29.8050  -98.2680   33.5970 C.3   186  PHE186      0.1639
    124  C        -30.2080  -97.0050   32.8590 C.2   186  PHE186      0.2290
    125  O        -30.4550  -95.9690   33.4750 O.2   186  PHE186     -0.2864
    126  CB       -31.0540  -99.0730   33.9560 C.3   186  PHE186      0.0560
    127  CG       -30.7910 -100.1800   34.9280 C.ar  186  PHE186     -0.0200
    128  CD1      -31.2710 -100.1070   36.2250 C.ar  186  PHE186     -0.0042
    129  CD2      -30.0270 -101.2800   34.5580 C.ar  186  PHE186     -0.0042
    130  CE1      -31.0160 -101.1280   37.1320 C.ar  186  PHE186     -0.0003
    131  CE2      -29.7650 -102.2960   35.4580 C.ar  186  PHE186     -0.0003
    132  CZ       -30.2600 -102.2230   36.7450 C.ar  186  PHE186     -0.0000
    133  N        -20.5930 -101.6210   44.9250 N.3   272  ASN272     -0.1240
    134  CA       -19.8290 -102.7570   44.4000 C.3   272  ASN272      0.1653
    135  C        -18.4110 -102.8070   44.9740 C.2   272  ASN272      0.2266
    136  O        -17.7970 -101.7660   45.2110 O.2   272  ASN272     -0.2867
    137  CB       -19.7440 -102.6910   42.8680 C.3   272  ASN272      0.1155
    138  CG       -21.0240 -103.1450   42.1770 C.2   272  ASN272      0.2627
    139  OD1      -22.0090 -103.5040   42.8230 O.2   272  ASN272     -0.2716
    140  ND2      -21.0100 -103.1270   40.8520 N.am  272  ASN272     -0.0877
    141  N        -15.1520 -104.4730   43.7040 N.3   274  PRO274     -0.2116
    142  CA       -14.3470 -105.1990   42.7120 C.3   274  PRO274      0.1372
    143  C        -13.0450 -105.7620   43.2800 C.2   274  PRO274      0.2244
    144  O        -12.5830 -106.8070   42.8180 O.2   274  PRO274     -0.2868
    145  CB       -14.0130 -104.1220   41.6760 C.3   274  PRO274      0.0268
    146  CG       -15.0620 -103.0770   41.8510 C.3   274  PRO274      0.0207
    147  CD       -15.3760 -103.0710   43.3170 C.3   274  PRO274      0.0892
    148  N        -21.0030 -107.1030   46.7010 N.3   281  ARG281     -0.1245
    149  CA       -21.7180 -105.8380   46.8530 C.3   281  ARG281      0.1563
    150  C        -22.6170 -105.7850   48.0840 C.2   281  ARG281      0.2260
    151  O        -23.1100 -106.8150   48.5540 O.2   281  ARG281     -0.2867
    152  CB       -22.5550 -105.5710   45.6040 C.3   281  ARG281      0.0307
    153  CG       -23.5220 -106.6930   45.2750 C.3   281  ARG281      0.0489
    154  CD       -24.2210 -106.4690   43.9420 C.3   281  ARG281      0.2205
    155  NE       -25.2710 -107.4610   43.7130 N.pl3 281  ARG281     -0.0865
    156  CZ       -25.7720 -107.7670   42.5190 C.cat 281  ARG281      0.5346
    157  NH1      -25.3190 -107.1640   41.4270 N.pl3 281  ARG281      0.1354
    158  NH2      -26.7230 -108.6850   42.4170 N.pl3 281  ARG281      0.1354
    159  N        -27.6460 -117.9400   38.4340 N.3   311  TYR311     -0.1241
    160  CA       -27.0510 -117.4830   37.1810 C.3   311  TYR311      0.1605
    161  C        -26.6770 -118.6320   36.2520 C.2   311  TYR311      0.2264
    162  O        -26.0320 -119.5900   36.6710 O.2   311  TYR311     -0.2867
    163  CB       -25.7740 -116.6920   37.4540 C.3   311  TYR311      0.0534
    164  CG       -25.9400 -115.4430   38.2790 C.ar  311  TYR311     -0.0201
    165  CD1      -25.9370 -115.4990   39.6620 C.ar  311  TYR311     -0.0009
    166  CD2      -26.0620 -114.1990   37.6720 C.ar  311  TYR311     -0.0009
    167  CE1      -26.0720 -114.3570   40.4200 C.ar  311  TYR311      0.0417
    168  CE2      -26.1950 -113.0550   38.4180 C.ar  311  TYR311      0.0417
    169  CZ       -26.2000 -113.1380   39.7920 C.ar  311  TYR311      0.1957
    170  OH       -26.3350 -111.9990   40.5480 O.3   311  TYR311     -0.2866
    171  N        -35.4430 -117.6820   32.9920 N.3   340  ARG340     -0.1245
    172  CA       -33.9880 -117.5870   33.0650 C.3   340  ARG340      0.1563
    173  C        -33.3220 -118.9650   33.1580 C.2   340  ARG340      0.2260
    174  O        -32.4120 -119.2760   32.3880 O.2   340  ARG340     -0.2867
    175  CB       -33.5660 -116.6920   34.2450 C.3   340  ARG340      0.0307
    176  CG       -32.0790 -116.7480   34.5850 C.3   340  ARG340      0.0489
    177  CD       -31.7250 -115.9500   35.8450 C.3   340  ARG340      0.2205
    178  NE       -31.4710 -114.5420   35.5560 N.pl3 340  ARG340     -0.0865
    179  CZ       -30.5470 -113.8060   36.1690 C.cat 340  ARG340      0.5346
    180  NH1      -29.7720 -114.3410   37.0980 N.pl3 340  ARG340      0.1354
    181  NH2      -30.3870 -112.5330   35.8450 N.pl3 340  ARG340      0.1354
    182  N        -29.2340 -115.4350   30.5250 N.3   346  TYR346     -0.1241
    183  CA       -28.9240 -114.3870   31.4950 C.3   346  TYR346      0.1605
    184  C        -29.9250 -113.2400   31.3290 C.2   346  TYR346      0.2264
    185  O        -29.5890 -112.1900   30.7880 O.2   346  TYR346     -0.2867
    186  CB       -27.4960 -113.8760   31.2730 C.3   346  TYR346      0.0534
    187  CG       -26.8840 -113.1410   32.4510 C.ar  346  TYR346     -0.0201
    188  CD1      -27.6690 -112.6890   33.5030 C.ar  346  TYR346     -0.0009
    189  CD2      -25.5190 -112.8750   32.4920 C.ar  346  TYR346     -0.0009
    190  CE1      -27.1110 -112.0100   34.5740 C.ar  346  TYR346      0.0417
    191  CE2      -24.9520 -112.1950   33.5560 C.ar  346  TYR346      0.0417
    192  CZ       -25.7510 -111.7630   34.5960 C.ar  346  TYR346      0.1957
    193  OH       -25.1870 -111.0840   35.6590 O.3   346  TYR346     -0.2866
@<TRIPOS>BOND
     1    78    79    1
     2    90    89    1
     3    92    93    1
     4    87    88    2
     5    87    86    1
     6    93    94    1
     7    93    96    1
     8    79    80    1
     9    79    82    1
    10   182   183    1
    11    85    80   am
    12    85    86    1
    13   185   184    2
    14    80    81    2
    15    89    86    1
    16    89    91    1
    17    97    96    1
    18    97    98    1
    19    94    95    2
    20    94   103   am
    21   105   106    2
    22   105   104    1
    23    84    82    1
    24    82    83    1
    25   186   183    1
    26   186   187    1
    27   184   183    1
    28   103   104    1
    29   104   107    1
    30    98    99    1
    31   174   173    2
    32   187   189   ar
    33   187   188   ar
    34   189   191   ar
    35   101   100    1
    36   124   125    2
    37   124   123    1
    38   171   172    1
    39   172   173    1
    40   172   175    1
    41    99   100    2
    42   107   108    1
    43   107   109    1
    44    35    34   ar
    45    35    33   ar
    46   100   102    1
    47    34    32   ar
    48   188   190   ar
    49    33    31   ar
    50   191   192   ar
    51   123   126    1
    52   123   122    1
    53    32    30   ar
    54    31    30   ar
    55   126   127    1
    56    30    29    1
    57   113   112    2
    58   175   176    1
    59    29    26    1
    60   129   127   ar
    61   129   131   ar
    62   190   192   ar
    63   176   177    1
    64   192   193    1
    65   122   112   am
    66   127   128   ar
    67   112   111    1
    68    54    52    1
    69   131   132   ar
    70    77    75   ar
    71    77    76   ar
    72    75    73   ar
    73   178   177    1
    74   178   179    2
    75    53    52    1
    76    76    74   ar
    77   181   179    1
    78    73    72   ar
    79    73    71   ar
    80    26    27    1
    81    26    25    1
    82    72    70   ar
    83   179   180    1
    84    52    49    1
    85    74    71   ar
    86   128   130   ar
    87   161   162    2
    88   161   160    1
    89   111   110    1
    90   111   114    1
    91    71    69   ar
    92    27    28    2
    93    70    69   ar
    94    25    16   am
    95    13    11    1
    96    69    68    1
    97   132   130   ar
    98    18    19    1
    99    18    15    1
   100     8     7    1
   101     8     9    2
   102   119   117   ar
   103   119   120   ar
   104   117   115   ar
   105    68    65    1
   106    20    19   ar
   107    20    22   ar
   108   160   163    1
   109   160   159    1
   110   121   120    1
   111   120   118   ar
   112   115   114    1
   113   115   116   ar
   114    11    10    1
   115    16    15    1
   116    16    17    2
   117   163   164    1
   118    19    21   ar
   119     7    10    1
   120     7     6    1
   121   118   116   ar
   122    49    50    1
   123    49    48    1
   124    14    15    1
   125   166   164   ar
   126   166   168   ar
   127    22    24   ar
   128    50    51    2
   129   164   165   ar
   130    10    12    1
   131    21    23   ar
   132   168   169   ar
   133    48    38   am
   134    67    66    2
   135    24    23   ar
   136    65    66    1
   137    65    64    1
   138    64    57   am
   139    43    45   ar
   140    43    41   ar
   141    60    59    1
   142    60    61    1
   143   165   167   ar
   144    38    39    2
   145    38    37    1
   146   169   167   ar
   147   169   170    1
   148    40    41    1
   149    40    37    1
   150    45    46   ar
   151    36    37    1
   152    59    56    1
   153    63    61   am
   154    41    42   ar
   155    57    58    2
   156    57    56    1
   157    61    62    2
   158   140   138   am
   159    46    47    1
   160    46    44   ar
   161    56    55    1
   162    42    44   ar
   163   157   156    1
   164     5     2    1
   165   145   146    1
   166   145   142    1
   167   146   147    1
   168   138   139    2
   169   138   137    1
   170   158   156    1
   171   156   155    2
   172   142   143    1
   173   142   141    1
   174   144   143    2
   175     1     2    1
   176   137   134    1
   177     2     3    1
   178   147   141    1
   179     4     3    2
   180   155   154    1
   181   154   153    1
   182   134   133    1
   183   134   135    1
   184   135   136    2
   185   153   152    1
   186   152   149    1
   187   148   149    1
   188   149   150    1
   189   150   151    2
