@<TRIPOS>MOLECULE
tmp/3hecA00.pdb
 223 214 0 0 0
SMALL
GASTEIGER

@<TRIPOS>ATOM
      1  N         24.1450    7.6790  -21.8820 N.3    26  VAL26      -0.1245
      2  CA        22.7450    8.0690  -21.9940 C.3    26  VAL26       0.1561
      3  C         22.0230    8.1000  -20.6300 C.2    26  VAL26       0.2260
      4  O         20.9710    8.7400  -20.4920 O.2    26  VAL26      -0.2867
      5  CB        22.0100    7.2730  -23.1400 C.3    26  VAL26       0.0252
      6  CG1       21.7080    5.8030  -22.7470 C.3    26  VAL26       0.0019
      7  CG2       20.7530    8.0450  -23.6610 C.3    26  VAL26       0.0019
      8  N         24.9300    3.6020  -18.3680 N.3    29  VAL29      -0.1245
      9  CA        24.6440    3.0170  -19.6490 C.3    29  VAL29       0.1561
     10  C         25.1930    4.0080  -20.6870 C.2    29  VAL29       0.2260
     11  O         24.8040    5.1820  -20.7040 O.2    29  VAL29      -0.2867
     12  CB        23.1150    2.9110  -19.8910 C.3    29  VAL29       0.0252
     13  CG1       22.8020    2.3530  -21.2970 C.3    29  VAL29       0.0019
     14  CG2       22.4040    2.0950  -18.7720 C.3    29  VAL29       0.0019
     15  N         23.7690   -0.4710  -26.7900 N.3    42  ALA42      -0.1231
     16  CA        23.7450    0.1090  -25.4470 C.3    42  ALA42       0.1694
     17  C         24.6000   -0.7950  -24.6010 C.2    42  ALA42       0.2592
     18  O         24.4990   -2.0080  -24.6960 O.2    42  ALA42      -0.2718
     19  CB        22.3170    0.1990  -24.8820 C.3    42  ALA42       0.0304
     20  N         25.4710   -0.1800  -23.8130 N.am   43  VAL43      -0.1966
     21  CA        26.3430   -0.8860  -22.8950 C.3    43  VAL43       0.1727
     22  C         26.0210   -0.5080  -21.4090 C.2    43  VAL43       0.2616
     23  O         26.0870    0.6760  -21.0280 O.2    43  VAL43      -0.2715
     24  CB        27.8300   -0.6390  -23.2640 C.3    43  VAL43       0.0290
     25  CG1       28.7480   -1.2410  -22.2470 C.3    43  VAL43       0.0023
     26  CG2       28.1460   -1.2400  -24.6450 C.3    43  VAL43       0.0023
     27  N         25.6490   -1.5050  -20.5960 N.am   44  LYS44      -0.1977
     28  CA        25.4570   -1.2970  -19.1560 C.3    44  LYS44       0.1596
     29  C         26.6000   -1.8600  -18.3550 C.2    44  LYS44       0.2287
     30  O         26.9470   -3.0400  -18.4590 O.2    44  LYS44      -0.2864
     31  CB        24.1460   -1.8870  -18.6230 C.3    44  LYS44       0.0298
     32  CG        23.7990   -1.3310  -17.1890 C.3    44  LYS44       0.0038
     33  CD        22.8420   -2.2290  -16.3890 C.3    44  LYS44       0.0206
     34  CE        21.3970   -1.9630  -16.7200 C.3    44  LYS44       0.1093
     35  NZ        20.4840   -3.0150  -16.2040 N.3    44  LYS44      -0.1314
     36  N         21.0170  -12.7300  -11.4120 N.3    61  ARG61      -0.1231
     37  CA        19.6380  -12.8610  -11.9200 C.3    61  ARG61       0.1694
     38  C         19.4890  -12.1640  -13.2610 C.2    61  ARG61       0.2591
     39  O         18.8130  -12.6700  -14.1640 O.2    61  ARG61      -0.2718
     40  CB        18.6030  -12.2790  -10.9450 C.3    61  ARG61       0.0321
     41  CG        17.1970  -12.0230  -11.5810 C.3    61  ARG61       0.0489
     42  CD        16.2520  -11.1620  -10.6570 C.3    61  ARG61       0.2205
     43  NE        16.0840  -11.8650   -9.3930 N.pl3  61  ARG61      -0.0865
     44  CZ        16.5460  -11.4650   -8.2010 C.cat  61  ARG61       0.5346
     45  NH1       17.1800  -10.2990   -8.0120 N.pl3  61  ARG61       0.1354
     46  NH2       16.3150  -12.2520   -7.1730 N.pl3  61  ARG61       0.1354
     47  N         20.1160  -10.9970  -13.3740 N.am   62  GLU62      -0.1979
     48  CA        19.9790  -10.2100  -14.5690 C.3    62  GLU62       0.1602
     49  C         20.7510  -10.8580  -15.7050 C.2    62  GLU62       0.2287
     50  O         20.3560  -10.7580  -16.8630 O.2    62  GLU62      -0.2864
     51  CB        20.4320   -8.7530  -14.3530 C.3    62  GLU62       0.0415
     52  CG        20.4180   -7.9950  -15.6680 C.3    62  GLU62       0.1163
     53  CD        20.0970   -6.5300  -15.5230 C.2    62  GLU62       0.3649
     54  OE1       19.3200   -6.0050  -16.3830 O.co2  62  GLU62      -0.2457
     55  OE2       20.6590   -5.9070  -14.5790 O.co2  62  GLU62      -0.2457
     56  N         18.6650  -13.8820  -16.8890 N.3    65  LEU65      -0.1231
     57  CA        17.4830  -13.3650  -17.4900 C.3    65  LEU65       0.1693
     58  C         17.7960  -12.8860  -18.8860 C.2    65  LEU65       0.2591
     59  O         17.1060  -13.2890  -19.8630 O.2    65  LEU65      -0.2718
     60  CB        16.9990  -12.2040  -16.6690 C.3    65  LEU65       0.0284
     61  CG        15.5420  -11.8940  -16.5270 C.3    65  LEU65       0.0019
     62  CD1       14.6910  -13.1490  -16.5610 C.3    65  LEU65       0.0001
     63  CD2       15.4870  -11.2540  -15.1200 C.3    65  LEU65       0.0001
     64  N         18.8270  -12.0500  -18.9900 N.am   66  LEU66      -0.1980
     65  CA        19.2330  -11.5760  -20.3120 C.3    66  LEU66       0.1596
     66  C         19.6910  -12.7230  -21.2290 C.2    66  LEU66       0.2287
     67  O         19.3740  -12.7240  -22.4240 O.2    66  LEU66      -0.2864
     68  CB        20.2100  -10.3970  -20.2550 C.3    66  LEU66       0.0297
     69  CG        19.2530   -9.2260  -20.5000 C.3    66  LEU66       0.0022
     70  CD1       18.4400   -8.8120  -19.2580 C.3    66  LEU66       0.0001
     71  CD2       19.9510   -8.0370  -21.0710 C.3    66  LEU66       0.0001
     72  N         16.1980  -14.4680  -22.6380 N.3    69  MET69      -0.1245
     73  CA        15.2800  -13.7270  -23.5540 C.3    69  MET69       0.1570
     74  C         15.6590  -13.6950  -25.0360 C.2    69  MET69       0.2261
     75  O         16.5550  -12.9510  -25.4620 O.2    69  MET69      -0.2867
     76  CB        15.0600  -12.2890  -23.0720 C.3    69  MET69       0.0387
     77  CG        14.8380  -12.1990  -21.6160 C.3    69  MET69       0.0595
     78  SD        13.1980  -12.7850  -21.2150 S.3    69  MET69      -0.1393
     79  CE        13.2310  -14.5590  -21.3260 C.3    69  MET69       0.0692
     80  N         11.0840   -8.6330  -26.9410 N.3    74  VAL74      -0.1231
     81  CA        11.7120   -8.5360  -25.6530 C.3    74  VAL74       0.1692
     82  C         13.1400   -8.2440  -25.9160 C.2    74  VAL74       0.2591
     83  O         13.7320   -8.8840  -26.7910 O.2    74  VAL74      -0.2718
     84  CB        11.6950   -9.8890  -24.9530 C.3    74  VAL74       0.0266
     85  CG1       12.3040   -9.7700  -23.5650 C.3    74  VAL74       0.0020
     86  CG2       10.2720  -10.4740  -24.9080 C.3    74  VAL74       0.0020
     87  N         13.7310   -7.3300  -25.1690 N.am   75  ILE75      -0.1980
     88  CA        15.1970   -7.1500  -25.2260 C.3    75  ILE75       0.1595
     89  C         16.0330   -8.4310  -25.1300 C.2    75  ILE75       0.2287
     90  O         15.7300   -9.3100  -24.3210 O.2    75  ILE75      -0.2864
     91  CB        15.6700   -6.2110  -24.1260 C.3    75  ILE75       0.0276
     92  CG1       17.0190   -5.6330  -24.5120 C.3    75  ILE75       0.0022
     93  CG2       15.6660   -6.8890  -22.7810 C.3    75  ILE75       0.0022
     94  CD1       17.1310   -4.1940  -24.1170 C.3    75  ILE75       0.0001
     95  N         27.0090   -5.5170  -19.9450 N.3    95  LEU95      -0.1245
     96  CA        26.0570   -6.1490  -20.8100 C.3    95  LEU95       0.1561
     97  C         25.7400   -5.2260  -21.9910 C.2    95  LEU95       0.2260
     98  O         25.6740   -3.9640  -21.8560 O.2    95  LEU95      -0.2867
     99  CB        24.7930   -6.4110  -20.0430 C.3    95  LEU95       0.0270
    100  CG        24.8130   -7.0930  -18.6800 C.3    95  LEU95       0.0019
    101  CD1       23.6180   -6.5100  -17.9380 C.3    95  LEU95       0.0001
    102  CD2       24.7610   -8.6480  -18.7760 C.3    95  LEU95       0.0001
    103  N         23.1800   -4.5360  -25.3930 N.3    97  THR97      -0.1203
    104  CA        21.9490   -4.7240  -26.1530 C.3    97  THR97       0.1994
    105  C         21.8700   -3.7690  -27.3530 C.2    97  THR97       0.2618
    106  O         22.7910   -2.9540  -27.6070 O.2    97  THR97      -0.2717
    107  CB        20.6660   -4.5700  -25.2860 C.3    97  THR97       0.1784
    108  OG1       20.5560   -3.2170  -24.8410 O.3    97  THR97      -0.2211
    109  CG2       20.6780   -5.4750  -24.0690 C.3    97  THR97       0.0376
    110  N         20.7800   -3.8870  -28.1100 N.am   98  HIS98      -0.1961
    111  CA        20.5420   -3.0020  -29.2370 C.3    98  HIS98       0.1787
    112  C         20.3330   -1.6480  -28.6340 C.2    98  HIS98       0.2620
    113  O         19.8170   -1.5500  -27.5310 O.2    98  HIS98      -0.2715
    114  CB        19.2750   -3.4120  -30.0450 C.3    98  HIS98       0.0785
    115  CG        19.3990   -4.7390  -30.7650 C.ar   98  HIS98       0.0821
    116  ND1       20.1040   -4.8930  -31.9470 N.ar   98  HIS98      -0.2267
    117  CD2       18.9140   -5.9700  -30.4570 C.ar   98  HIS98       0.1154
    118  CE1       20.0490   -6.1550  -32.3320 C.ar   98  HIS98       0.1986
    119  NE2       19.3300   -6.8310  -31.4470 N.ar   98  HIS98      -0.2212
    120  N         20.7530   -0.6060  -29.3260 N.am   99  LEU99      -0.1963
    121  CA        20.4170    0.7250  -28.8960 C.3    99  LEU99       0.1728
    122  C         18.9790    0.9820  -29.3260 C.2    99  LEU99       0.2616
    123  O         18.5360    0.5240  -30.3760 O.2    99  LEU99      -0.2715
    124  CB        21.3600    1.7590  -29.5130 C.3    99  LEU99       0.0311
    125  CG        21.2330    3.1330  -28.8570 C.3    99  LEU99       0.0022
    126  CD1       21.8390    3.0270  -27.4550 C.3    99  LEU99       0.0001
    127  CD2       21.8090    4.3210  -29.6700 C.3    99  LEU99       0.0001
    128  N         18.2340    1.7090  -28.5210 N.am  100  MET100     -0.1977
    129  CA        16.8550    2.0070  -28.8920 C.3   100  MET100      0.1605
    130  C         16.6890    3.4750  -29.2750 C.2   100  MET100      0.2287
    131  O         17.2000    4.3690  -28.5830 O.2   100  MET100     -0.2864
    132  CB        15.9000    1.5940  -27.7650 C.3   100  MET100      0.0413
    133  CG        15.8910    0.0530  -27.4990 C.3   100  MET100      0.0598
    134  SD        15.9260   -1.0790  -28.9600 S.3   100  MET100     -0.1393
    135  CE        14.5400   -0.5240  -30.0330 C.3   100  MET100      0.0692
    136  N          7.5170  -13.9400  -22.0010 N.3   132  ILE132     -0.1245
    137  CA         7.9900  -13.7310  -20.5970 C.3   132  ILE132      0.1561
    138  C          7.2170  -14.6570  -19.5960 C.2   132  ILE132      0.2260
    139  O          7.7900  -15.4400  -18.8480 O.2   132  ILE132     -0.2867
    140  CB         7.8000  -12.2270  -20.1710 C.3   132  ILE132      0.0252
    141  CG1        8.5430  -11.2550  -21.0870 C.3   132  ILE132      0.0019
    142  CG2        8.2430  -11.9750  -18.7650 C.3   132  ILE132      0.0019
    143  CD1        9.9100  -11.6830  -21.3180 C.3   132  ILE132      0.0001
    144  N          8.2710  -15.7830  -15.7560 N.3   137  ILE137     -0.1231
    145  CA         8.9170  -14.5440  -15.3860 C.3   137  ILE137      0.1692
    146  C          7.8270  -13.4650  -15.3100 C.2   137  ILE137      0.2592
    147  O          7.0040  -13.3770  -16.1870 O.2   137  ILE137     -0.2718
    148  CB        10.0350  -14.1720  -16.4240 C.3   137  ILE137      0.0266
    149  CG1       11.1370  -15.2280  -16.4450 C.3   137  ILE137      0.0019
    150  CG2       10.6350  -12.7850  -16.1980 C.3   137  ILE137      0.0020
    151  CD1       11.9890  -15.1340  -17.7200 C.3   137  ILE137      0.0001
    152  N          7.8050  -12.6720  -14.2490 N.am  138  ILE138     -0.1966
    153  CA         6.8550  -11.5570  -14.1690 C.3   138  ILE138      0.1727
    154  C          7.5850  -10.2280  -14.3780 C.2   138  ILE138      0.2616
    155  O          8.6100   -9.9670  -13.7580 O.2   138  ILE138     -0.2715
    156  CB         6.0500  -11.5260  -12.8440 C.3   138  ILE138      0.0290
    157  CG1        5.4460  -12.9060  -12.5510 C.3   138  ILE138      0.0022
    158  CG2        4.8930  -10.5380  -12.9720 C.3   138  ILE138      0.0023
    159  CD1        4.6880  -13.0250  -11.1750 C.3   138  ILE138      0.0001
    160  N          7.0850   -9.3940  -15.2820 N.am  139  HIS139     -0.1959
    161  CA         7.8130   -8.1870  -15.5230 C.3   139  HIS139      0.1787
    162  C          7.8020   -7.2860  -14.2900 C.2   139  HIS139      0.2620
    163  O          8.8750   -6.9590  -13.7960 O.2   139  HIS139     -0.2715
    164  CB         7.3440   -7.4320  -16.7520 C.3   139  HIS139      0.0785
    165  CG         8.2690   -6.3100  -17.0950 C.ar  139  HIS139      0.0821
    166  ND1        8.2890   -5.1270  -16.3880 N.ar  139  HIS139     -0.2267
    167  CD2        9.2860   -6.2320  -17.9840 C.ar  139  HIS139      0.1154
    168  CE1        9.2440   -4.3490  -16.8620 C.ar  139  HIS139      0.1986
    169  NE2        9.8540   -4.9910  -17.8390 N.ar  139  HIS139     -0.2212
    170  N          6.5990   -6.8820  -13.8320 N.am  140  ARG140     -0.1963
    171  CA         6.4020   -6.1140  -12.6020 C.3   140  ARG140      0.1729
    172  C          6.5410   -4.6080  -12.7320 C.2   140  ARG140      0.2616
    173  O          6.1500   -3.9030  -11.8580 O.2   140  ARG140     -0.2715
    174  CB         7.3650   -6.5990  -11.5100 C.3   140  ARG140      0.0348
    175  CG         6.7400   -7.4440  -10.4210 C.3   140  ARG140      0.0492
    176  CD         7.7330   -7.6900   -9.2930 C.3   140  ARG140      0.2205
    177  NE         7.0590   -8.2140   -8.0850 N.pl3 140  ARG140     -0.0865
    178  CZ         6.7910   -9.5100   -7.8400 C.cat 140  ARG140      0.5346
    179  NH1        7.1050  -10.4860   -8.6990 N.pl3 140  ARG140      0.1354
    180  NH2        6.1910   -9.8390   -6.7090 N.pl3 140  ARG140      0.1354
    181  N          7.1500   -4.1160  -13.7960 N.am  141  ASP141     -0.1971
    182  CA         7.4220   -2.6780  -13.8990 C.3   141  ASP141      0.1709
    183  C          7.1430   -2.1620  -15.2950 C.2   141  ASP141      0.2293
    184  O          7.9430   -1.3500  -15.7940 O.2   141  ASP141     -0.2864
    185  CB         8.9220   -2.3540  -13.6710 C.3   141  ASP141      0.1436
    186  CG         9.5090   -3.0060  -12.4210 C.2   141  ASP141      0.3671
    187  OD1       10.3940   -3.8970  -12.5660 O.co2 141  ASP141     -0.2456
    188  OD2        9.1020   -2.6140  -11.2970 O.co2 141  ASP141     -0.2456
    189  N         10.2100   -4.9510  -25.1150 N.3   157  ILE157     -0.1231
    190  CA        10.1180   -4.8370  -23.6620 C.3   157  ILE157      0.1692
    191  C         11.5120   -4.8760  -23.0060 C.2   157  ILE157      0.2592
    192  O         12.3180   -5.7800  -23.2730 O.2   157  ILE157     -0.2718
    193  CB         9.2370   -5.9800  -23.0740 C.3   157  ILE157      0.0266
    194  CG1        7.8220   -5.9470  -23.6750 C.3   157  ILE157      0.0019
    195  CG2        9.1360   -5.8620  -21.5370 C.3   157  ILE157      0.0020
    196  CD1        7.0680   -7.2510  -23.5680 C.3   157  ILE157      0.0001
    197  N         11.7920   -3.8910  -22.1540 N.am  158  LEU158     -0.1966
    198  CA        12.9800   -3.9170  -21.3100 C.3   158  LEU158      0.1728
    199  C         12.6480   -3.6310  -19.8530 C.2   158  LEU158      0.2616
    200  O         11.4870   -3.6110  -19.4220 O.2   158  LEU158     -0.2715
    201  CB        13.9840   -2.8620  -21.7460 C.3   158  LEU158      0.0311
    202  CG        13.8940   -2.0900  -23.0620 C.3   158  LEU158      0.0022
    203  CD1       13.0470   -0.9100  -22.7970 C.3   158  LEU158      0.0001
    204  CD2       15.2710   -1.5710  -23.5410 C.3   158  LEU158      0.0001
    205  N         13.7100   -3.3940  -19.1050 N.am  159  ASP159     -0.1957
    206  CA        13.6430   -2.8970  -17.7580 C.3   159  ASP159      0.1840
    207  C         14.9430   -2.1420  -17.5320 C.2   159  ASP159      0.2622
    208  O         16.0220   -2.6600  -17.7870 O.2   159  ASP159     -0.2715
    209  CB        13.4810   -4.0420  -16.7490 C.3   159  ASP159      0.1450
    210  CG        12.9030   -3.5790  -15.4190 C.2   159  ASP159      0.3671
    211  OD1       12.6720   -2.3730  -15.2470 O.co2 159  ASP159     -0.2456
    212  OD2       12.6640   -4.4060  -14.5310 O.co2 159  ASP159     -0.2456
    213  N         14.7980   -0.8950  -17.1070 N.am  160  PHE160     -0.1974
    214  CA        15.8910   -0.0040  -16.7510 C.3   160  PHE160      0.1639
    215  C         16.3710   -0.4160  -15.3740 C.2   160  PHE160      0.2290
    216  O         16.1400    0.3190  -14.4100 O.2   160  PHE160     -0.2864
    217  CB        15.3830    1.4540  -16.6570 C.3   160  PHE160      0.0560
    218  CG        15.5100    2.2600  -17.9570 C.ar  160  PHE160     -0.0200
    219  CD1       16.0970    3.5590  -17.9390 C.ar  160  PHE160     -0.0042
    220  CD2       15.0480    1.7500  -19.1830 C.ar  160  PHE160     -0.0042
    221  CE1       16.2230    4.3450  -19.1170 C.ar  160  PHE160     -0.0003
    222  CE2       15.1700    2.5270  -20.3910 C.ar  160  PHE160     -0.0003
    223  CZ        15.7600    3.8350  -20.3440 C.ar  160  PHE160     -0.0000
@<TRIPOS>BOND
     1   118   116   ar
     2   118   119   ar
     3   116   115   ar
     4   119   117   ar
     5   115   117   ar
     6   115   114    1
     7   123   122    2
     8   114   111    1
     9   135   134    1
    10   127   125    1
    11   124   121    1
    12   124   125    1
    13   122   121    1
    14   122   128   am
    15   120   121    1
    16   120   112   am
    17   130   129    1
    18   130   131    2
    19   111   112    1
    20   111   110    1
    21   134   133    1
    22   129   128    1
    23   129   132    1
    24   125   126    1
    25   112   113    2
    26   110   105   am
    27   132   133    1
    28   106   105    2
    29   105   104    1
    30    80    81    1
    31    83    82    2
    32    15    16    1
    33   104   103    1
    34   104   107    1
    35    82    81    1
    36    82    87   am
    37    81    84    1
    38    75    74    2
    39    16    19    1
    40    16    17    1
    41   107   108    1
    42   107   109    1
    43    88    87    1
    44    88    89    1
    45    88    91    1
    46    89    90    2
    47   189   190    1
    48    74    73    1
    49    84    86    1
    50    84    85    1
    51    18    17    2
    52    26    24    1
    53    17    20   am
    54    92    91    1
    55    92    94    1
    56    91    93    1
    57    20    21    1
    58   194   196    1
    59   194   193    1
    60   190   193    1
    61   190   191    1
    62     7     5    1
    63    73    76    1
    64    73    72    1
    65   204   202    1
    66   192   191    2
    67    24    21    1
    68    24    25    1
    69     5     6    1
    70     5     2    1
    71   193   195    1
    72    76    77    1
    73   202   203    1
    74   202   201    1
    75   191   197   am
    76    21    22    1
    77    67    66    2
    78   197   198    1
    79   136   137    1
    80     2     1    1
    81     2     3    1
    82    97    98    2
    83    97    96    1
    84   201   198    1
    85    77    78    1
    86    22    23    2
    87    22    27   am
    88    79    78    1
    89   143   141    1
    90   198   199    1
    91    13    12    1
    92    66    65    1
    93   141   140    1
    94    71    69    1
    95    96    99    1
    96    96    95    1
    97    11    10    2
    98    10     9    1
    99     3     4    2
   100   137   140    1
   101   137   138    1
   102    27    28    1
   103    69    68    1
   104    69    70    1
   105   222   223   ar
   106   222   220   ar
   107   223   221   ar
   108    65    68    1
   109    65    64    1
   110   140   142    1
   111    99   100    1
   112    12     9    1
   113    12    14    1
   114    59    58    2
   115   199   200    2
   116   199   205   am
   117     9     8    1
   118   138   139    2
   119   220   218   ar
   120    28    31    1
   121    28    29    1
   122   221   219   ar
   123   205   206    1
   124    64    58   am
   125    58    57    1
   126   102   100    1
   127   100   101    1
   128    31    32    1
   129    30    29    2
   130   167   169   ar
   131   167   165   ar
   132   218   219   ar
   133   218   217    1
   134   169   168   ar
   135   208   207    2
   136   206   207    1
   137   206   209    1
   138   151   149    1
   139   207   213   am
   140    57    56    1
   141    57    60    1
   142    32    33    1
   143   213   214    1
   144   165   164    1
   145   165   166   ar
   146    50    49    2
   147   168   166   ar
   148   164   161    1
   149   214   217    1
   150   214   215    1
   151   209   210    1
   152    34    33    1
   153    34    35    1
   154    60    61    1
   155    62    61    1
   156    61    63    1
   157   149   148    1
   158   148   150    1
   159   148   145    1
   160    54    53   ar
   161   147   146    2
   162   184   183    2
   163   144   145    1
   164    49    48    1
   165    52    53    1
   166    52    51    1
   167   161   160    1
   168   161   162    1
   169    53    55   ar
   170   210   211   ar
   171   210   212   ar
   172   145   146    1
   173   215   216    2
   174   146   152   am
   175   183   182    1
   176   160   154   am
   177    48    51    1
   178    48    47    1
   179   154   153    1
   180   154   155    2
   181   162   170   am
   182   162   163    2
   183   152   153    1
   184   153   156    1
   185    39    38    2
   186   182   181    1
   187   182   185    1
   188   170   171    1
   189   181   172   am
   190   185   186    1
   191    47    38   am
   192    38    37    1
   193   158   156    1
   194   156   157    1
   195   172   171    1
   196   172   173    2
   197   171   174    1
   198   187   186   ar
   199   157   159    1
   200   186   188   ar
   201    37    36    1
   202    37    40    1
   203    41    40    1
   204    41    42    1
   205   174   175    1
   206    42    43    1
   207   175   176    1
   208    43    44    2
   209   176   177    1
   210   179   178    1
   211    44    45    1
   212    44    46    1
   213   177   178    2
   214   178   180    1
