@<TRIPOS>MOLECULE
tmp/3heeB01.pdb
 80 76 0 0 0
SMALL
GASTEIGER

@<TRIPOS>ATOM
      1  N         50.1860    0.8460   10.4660 N.3     8  ASP8       -0.1225
      2  CA        51.0900    2.0370   10.3780 C.3     8  ASP8        0.1805
      3  C         51.9860    2.1150   11.6290 C.2     8  ASP8        0.2598
      4  O         52.0480    1.1320   12.4140 O.2     8  ASP8       -0.2718
      5  CB        50.2840    3.3350   10.0700 C.3     8  ASP8        0.1424
      6  CG        49.4040    3.7740   11.2270 C.2     8  ASP8        0.3668
      7  OD1       49.3890    3.0760   12.2780 O.co2   8  ASP8       -0.2456
      8  OD2       48.6960    4.8010   11.0640 O.co2   8  ASP8       -0.2456
      9  N         52.6980    3.2530   11.8430 N.am    9  HIS9       -0.1961
     10  CA        53.5760    3.4460   13.0190 C.3     9  HIS9        0.1787
     11  C         52.6630    3.4820   14.2860 C.2     9  HIS9        0.2620
     12  O         53.1050    3.1260   15.3510 O.2     9  HIS9       -0.2715
     13  CB        54.2730    4.8220   12.9200 C.3     9  HIS9        0.0785
     14  CG        53.3060    5.9560   12.6640 C.ar    9  HIS9        0.0821
     15  ND1       52.6990    6.1580   11.4360 N.ar    9  HIS9       -0.2267
     16  CD2       52.8420    6.9440   13.4800 C.ar    9  HIS9        0.1154
     17  CE1       51.8690    7.1910   11.5220 C.ar    9  HIS9        0.1986
     18  NE2       51.9450    7.6890   12.7490 N.ar    9  HIS9       -0.2212
     19  N         51.4250    3.9570   14.1480 N.am   10  GLY10      -0.1954
     20  CA        50.4130    3.9870   15.2130 C.3    10  GLY10       0.1869
     21  C         50.0230    2.5830   15.7580 C.2    10  GLY10       0.2309
     22  O         49.5760    2.5100   16.8960 O.2    10  GLY10      -0.2863
     23  N         56.9440    7.6170   10.8630 N.3    39  SER39      -0.1217
     24  CA        55.5990    7.9250   10.3890 C.3    39  SER39       0.1889
     25  C         55.3800    7.3250    8.9980 C.2    39  SER39       0.2288
     26  O         56.1510    7.5620    8.1040 O.2    39  SER39      -0.2866
     27  CB        55.2740    9.4450   10.3800 C.3    39  SER39       0.2089
     28  OG        55.0550    9.9130   11.7120 O.3    39  SER39      -0.2183
     29  N         48.6930    4.6840    6.8760 N.3    42  TYR42      -0.1241
     30  CA        47.8910    3.4680    7.1210 C.3    42  TYR42       0.1605
     31  C         47.2390    2.9380    5.8090 C.2    42  TYR42       0.2264
     32  O         47.1220    1.7570    5.6920 O.2    42  TYR42      -0.2867
     33  CB        46.8360    3.6790    8.2150 C.3    42  TYR42       0.0534
     34  CG        45.8020    4.7670    7.9150 C.ar   42  TYR42      -0.0201
     35  CD1       44.6830    4.5070    7.1110 C.ar   42  TYR42      -0.0009
     36  CD2       45.9870    6.1120    8.3970 C.ar   42  TYR42      -0.0009
     37  CE1       43.7110    5.5610    6.7560 C.ar   42  TYR42       0.0417
     38  CE2       45.0150    7.1030    8.1100 C.ar   42  TYR42       0.0417
     39  CZ        43.9360    6.8300    7.2720 C.ar   42  TYR42       0.1957
     40  OH        43.0450    7.8070    7.0060 O.3    42  TYR42      -0.2866
     41  N         45.9710    0.3780   13.5620 N.3    65  CYS65      -0.1221
     42  CA        46.5190    1.7430   13.4910 C.3    65  CYS65       0.1808
     43  C         46.1720    2.3460   14.8210 C.2    65  CYS65       0.2602
     44  O         45.8940    1.5970   15.7860 O.2    65  CYS65      -0.2717
     45  CB        45.9780    2.5520   12.2580 C.3    65  CYS65       0.0970
     46  SG        44.1680    2.8570   12.1630 S.3    65  CYS65      -0.0800
     47  N         46.2620    3.6670   14.9440 N.am   66  GLY66      -0.1942
     48  CA        46.0270    4.2580   16.2560 C.3    66  GLY66       0.2014
     49  C         44.6230    3.8980   16.7310 C.2    66  GLY66       0.2639
     50  O         44.4370    3.5180   17.9290 O.2    66  GLY66      -0.2714
     51  N         43.6010    4.0370   15.8710 N.am   67  THR67      -0.1950
     52  CA        42.2320    3.6870   16.3540 C.3    67  THR67       0.1897
     53  C         41.6330    2.4530   15.6950 C.2    67  THR67       0.2313
     54  O         40.5240    2.0450   16.0480 O.2    67  THR67      -0.2863
     55  CB        41.2260    4.7850   16.0180 C.3    67  THR67       0.1794
     56  OG1       41.3180    4.9960   14.5870 O.3    67  THR67      -0.2208
     57  CG2       41.5830    6.0680   16.7660 C.3    67  THR67       0.0378
     58  N         40.4440    2.7830   12.7560 N.3    69  LEU69      -0.1231
     59  CA        39.4280    3.2880   11.8240 C.3    69  LEU69       0.1693
     60  C         39.9590    3.4750   10.4220 C.2    69  LEU69       0.2592
     61  O         39.3400    2.9410    9.4640 O.2    69  LEU69      -0.2718
     62  CB        38.8150    4.6350   12.3130 C.3    69  LEU69       0.0284
     63  CG        38.0140    4.4850   13.6080 C.3    69  LEU69       0.0019
     64  CD1       37.6920    5.8910   14.2210 C.3    69  LEU69       0.0001
     65  CD2       36.8040    3.7370   13.3670 C.3    69  LEU69       0.0001
     66  N         41.0940    4.1800   10.2670 N.am   70  GLY70      -0.1957
     67  CA        41.5920    4.5310    8.9310 C.3    70  GLY70       0.1869
     68  C         41.9750    3.2880    8.1780 C.2    70  GLY70       0.2309
     69  O         41.5900    3.1120    6.9980 O.2    70  GLY70      -0.2863
     70  N         45.9920    2.6830   20.2640 N.3   109  ARG109     -0.1301
     71  CA        45.7670    3.7840   21.2460 C.3   109  ARG109      0.1248
     72  C         44.4540    3.6960   22.0040 C.3   109  ARG109      0.2009
     73  O         44.1200    4.5760   22.8820 O.3   109  ARG109     -0.2188
     74  CB        45.7550    5.0850   20.4170 C.3   109  ARG109      0.0254
     75  CG        47.1150    5.2380   19.7570 C.3   109  ARG109      0.0485
     76  CD        47.0960    6.4340   18.7700 C.3   109  ARG109      0.2205
     77  NE        48.3620    6.6060   18.0450 N.pl3 109  ARG109     -0.0865
     78  CZ        48.5560    7.5510   17.1090 C.cat 109  ARG109      0.5346
     79  NH1       47.5390    8.3940   16.7550 N.pl3 109  ARG109      0.1354
     80  NH2       49.7680    7.6530   16.5570 N.pl3 109  ARG109      0.1354
@<TRIPOS>BOND
     1    32    31    2
     2    31    30    1
     3    37    35   ar
     4    37    39   ar
     5    29    30    1
     6    69    68    2
     7    40    39    1
     8    35    34   ar
     9    30    33    1
    10    39    38   ar
    11    34    33    1
    12    34    36   ar
    13    26    25    2
    14    38    36   ar
    15    68    67    1
    16    67    66    1
    17    25    24    1
    18    61    60    2
    19     5     2    1
    20     5     6    1
    21    66    60   am
    22     2     1    1
    23     2     3    1
    24    27    24    1
    25    27    28    1
    26    24    23    1
    27    60    59    1
    28     8     6   ar
    29     6     7   ar
    30    15    17   ar
    31    15    14   ar
    32    17    18   ar
    33     3     9   am
    34     3     4    2
    35    59    62    1
    36    59    58    1
    37     9    10    1
    38    46    45    1
    39    45    42    1
    40    62    63    1
    41    14    13    1
    42    14    16   ar
    43    18    16   ar
    44    13    10    1
    45    10    11    1
    46    65    63    1
    47    42    41    1
    48    42    43    1
    49    63    64    1
    50    19    11   am
    51    19    20    1
    52    11    12    2
    53    56    55    1
    54    43    47   am
    55    43    44    2
    56    47    48    1
    57    20    21    1
    58    53    54    2
    59    53    52    1
    60    21    22    2
    61    51    52    1
    62    51    49   am
    63    55    52    1
    64    55    57    1
    65    48    49    1
    66    80    78    1
    67    49    50    2
    68    79    78    1
    69    78    77    2
    70    77    76    1
    71    76    75    1
    72    75    74    1
    73    70    71    1
    74    74    71    1
    75    71    72    1
    76    72    73    1
