@<TRIPOS>MOLECULE
tmp/3hegA00.pdb
 202 192 0 0 0
SMALL
GASTEIGER

@<TRIPOS>ATOM
      1  N          9.5930    1.4200   11.0060 N.3    26  VAL26      -0.1245
      2  CA         8.2490    0.8680   10.8570 C.3    26  VAL26       0.1561
      3  C          7.1870    1.9330   11.1640 C.2    26  VAL26       0.2260
      4  O          6.1290    2.0180   10.4980 O.2    26  VAL26      -0.2867
      5  CB         8.0970   -0.4230   11.7430 C.3    26  VAL26       0.0252
      6  CG1        7.4790   -0.1270   13.0960 C.3    26  VAL26       0.0019
      7  CG2        7.3240   -1.5150   11.0240 C.3    26  VAL26       0.0019
      8  N          3.8900    5.5300   15.3640 N.3    27  TYR27      -0.1241
      9  CA         4.0700    6.4460   16.4900 C.3    27  TYR27       0.1605
     10  C          5.0480    7.6010   16.1790 C.2    27  TYR27       0.2264
     11  O          4.7460    8.5210   15.3970 O.2    27  TYR27      -0.2867
     12  CB         4.5080    5.6580   17.7620 C.3    27  TYR27       0.0534
     13  CG         3.8020    6.0250   19.0490 C.ar   27  TYR27      -0.0201
     14  CD1        3.8850    7.3170   19.5720 C.ar   27  TYR27      -0.0009
     15  CD2        3.0720    5.0700   19.7660 C.ar   27  TYR27      -0.0009
     16  CE1        3.2580    7.6510   20.7730 C.ar   27  TYR27       0.0417
     17  CE2        2.4420    5.3960   20.9730 C.ar   27  TYR27       0.0417
     18  CZ         2.5420    6.6910   21.4640 C.ar   27  TYR27       0.1957
     19  OH         1.9500    7.0410   22.6530 O.3    27  TYR27      -0.2866
     20  N          9.7770    4.0490   15.6220 N.3    30  VAL30      -0.1245
     21  CA         9.6050    2.6540   15.9410 C.3    30  VAL30       0.1561
     22  C         10.4310    1.8690   14.9300 C.2    30  VAL30       0.2260
     23  O         10.4990    2.2130   13.7300 O.2    30  VAL30      -0.2867
     24  CB         8.0900    2.2220   15.9010 C.3    30  VAL30       0.0252
     25  CG1        7.9160    0.7470   16.1630 C.3    30  VAL30       0.0019
     26  CG2        7.2630    3.0170   16.9220 C.3    30  VAL30       0.0019
     27  N          8.2870   -4.5660   18.4650 N.3    43  ALA43      -0.1245
     28  CA         8.3690   -3.1410   18.2070 C.3    43  ALA43       0.1562
     29  C          9.2270   -2.5080   19.2940 C.2    43  ALA43       0.2260
     30  O          8.9660   -2.6920   20.4920 O.2    43  ALA43      -0.2867
     31  CB         6.9910   -2.5240   18.2100 C.3    43  ALA43       0.0290
     32  N         10.3050    1.1870   20.4730 N.3    45  LYS45      -0.1245
     33  CA         9.9440    2.5820   20.2790 C.3    45  LYS45       0.1561
     34  C         10.9390    3.4570   21.0430 C.2    45  LYS45       0.2260
     35  O         11.1510    3.2780   22.2450 O.2    45  LYS45      -0.2867
     36  CB         8.4870    2.8430   20.6990 C.3    45  LYS45       0.0271
     37  CG         8.0150    4.3290   20.6830 C.3    45  LYS45       0.0035
     38  CD         6.5340    4.4440   21.1240 C.3    45  LYS45       0.0206
     39  CE         6.1140    5.8390   21.7040 C.3    45  LYS45       0.1093
     40  NZ         5.3390    5.7810   23.1070 N.3    45  LYS45      -0.1314
     41  N          3.1620    7.3570   30.4130 N.3    63  GLU63      -0.1245
     42  CA         3.1350    6.2620   29.4280 C.3    63  GLU63       0.1567
     43  C          3.8770    5.0610   30.0200 C.2    63  GLU63       0.2260
     44  O          3.3710    3.9540   29.9870 O.2    63  GLU63      -0.2867
     45  CB         3.7690    6.7440   28.1170 C.3    63  GLU63       0.0388
     46  CG         4.2310    5.6830   27.1470 C.3    63  GLU63       0.1160
     47  CD         3.1210    5.1870   26.2200 C.2    63  GLU63       0.3649
     48  OE1        3.4810    4.5980   25.1550 O.co2  63  GLU63      -0.2457
     49  OE2        1.9130    5.3580   26.5520 O.co2  63  GLU63      -0.2457
     50  N          1.8300    3.3900   32.7670 N.3    66  LEU66      -0.1231
     51  CA         0.6500    2.6850   32.2350 C.3    66  LEU66       0.1693
     52  C          1.0680    1.3680   31.5640 C.2    66  LEU66       0.2591
     53  O          0.4970    0.3080   31.8350 O.2    66  LEU66      -0.2718
     54  CB        -0.1700    3.5880   31.2720 C.3    66  LEU66       0.0284
     55  CG        -1.4600    2.9360   30.7720 C.3    66  LEU66       0.0019
     56  CD1       -2.5930    3.9110   30.7970 C.3    66  LEU66       0.0001
     57  CD2       -1.2990    2.2430   29.3960 C.3    66  LEU66       0.0001
     58  N          2.0680    1.4240   30.6960 N.am   67  LEU67      -0.1980
     59  CA         2.5370    0.2330   30.0090 C.3    67  LEU67       0.1596
     60  C          3.0000   -0.8760   30.9820 C.2    67  LEU67       0.2287
     61  O          2.7150   -2.0540   30.7580 O.2    67  LEU67      -0.2864
     62  CB         3.6130    0.5950   28.9770 C.3    67  LEU67       0.0297
     63  CG         3.0980    1.3400   27.7130 C.3    67  LEU67       0.0022
     64  CD1        4.2730    1.6710   26.7810 C.3    67  LEU67       0.0001
     65  CD2        2.0550    0.4970   26.9680 C.3    67  LEU67       0.0001
     66  N         -0.1050   -2.6880   32.5370 N.3    70  MET70      -0.1245
     67  CA        -0.9610   -3.4160   31.6160 C.3    70  MET70       0.1570
     68  C         -0.4740   -4.8340   31.4280 C.2    70  MET70       0.2261
     69  O          0.5920   -5.0700   30.8570 O.2    70  MET70      -0.2867
     70  CB        -1.0760   -2.6910   30.2710 C.3    70  MET70       0.0387
     71  CG        -1.7680   -1.3470   30.3600 C.3    70  MET70       0.0595
     72  SD        -3.4490   -1.2560   31.0010 S.3    70  MET70      -0.1393
     73  CE        -3.2560   -0.8490   32.7640 C.3    70  MET70       0.0692
     74  N         -4.7320   -6.3690   25.7660 N.3    75  VAL75      -0.1231
     75  CA        -4.1870   -5.0290   25.9560 C.3    75  VAL75       0.1692
     76  C         -2.6770   -5.0710   25.7180 C.2    75  VAL75       0.2591
     77  O         -2.0320   -5.9760   26.2190 O.2    75  VAL75      -0.2718
     78  CB        -4.4720   -4.4750   27.3830 C.3    75  VAL75       0.0266
     79  CG1       -3.8070   -3.0750   27.5590 C.3    75  VAL75       0.0020
     80  CG2       -5.9890   -4.4520   27.6930 C.3    75  VAL75       0.0020
     81  N         -2.1430   -4.0940   24.9520 N.am   76  ILE76      -0.1980
     82  CA        -0.6720   -3.9340   24.7390 C.3    76  ILE76       0.1595
     83  C          0.0570   -4.0880   26.0470 C.2    76  ILE76       0.2287
     84  O         -0.4360   -3.6500   27.0960 O.2    76  ILE76      -0.2864
     85  CB        -0.2490   -2.5760   24.0390 C.3    76  ILE76       0.0276
     86  CG1        1.2550   -2.5630   23.7060 C.3    76  ILE76       0.0022
     87  CG2       -0.6960   -1.3270   24.8700 C.3    76  ILE76       0.0022
     88  CD1        1.7080   -1.5020   22.7360 C.3    76  ILE76       0.0001
     89  N         11.0360    1.7330   24.5310 N.3    96  LEU96      -0.1245
     90  CA         9.9320    0.8420   24.9170 C.3    96  LEU96       0.1561
     91  C          9.9150   -0.3800   24.0050 C.2    96  LEU96       0.2260
     92  O          9.9200   -0.2250   22.7920 O.2    96  LEU96      -0.2867
     93  CB         8.5730    1.5750   24.7980 C.3    96  LEU96       0.0270
     94  CG         8.4390    2.8560   25.6260 C.3    96  LEU96       0.0019
     95  CD1        7.0790    3.5420   25.3540 C.3    96  LEU96       0.0001
     96  CD2        8.6180    2.5350   27.1100 C.3    96  LEU96       0.0001
     97  N          7.7720   -3.5300   22.8650 N.3    98  THR98      -0.1203
     98  CA         6.3930   -3.9290   22.7720 C.3    98  THR98       0.1994
     99  C          6.3610   -5.0720   21.7250 C.2    98  THR98       0.2618
    100  O          7.3240   -5.2390   20.9660 O.2    98  THR98      -0.2717
    101  CB         5.6000   -2.6830   22.3020 C.3    98  THR98       0.1784
    102  OG1        4.9690   -2.0340   23.4240 O.3    98  THR98      -0.2211
    103  CG2        4.6110   -3.0110   21.2530 C.3    98  THR98       0.0376
    104  N          5.2940   -5.8750   21.6940 N.am   99  HIS99      -0.1961
    105  CA         5.1320   -6.8390   20.5940 C.3    99  HIS99       0.1787
    106  C          4.8650   -6.0350   19.3380 C.2    99  HIS99       0.2620
    107  O          4.3200   -4.9340   19.4080 O.2    99  HIS99      -0.2715
    108  CB         3.9660   -7.8050   20.8460 C.3    99  HIS99       0.0785
    109  CG         4.3640   -9.1150   21.4730 C.ar   99  HIS99       0.0821
    110  ND1        5.2540   -9.9930   20.8830 N.ar   99  HIS99      -0.2267
    111  CD2        3.9440   -9.7210   22.6130 C.ar   99  HIS99       0.1154
    112  CE1        5.3920  -11.0620   21.6520 C.ar   99  HIS99       0.1986
    113  NE2        4.6080  -10.9210   22.7060 N.ar   99  HIS99      -0.2212
    114  N          5.2480   -6.5720   18.1900 N.am  100  LEU100     -0.1963
    115  CA         5.0370   -5.8740   16.9390 C.3   100  LEU100      0.1728
    116  C          3.5600   -6.0030   16.4500 C.2   100  LEU100      0.2616
    117  O          3.0370   -7.1290   16.3660 O.2   100  LEU100     -0.2715
    118  CB         6.0560   -6.3760   15.9160 C.3   100  LEU100      0.0311
    119  CG         6.1760   -5.6760   14.5610 C.3   100  LEU100      0.0022
    120  CD1        6.6380   -4.2280   14.6630 C.3   100  LEU100      0.0001
    121  CD2        7.1060   -6.4650   13.7120 C.3   100  LEU100      0.0001
    122  N          2.8930   -4.8540   16.2190 N.am  101  MET101     -0.1963
    123  CA         1.5780   -4.7860   15.5500 C.3   101  MET101      0.1736
    124  C          1.8280   -4.8390   14.0510 C.2   101  MET101      0.2617
    125  O          2.5180   -3.9980   13.5150 O.2   101  MET101     -0.2715
    126  CB         0.7700   -3.4870   15.8820 C.3   101  MET101      0.0427
    127  CG        -0.4290   -3.1880   14.8620 C.3   101  MET101      0.0599
    128  SD        -1.5340   -1.6760   14.8150 S.3   101  MET101     -0.1393
    129  CE        -0.5420   -0.5370   13.8370 C.3   101  MET101      0.0692
    130  N          1.2670   -5.8260   13.3660 N.am  102  GLY102     -0.1955
    131  CA         1.2830   -5.8060   11.9120 C.3   102  GLY102      0.1869
    132  C          0.1060   -4.9690   11.4610 C.2   102  GLY102      0.2309
    133  O          0.2510   -3.7840   11.1750 O.2   102  GLY102     -0.2863
    134  N         -9.1810   -2.4080   31.6310 N.3   133  ILE133     -0.1245
    135  CA        -8.6220   -1.0360   31.6440 C.3   133  ILE133      0.1561
    136  C         -9.4470   -0.1410   32.5290 C.2   133  ILE133      0.2260
    137  O         -8.9040    0.5270   33.3980 O.2   133  ILE133     -0.2867
    138  CB        -8.5100   -0.4440   30.2040 C.3   133  ILE133      0.0252
    139  CG1       -7.2760   -1.0450   29.4850 C.3   133  ILE133      0.0019
    140  CG2       -8.3900    1.0950   30.2400 C.3   133  ILE133      0.0019
    141  CD1       -7.4610   -1.1430   27.9800 C.3   133  ILE133      0.0001
    142  N         -8.8170    3.6560   34.5030 N.3   138  ILE138     -0.1231
    143  CA        -8.2670    4.2730   33.2830 C.3   138  ILE138      0.1692
    144  C         -9.3350    4.4060   32.2210 C.2   138  ILE138      0.2592
    145  O        -10.1260    3.4850   32.0090 O.2   138  ILE138     -0.2718
    146  CB        -7.0340    3.4430   32.7340 C.3   138  ILE138      0.0266
    147  CG1       -6.0180    3.1800   33.8430 C.3   138  ILE138      0.0019
    148  CG2       -6.3230    4.1460   31.5420 C.3   138  ILE138      0.0020
    149  CD1       -4.8610    2.3090   33.4380 C.3   138  ILE138      0.0001
    150  N         -9.3290    5.5300   31.5010 N.am  139  ILE139     -0.1966
    151  CA       -10.2680    5.7550   30.4360 C.3   139  ILE139      0.1727
    152  C         -9.4460    5.9170   29.1610 C.2   139  ILE139      0.2616
    153  O         -8.5530    6.7680   29.1270 O.2   139  ILE139     -0.2715
    154  CB       -11.1360    7.0370   30.6680 C.3   139  ILE139      0.0290
    155  CG1      -11.9270    6.9570   31.9850 C.3   139  ILE139      0.0022
    156  CG2      -12.1090    7.2660   29.5020 C.3   139  ILE139      0.0023
    157  CD1      -12.8630    8.1910   32.2190 C.3   139  ILE139      0.0001
    158  N         -9.7380    5.1290   28.1090 N.am  140  HIS140     -0.1973
    159  CA        -8.8940    5.1680   26.9170 C.3   140  HIS140      0.1656
    160  C         -9.0230    6.5050   26.1930 C.2   140  HIS140      0.2291
    161  O         -8.0080    7.1460   25.9020 O.2   140  HIS140     -0.2864
    162  CB        -9.1950    3.9920   25.9760 C.3   140  HIS140      0.0771
    163  CG        -8.2470    3.8990   24.8200 C.ar  140  HIS140      0.0820
    164  ND1       -7.3350    2.8650   24.6770 N.ar  140  HIS140     -0.2267
    165  CD2       -8.0550    4.7190   23.7590 C.ar  140  HIS140      0.1154
    166  CE1       -6.6220    3.0620   23.5780 C.ar  140  HIS140      0.1986
    167  NE2       -7.0550    4.1640   22.9950 N.ar  140  HIS140     -0.2212
    168  N         -5.7900   -3.7950   22.4900 N.3   158  ILE158     -0.1231
    169  CA        -5.9760   -2.3880   22.6360 C.3   158  ILE158      0.1692
    170  C         -4.6290   -1.7500   22.8850 C.2   158  ILE158      0.2592
    171  O         -3.8440   -2.2040   23.7170 O.2   158  ILE158     -0.2718
    172  CB        -7.0190   -2.0690   23.7770 C.3   158  ILE158      0.0266
    173  CG1       -8.4010   -2.6730   23.4060 C.3   158  ILE158      0.0019
    174  CG2       -7.1300   -0.5550   23.9860 C.3   158  ILE158      0.0020
    175  CD1       -9.4750   -2.6830   24.5560 C.3   158  ILE158      0.0001
    176  N         -4.3640   -0.6960   22.1130 N.am  159  LEU159     -0.1966
    177  CA        -3.2670    0.2120   22.3800 C.3   159  LEU159      0.1728
    178  C         -3.7130    1.6710   22.1370 C.2   159  LEU159      0.2616
    179  O         -4.8810    1.9650   21.8710 O.2   159  LEU159     -0.2715
    180  CB        -2.0180   -0.1600   21.5530 C.3   159  LEU159      0.0311
    181  CG        -2.3420   -0.2380   20.0670 C.3   159  LEU159      0.0022
    182  CD1       -1.8960    0.9960   19.3330 C.3   159  LEU159      0.0001
    183  CD2       -1.7080   -1.4510   19.4770 C.3   159  LEU159      0.0001
    184  N         -2.7790    2.5840   22.2740 N.am  160  ASP160     -0.1957
    185  CA        -3.0140    3.9500   21.9100 C.3   160  ASP160      0.1840
    186  C         -1.6960    4.4600   21.3280 C.2   160  ASP160      0.2622
    187  O         -0.6840    4.5630   22.0390 O.2   160  ASP160     -0.2715
    188  CB        -3.3900    4.7770   23.1600 C.3   160  ASP160      0.1450
    189  CG        -3.8350    6.1920   22.8120 C.2   160  ASP160      0.3671
    190  OD1       -3.8850    6.5440   21.6140 O.co2 160  ASP160     -0.2456
    191  OD2       -4.1580    6.9490   23.7250 O.co2 160  ASP160     -0.2456
    192  N         -1.7000    4.7330   20.0350 N.am  161  PHE161     -0.1974
    193  CA        -0.6940    5.5770   19.4010 C.3   161  PHE161      0.1639
    194  C         -0.7070    7.0780   19.8080 C.2   161  PHE161      0.2290
    195  O         -0.1080    7.4610   20.8020 O.2   161  PHE161     -0.2864
    196  CB        -0.8660    5.4560   17.8860 C.3   161  PHE161      0.0560
    197  CG        -0.4430    4.1470   17.3430 C.ar  161  PHE161     -0.0200
    198  CD1        0.8630    3.7130   17.4930 C.ar  161  PHE161     -0.0042
    199  CD2       -1.3360    3.3570   16.6420 C.ar  161  PHE161     -0.0042
    200  CE1        1.2670    2.5180   16.9730 C.ar  161  PHE161     -0.0003
    201  CE2       -0.9370    2.1580   16.1100 C.ar  161  PHE161     -0.0003
    202  CZ         0.3640    1.7280   16.2800 C.ar  161  PHE161     -0.0000
@<TRIPOS>BOND
     1     4     3    2
     2     2     1    1
     3     2     3    1
     4     2     5    1
     5     7     5    1
     6   133   132    2
     7   132   131    1
     8     5     6    1
     9   131   130    1
    10   130   124   am
    11   125   124    2
    12   121   119    1
    13    23    22    2
    14   129   128    1
    15   124   123    1
    16   119   120    1
    17   119   118    1
    18   128   127    1
    19   127   126    1
    20    22    21    1
    21     8     9    1
    22    11    10    2
    23   123   126    1
    24   123   122    1
    25    20    21    1
    26    24    21    1
    27    24    25    1
    28    24    26    1
    29   118   115    1
    30   201   202   ar
    31   201   199   ar
    32    10     9    1
    33   122   116   am
    34   202   200   ar
    35   117   116    2
    36   116   115    1
    37     9    12    1
    38   199   197   ar
    39   115   114    1
    40   200   198   ar
    41   197   198   ar
    42   197   196    1
    43    12    13    1
    44   196   193    1
    45   114   106   am
    46    28    31    1
    47    28    27    1
    48    28    29    1
    49    13    14   ar
    50    13    15   ar
    51    29    30    2
    52   182   181    1
    53   106   107    2
    54   106   105    1
    55   193   194    1
    56   193   192    1
    57   183   181    1
    58    14    16   ar
    59    15    17   ar
    60   194   195    2
    61   192   186   am
    62   181   180    1
    63    33    32    1
    64    33    36    1
    65    33    34    1
    66   105   108    1
    67   105   104    1
    68    37    36    1
    69    37    38    1
    70    16    18   ar
    71   108   109    1
    72   110   109   ar
    73   110   112   ar
    74   100    99    2
    75    17    18   ar
    76    34    35    2
    77    38    39    1
    78   103   101    1
    79   186   185    1
    80   186   187    2
    81    18    19    1
    82   109   111   ar
    83   180   177    1
    84   190   189   ar
    85   112   113   ar
    86   104    99   am
    87    39    40    1
    88    99    98    1
    89   179   178    2
    90   185   184    1
    91   185   188    1
    92   176   177    1
    93   176   170   am
    94   178   184   am
    95   178   177    1
    96   101    98    1
    97   101   102    1
    98   168   169    1
    99   111   113   ar
   100   169   170    1
   101   169   172    1
   102    88    86    1
   103    98    97    1
   104    92    91    2
   105   189   188    1
   106   189   191   ar
   107   170   171    2
   108   167   166   ar
   109   167   165   ar
   110   173   172    1
   111   173   175    1
   112   166   164   ar
   113    86    85    1
   114   165   163   ar
   115   172   174    1
   116    91    90    1
   117    85    82    1
   118    85    87    1
   119    89    90    1
   120   164   163   ar
   121    82    81    1
   122    82    83    1
   123    93    90    1
   124    93    94    1
   125   163   162    1
   126    81    76   am
   127    48    47   ar
   128    95    94    1
   129    94    96    1
   130    76    75    1
   131    76    77    2
   132    74    75    1
   133   161   160    2
   134    75    78    1
   135   162   159    1
   136    83    84    2
   137   160   159    1
   138    47    49   ar
   139    47    46    1
   140    64    63    1
   141   159   158    1
   142    65    63    1
   143    46    45    1
   144    78    79    1
   145    78    80    1
   146    63    62    1
   147   141   139    1
   148   158   152   am
   149    45    42    1
   150    62    59    1
   151   153   152    2
   152   152   151    1
   153    57    55    1
   154    42    43    1
   155    42    41    1
   156   139   138    1
   157   156   154    1
   158    44    43    2
   159    59    58    1
   160    59    60    1
   161   138   140    1
   162   138   135    1
   163    70    71    1
   164    70    67    1
   165    71    72    1
   166   151   154    1
   167   151   150    1
   168   154   155    1
   169    58    52   am
   170    61    60    2
   171    55    56    1
   172    55    54    1
   173    69    68    2
   174    72    73    1
   175    54    51    1
   176    68    67    1
   177   150   144   am
   178   148   146    1
   179    52    53    2
   180    52    51    1
   181    67    66    1
   182   134   135    1
   183   135   136    1
   184   155   157    1
   185   145   144    2
   186   144   143    1
   187    51    50    1
   188   136   137    2
   189   146   143    1
   190   146   147    1
   191   143   142    1
   192   149   147    1
