@<TRIPOS>MOLECULE
tmp/3hekA00.pdb
 171 159 0 0 0
SMALL
GASTEIGER

@<TRIPOS>ATOM
      1  N         -1.1980   -1.0480   56.2830 N.3    17  ILE17      -0.1245
      2  CA        -0.3060   -0.3890   55.3420 C.3    17  ILE17       0.1561
      3  C         -1.1010    0.4450   54.3460 C.2    17  ILE17       0.2260
      4  O         -0.7150    1.5650   54.0230 O.2    17  ILE17      -0.2867
      5  CB         0.5630   -1.4100   54.5830 C.3    17  ILE17       0.0252
      6  CG1        1.5110   -2.1000   55.5630 C.3    17  ILE17       0.0019
      7  CG2        1.3530   -0.7070   53.4860 C.3    17  ILE17       0.0019
      8  CD1        2.3960   -3.1520   54.9340 C.3    17  ILE17       0.0001
      9  N         14.8470    7.3180   51.7750 N.3    39  LEU39      -0.1245
     10  CA        15.2320    6.4410   50.6690 C.3    39  LEU39       0.1561
     11  C         16.7450    6.2790   50.5800 C.2    39  LEU39       0.2260
     12  O         17.2480    5.1940   50.2860 O.2    39  LEU39      -0.2867
     13  CB        14.6850    6.9950   49.3480 C.3    39  LEU39       0.0270
     14  CG        13.1620    6.9160   49.2410 C.3    39  LEU39       0.0019
     15  CD1       12.6840    7.5240   47.9340 C.3    39  LEU39       0.0001
     16  CD2       12.7400    5.4550   49.3500 C.3    39  LEU39       0.0001
     17  N         17.6250    3.9080   53.4130 N.3    42  ASN42      -0.1225
     18  CA        17.3540    2.5400   52.9840 C.3    42  ASN42       0.1785
     19  C         18.4620    2.0070   52.0790 C.2    42  ASN42       0.2597
     20  O         18.9200    0.8800   52.2530 O.2    42  ASN42      -0.2718
     21  CB        16.0100    2.4640   52.2460 C.3    42  ASN42       0.1169
     22  CG        14.8220    2.4990   53.1900 C.2    42  ASN42       0.2627
     23  OD1       14.9830    2.5380   54.4080 O.2    42  ASN42      -0.2716
     24  ND2       13.6190    2.4800   52.6290 N.am   42  ASN42      -0.0877
     25  N         18.8890    2.8170   51.1140 N.am   43  SER43      -0.1952
     26  CA        19.9750    2.4280   50.2070 C.3    43  SER43       0.1924
     27  C         21.2690    2.1600   50.9750 C.2    43  SER43       0.2314
     28  O         21.9780    1.1890   50.7120 O.2    43  SER43      -0.2863
     29  CB        20.2310    3.5340   49.1770 C.3    43  SER43       0.2116
     30  OG        19.1330    3.6940   48.2950 O.3    43  SER43      -0.2180
     31  N         21.5230    1.2040   53.9990 N.3    45  ASP45      -0.1225
     32  CA        21.3480   -0.0430   54.7350 C.3    45  ASP45       0.1805
     33  C         21.6060   -1.2340   53.8240 C.2    45  ASP45       0.2597
     34  O         22.2260   -2.2170   54.2310 O.2    45  ASP45      -0.2718
     35  CB        19.9320   -0.1300   55.3170 C.3    45  ASP45       0.1424
     36  CG        19.7440    0.7560   56.5420 C.2    45  ASP45       0.3668
     37  OD1       20.7430    1.3390   57.0130 O.co2  45  ASP45      -0.2456
     38  OD2       18.5990    0.8690   57.0320 O.co2  45  ASP45      -0.2456
     39  N         21.1340   -1.1310   52.5840 N.am   46  ALA46      -0.1979
     40  CA        21.3480   -2.1800   51.5940 C.3    46  ALA46       0.1597
     41  C         22.8270   -2.3170   51.2500 C.2    46  ALA46       0.2287
     42  O         23.3210   -3.4210   51.0230 O.2    46  ALA46      -0.2864
     43  CB        20.5490   -1.8720   50.3320 C.3    46  ALA46       0.0319
     44  N         24.7230   -4.1260   53.9760 N.3    49  LYS49      -0.1245
     45  CA        24.4810   -5.5650   54.0400 C.3    49  LYS49       0.1561
     46  C         25.3050   -6.3230   53.0000 C.2    49  LYS49       0.2260
     47  O         25.8660   -7.3810   53.2940 O.2    49  LYS49      -0.2867
     48  CB        22.9820   -5.8550   53.8620 C.3    49  LYS49       0.0271
     49  CG        22.1500   -5.4870   55.1050 C.3    49  LYS49       0.0035
     50  CD        20.6630   -5.7180   54.9130 C.3    49  LYS49       0.0206
     51  CE        19.9320   -5.7650   56.2700 C.3    49  LYS49       0.1093
     52  NZ        19.7140   -4.4100   56.8540 N.3    49  LYS49      -0.1314
     53  N         20.8230    2.3570   44.0400 N.3    84  ASP84      -0.1239
     54  CA        21.9680    1.8800   44.8030 C.3    84  ASP84       0.1674
     55  C         22.4240    0.5140   44.3130 C.2    84  ASP84       0.2266
     56  O         21.6630   -0.2250   43.6850 O.2    84  ASP84      -0.2867
     57  CB        21.6410    1.8190   46.3040 C.3    84  ASP84       0.1410
     58  CG        20.5820    0.7810   46.6390 C.2    84  ASP84       0.3668
     59  OD1       20.8510   -0.4310   46.4670 O.co2  84  ASP84      -0.2456
     60  OD2       19.4810    1.1840   47.0770 O.co2  84  ASP84      -0.2456
     61  N         22.3890   -4.8510   48.3230 N.3    87  ILE87      -0.1231
     62  CA        22.2440   -6.3020   48.2490 C.3    87  ILE87       0.1692
     63  C         21.0070   -6.7080   47.4470 C.2    87  ILE87       0.2593
     64  O         20.8960   -7.8530   46.9850 O.2    87  ILE87      -0.2718
     65  CB        22.1620   -6.9180   49.6650 C.3    87  ILE87       0.0266
     66  CG1       22.2330   -8.4420   49.5730 C.3    87  ILE87       0.0019
     67  CG2       20.8820   -6.4830   50.3550 C.3    87  ILE87       0.0020
     68  CD1       22.7310   -9.1010   50.8360 C.3    87  ILE87       0.0001
     69  N         20.0860   -5.7650   47.2780 N.am   88  GLY88      -0.1942
     70  CA        18.9180   -6.0150   46.4480 C.3    88  GLY88       0.2014
     71  C         17.9170   -6.9220   47.1360 C.2    88  GLY88       0.2638
     72  O         18.1290   -7.3300   48.2760 O.2    88  GLY88      -0.2714
     73  N         16.8250   -7.2360   46.4430 N.am   89  MET89      -0.1976
     74  CA        15.7320   -7.9990   47.0330 C.3    89  MET89       0.1605
     75  C         15.2840   -9.1200   46.1060 C.2    89  MET89       0.2287
     76  O         15.1600   -8.9250   44.9020 O.2    89  MET89      -0.2864
     77  CB        14.5370   -7.0820   47.3230 C.3    89  MET89       0.0413
     78  CG        14.7570   -6.1060   48.4850 C.3    89  MET89       0.0598
     79  SD        13.3160   -5.0610   48.7710 S.3    89  MET89      -0.1393
     80  CE        13.4920   -3.8780   47.4410 C.3    89  MET89       0.0692
     81  N          8.4650   -7.5770   52.1230 N.3    97  ASN97      -0.1225
     82  CA         8.9470   -6.2840   52.5980 C.3    97  ASN97       0.1785
     83  C          8.0230   -5.1280   52.2230 C.2    97  ASN97       0.2597
     84  O          7.8470   -4.1900   53.0010 O.2    97  ASN97      -0.2718
     85  CB        10.3380   -5.9850   52.0280 C.3    97  ASN97       0.1169
     86  CG        11.4290   -6.8390   52.6450 C.2    97  ASN97       0.2627
     87  OD1       11.1810   -7.6300   53.5600 O.2    97  ASN97      -0.2716
     88  ND2       12.6540   -6.6780   52.1440 N.am   97  ASN97      -0.0877
     89  N          7.4460   -5.1940   51.0260 N.am   98  LEU98      -0.1980
     90  CA         6.7670   -4.0400   50.4480 C.3    98  LEU98       0.1596
     91  C          5.2680   -4.2150   50.2460 C.2    98  LEU98       0.2287
     92  O          4.7330   -3.8280   49.2030 O.2    98  LEU98      -0.2864
     93  CB         7.4100   -3.6660   49.1090 C.3    98  LEU98       0.0297
     94  CG         8.5350   -2.6250   49.1330 C.3    98  LEU98       0.0022
     95  CD1        9.5990   -3.0340   50.1230 C.3    98  LEU98       0.0001
     96  CD2        9.1200   -2.4790   47.7400 C.3    98  LEU98       0.0001
     97  N          4.3040   -4.5640   59.7010 N.3   103  LYS103     -0.1245
     98  CA         5.0560   -4.7480   60.9350 C.3   103  LYS103      0.1561
     99  C          4.4650   -3.8690   62.0290 C.2   103  LYS103      0.2260
    100  O          3.6190   -3.0160   61.7620 O.2   103  LYS103     -0.2867
    101  CB         6.5340   -4.4000   60.7210 C.3   103  LYS103      0.0271
    102  CG         6.7870   -2.9720   60.2650 C.3   103  LYS103      0.0035
    103  CD         8.2640   -2.7380   59.9610 C.3   103  LYS103      0.0206
    104  CE         9.1240   -2.8980   61.2070 C.3   103  LYS103      0.1093
    105  NZ         8.7970   -1.8820   62.2470 N.3   103  LYS103     -0.1314
    106  N          3.8570   -0.1350   61.4830 N.3   106  THR106     -0.1218
    107  CA         2.8390    0.3330   60.5480 C.3   106  THR106      0.1862
    108  C          1.6840    0.9650   61.3170 C.2   106  THR106      0.2287
    109  O          1.3670    2.1420   61.1340 O.2   106  THR106     -0.2866
    110  CB         2.2840   -0.8260   59.6980 C.3   106  THR106      0.1770
    111  OG1        3.3580   -1.4720   59.0010 O.3   106  THR106     -0.2211
    112  CG2        1.2790   -0.3010   58.6890 C.3   106  THR106      0.0375
    113  N         10.4890    2.3270   61.1730 N.3   126  GLY126     -0.1210
    114  CA        10.9030    1.3320   60.1980 C.3   126  GLY126      0.1956
    115  C         10.0230    1.2410   58.9660 C.2   126  GLY126      0.2612
    116  O         10.0480    0.2310   58.2600 O.2   126  GLY126     -0.2717
    117  N          9.2390    2.2860   58.7100 N.am  127  VAL127     -0.1965
    118  CA         8.3620    2.3300   57.5430 C.3   127  VAL127      0.1727
    119  C          8.6650    3.5340   56.6480 C.2   127  VAL127      0.2617
    120  O          7.7710    4.0860   56.0210 O.2   127  VAL127     -0.2715
    121  CB         6.8770    2.3880   57.9680 C.3   127  VAL127      0.0290
    122  CG1        6.4780    1.0850   58.6420 C.3   127  VAL127      0.0023
    123  CG2        6.6530    3.5530   58.9230 C.3   127  VAL127      0.0023
    124  N          9.9320    3.9300   56.5900 N.am  128  GLY128     -0.1940
    125  CA        10.2970    5.1420   55.8790 C.3   128  GLY128      0.2014
    126  C         10.0390    5.1260   54.3810 C.2   128  GLY128      0.2639
    127  O          9.8050    6.1810   53.7870 O.2   128  GLY128     -0.2714
    128  N         10.0810    3.9460   53.7630 N.am  129  PHE129     -0.1959
    129  CA         9.8610    3.8380   52.3180 C.3   129  PHE129      0.1771
    130  C          8.5930    4.5660   51.8810 C.2   129  PHE129      0.2619
    131  O          8.5700    5.2180   50.8390 O.2   129  PHE129     -0.2715
    132  CB         9.7730    2.3640   51.8900 C.3   129  PHE129      0.0574
    133  CG         9.1980    2.1620   50.5060 C.ar  129  PHE129     -0.0200
    134  CD1        9.9520    2.4430   49.3760 C.ar  129  PHE129     -0.0042
    135  CD2        7.9020    1.6930   50.3410 C.ar  129  PHE129     -0.0042
    136  CE1        9.4200    2.2600   48.0940 C.ar  129  PHE129     -0.0003
    137  CE2        7.3620    1.5060   49.0750 C.ar  129  PHE129     -0.0003
    138  CZ         8.1270    1.7920   47.9450 C.ar  129  PHE129     -0.0000
    139  N          7.5380    4.4580   52.6820 N.am  130  TYR130     -0.1974
    140  CA         6.2310    4.9460   52.2690 C.3   130  TYR130      0.1639
    141  C          6.1360    6.4670   52.2390 C.2   130  TYR130      0.2290
    142  O          5.2100    7.0220   51.6550 O.2   130  TYR130     -0.2864
    143  CB         5.1400    4.3400   53.1650 C.3   130  TYR130      0.0560
    144  CG         4.9390    2.8620   52.9110 C.ar  130  TYR130     -0.0198
    145  CD1        4.3590    2.4180   51.7280 C.ar  130  TYR130     -0.0009
    146  CD2        5.3750    1.9090   53.8250 C.ar  130  TYR130     -0.0009
    147  CE1        4.2240    1.0680   51.4580 C.ar  130  TYR130      0.0417
    148  CE2        5.2440    0.5580   53.5630 C.ar  130  TYR130      0.0417
    149  CZ         4.6690    0.1430   52.3770 C.ar  130  TYR130      0.1957
    150  OH         4.5460   -1.2030   52.1060 O.3   130  TYR130     -0.2866
    151  N          9.6160    0.1110   42.0970 N.3   141  VAL141     -0.1245
    152  CA        10.8460   -0.4180   42.6710 C.3   141  VAL141      0.1561
    153  C         11.3830   -1.5760   41.8380 C.2   141  VAL141      0.2260
    154  O         10.7190   -2.6020   41.6740 O.2   141  VAL141     -0.2867
    155  CB        10.6300   -0.9070   44.1220 C.3   141  VAL141      0.0252
    156  CG1       11.9360   -1.4870   44.6700 C.3   141  VAL141      0.0019
    157  CG2       10.1520    0.2560   45.0000 C.3   141  VAL141      0.0019
    158  N         19.0200   -1.9350   44.0880 N.3   175  THR175     -0.1218
    159  CA        17.6340   -1.5070   44.0270 C.3   175  THR175      0.1862
    160  C         17.5130   -0.1000   43.4650 C.2   175  THR175      0.2287
    161  O         18.3330    0.7770   43.7490 O.2   175  THR175     -0.2866
    162  CB        16.9810   -1.5450   45.4230 C.3   175  THR175      0.1770
    163  OG1       16.8730   -2.9070   45.8580 O.3   175  THR175     -0.2211
    164  CG2       15.5900   -0.9000   45.3830 C.3   175  THR175      0.0375
    165  N         14.5860    2.9380   42.9720 N.3   177  VAL177     -0.1245
    166  CA        13.2580    3.4510   43.2910 C.3   177  VAL177      0.1561
    167  C         12.9290    4.6100   42.3490 C.2   177  VAL177      0.2260
    168  O         13.6100    5.6350   42.3570 O.2   177  VAL177     -0.2867
    169  CB        13.1940    3.9440   44.7490 C.3   177  VAL177      0.0252
    170  CG1       11.8030    4.5480   45.0470 C.3   177  VAL177      0.0019
    171  CG2       13.4920    2.7800   45.7030 C.3   177  VAL177      0.0019
@<TRIPOS>BOND
     1   154   153    2
     2   153   152    1
     3   151   152    1
     4   167   168    2
     5   167   166    1
     6   152   155    1
     7   165   166    1
     8   166   169    1
     9   160   161    2
    10   160   159    1
    11    56    55    2
    12   159   158    1
    13   159   162    1
    14    53    54    1
    15   155   156    1
    16   155   157    1
    17    55    54    1
    18   169   170    1
    19   169   171    1
    20    54    57    1
    21    76    75    2
    22   164   162    1
    23   162   163    1
    24    75    74    1
    25    57    58    1
    26    73    74    1
    27    73    71   am
    28    70    71    1
    29    70    69    1
    30    59    58   ar
    31    58    60   ar
    32    64    63    2
    33    74    77    1
    34    71    72    2
    35    69    63   am
    36    77    78    1
    37    80    79    1
    38    63    62    1
    39    96    94    1
    40    15    14    1
    41   138   136   ar
    42   138   137   ar
    43   136   134   ar
    44    62    61    1
    45    62    65    1
    46    30    29    1
    47    78    79    1
    48   137   135   ar
    49    93    94    1
    50    93    90    1
    51    94    95    1
    52    29    26    1
    53    92    91    2
    54    14    13    1
    55    14    16    1
    56    13    10    1
    57   134   133   ar
    58    66    65    1
    59    66    68    1
    60    65    67    1
    61    26    27    1
    62    26    25    1
    63    91    90    1
    64    12    11    2
    65    43    40    1
    66   135   133   ar
    67    90    89    1
    68   133   132    1
    69    11    10    1
    70    10     9    1
    71    28    27    2
    72   131   130    2
    73    42    41    2
    74    89    83   am
    75    25    19   am
    76    41    40    1
    77   147   145   ar
    78   147   149   ar
    79    40    39    1
    80   142   141    2
    81   145   144   ar
    82   130   129    1
    83   130   139   am
    84   132   129    1
    85    85    82    1
    86    85    86    1
    87    19    20    2
    88    19    18    1
    89   150   149    1
    90    81    82    1
    91    88    86   am
    92    83    82    1
    93    83    84    2
    94   141   140    1
    95    21    18    1
    96    21    22    1
    97   140   139    1
    98   140   143    1
    99   129   128    1
   100   149   148   ar
   101    39    33   am
   102    24    22   am
   103    86    87    2
   104   144   143    1
   105   144   146   ar
   106    18    17    1
   107    46    47    2
   108    46    45    1
   109    22    23    2
   110     7     5    1
   111   148   146   ar
   112   128   126   am
   113   127   126    2
   114    33    34    2
   115    33    32    1
   116    48    45    1
   117    48    49    1
   118    44    45    1
   119    31    32    1
   120     4     3    2
   121     3     2    1
   122   126   125    1
   123     5     2    1
   124     5     6    1
   125    32    35    1
   126    50    49    1
   127    50    51    1
   128     8     6    1
   129    35    36    1
   130     2     1    1
   131   125   124    1
   132   120   119    2
   133    51    52    1
   134    36    37   ar
   135    36    38   ar
   136   124   119   am
   137   119   118    1
   138   118   121    1
   139   118   117    1
   140   121   122    1
   141   121   123    1
   142   116   115    2
   143   112   110    1
   144   117   115   am
   145   115   114    1
   146   111   110    1
   147   110   107    1
   148    97    98    1
   149   103   102    1
   150   103   104    1
   151   114   113    1
   152   102   101    1
   153   107   108    1
   154   107   106    1
   155   101    98    1
   156    98    99    1
   157   109   108    2
   158   104   105    1
   159   100    99    2
