@<TRIPOS>MOLECULE
tmp/3hemA00.pdb
 186 178 0 0 0
SMALL
GASTEIGER

@<TRIPOS>ATOM
      1  N        104.9450   33.8480   13.0040 N.3    13  TYR13      -0.1241
      2  CA       104.9860   34.2360   11.5970 C.3    13  TYR13       0.1605
      3  C        106.3870   34.2460   10.9640 C.2    13  TYR13       0.2264
      4  O        106.5180   34.2000    9.7410 O.2    13  TYR13      -0.2867
      5  CB       104.2860   35.5850   11.4090 C.3    13  TYR13       0.0534
      6  CG       102.8510   35.5940   11.8930 C.ar   13  TYR13      -0.0201
      7  CD1      102.5310   35.9900   13.1890 C.ar   13  TYR13      -0.0009
      8  CD2      101.8120   35.2020   11.0550 C.ar   13  TYR13      -0.0009
      9  CE1      101.2090   35.9980   13.6360 C.ar   13  TYR13       0.0417
     10  CE2      100.4930   35.2060   11.4920 C.ar   13  TYR13       0.0417
     11  CZ       100.1980   35.6040   12.7830 C.ar   13  TYR13       0.1957
     12  OH        98.8900   35.6070   13.2120 O.3    13  TYR13      -0.2866
     13  N         96.8230   34.1510    4.7820 N.3    30  TYR30      -0.1227
     14  CA        96.8080   33.4570    6.0560 C.3    30  TYR30       0.1736
     15  C         95.6520   33.9540    6.9000 C.2    30  TYR30       0.2596
     16  O         95.8520   34.5820    7.9320 O.2    30  TYR30      -0.2718
     17  CB        98.1350   33.6670    6.7750 C.3    30  TYR30       0.0548
     18  CG        98.3960   32.7010    7.8950 C.ar   30  TYR30      -0.0200
     19  CD1       97.6850   31.5180    8.0020 C.ar   30  TYR30      -0.0009
     20  CD2       99.3870   32.9550    8.8370 C.ar   30  TYR30      -0.0009
     21  CE1       97.9410   30.6230    9.0330 C.ar   30  TYR30       0.0417
     22  CE2       99.6470   32.0620    9.8720 C.ar   30  TYR30       0.0417
     23  CZ        98.9220   30.9030    9.9620 C.ar   30  TYR30       0.1957
     24  OH        99.1870   30.0300   10.9920 O.3    30  TYR30      -0.2866
     25  N         94.4390   33.6810    6.4340 N.am   31  SER31      -0.1952
     26  CA        93.2380   34.0420    7.1600 C.3    31  SER31       0.1924
     27  C         92.0590   33.3330    6.5190 C.2    31  SER31       0.2314
     28  O         92.1920   32.7520    5.4460 O.2    31  SER31      -0.2863
     29  CB        93.0420   35.5590    7.1620 C.3    31  SER31       0.2116
     30  OG        93.2020   36.0950    5.8610 O.3    31  SER31      -0.2180
     31  N         92.6440   39.1840    9.9550 N.3   134  GLY134     -0.1225
     32  CA        93.3100   38.1810   10.7650 C.3   134  GLY134      0.1811
     33  C         94.5570   38.6630   11.4720 C.2   134  GLY134      0.2280
     34  O         95.5460   37.9340   11.5810 O.2   134  GLY134     -0.2866
     35  N         93.4640   39.7000   16.4730 N.3   137  GLU137     -0.1231
     36  CA        93.5840   38.8540   17.6480 C.3   137  GLU137      0.1699
     37  C         94.9010   39.1070   18.3810 C.2   137  GLU137      0.2592
     38  O         95.1900   38.4820   19.3920 O.2   137  GLU137     -0.2718
     39  CB        93.4760   37.3920   17.2240 C.3   137  GLU137      0.0402
     40  CG        92.2980   37.0870   16.2940 C.3   137  GLU137      0.1161
     41  CD        92.5630   37.3970   14.8140 C.2   137  GLU137      0.3649
     42  OE1       93.5280   38.1260   14.4940 O.co2 137  GLU137     -0.2457
     43  OE2       91.7860   36.9100   13.9630 O.co2 137  GLU137     -0.2457
     44  N         95.7040   40.0230   17.8560 N.am  138  HIS138     -0.1976
     45  CA        96.9940   40.3380   18.4540 C.3   138  HIS138      0.1656
     46  C         97.0160   41.7280   19.0660 C.2   138  HIS138      0.2291
     47  O         97.9950   42.1070   19.7030 O.2   138  HIS138     -0.2864
     48  CB        98.0970   40.2730   17.4050 C.3   138  HIS138      0.0771
     49  CG        98.3650   38.8970   16.8890 C.ar  138  HIS138      0.0820
     50  ND1       98.8830   37.8960   17.6810 N.ar  138  HIS138     -0.2267
     51  CD2       98.2110   38.3660   15.6540 C.ar  138  HIS138      0.1154
     52  CE1       99.0290   36.7990   16.9550 C.ar  138  HIS138      0.1986
     53  NE2       98.6280   37.0590   15.7240 N.ar  138  HIS138     -0.2212
     54  N         88.8040   36.7070   13.9630 N.3   173  ILE173     -0.1245
     55  CA        88.2170   35.5880   14.6820 C.3   173  ILE173      0.1561
     56  C         87.5540   36.1120   15.9530 C.2   173  ILE173      0.2260
     57  O         88.0720   37.0230   16.5890 O.2   173  ILE173     -0.2867
     58  CB        89.2900   34.5690   15.0850 C.3   173  ILE173      0.0252
     59  CG1       90.0370   34.0560   13.8550 C.3   173  ILE173      0.0019
     60  CG2       88.6670   33.4160   15.8550 C.3   173  ILE173      0.0019
     61  CD1       91.1760   33.1220   14.1940 C.3   173  ILE173      0.0001
     62  N         93.3300   24.6260   23.7310 N.3   196  ILE196     -0.1245
     63  CA        93.5450   26.0530   23.7880 C.3   196  ILE196      0.1561
     64  C         94.8980   26.3060   24.4190 C.2   196  ILE196      0.2260
     65  O         95.6990   27.0970   23.9190 O.2   196  ILE196     -0.2867
     66  CB        92.4850   26.7360   24.6210 C.3   196  ILE196      0.0252
     67  CG1       91.1220   26.5770   23.9490 C.3   196  ILE196      0.0019
     68  CG2       92.8630   28.1880   24.8450 C.3   196  ILE196      0.0019
     69  CD1       91.0910   27.0510   22.5270 C.3   196  ILE196      0.0001
     70  N         97.3820   25.7920   22.0020 N.3   199  ILE199     -0.1231
     71  CA        97.4020   26.8880   21.0480 C.3   199  ILE199      0.1692
     72  C         98.1250   28.0990   21.6020 C.2   199  ILE199      0.2591
     73  O         99.0030   28.6590   20.9490 O.2   199  ILE199     -0.2718
     74  CB        96.0000   27.3250   20.6460 C.3   199  ILE199      0.0266
     75  CG1       95.2850   26.2000   19.9070 C.3   199  ILE199      0.0019
     76  CG2       96.0850   28.5410   19.7510 C.3   199  ILE199      0.0020
     77  CD1       96.0250   25.7280   18.6670 C.3   199  ILE199      0.0001
     78  N         97.7480   28.5070   22.8070 N.am  200  LEU200     -0.1980
     79  CA        98.3320   29.6900   23.4170 C.3   200  LEU200      0.1596
     80  C         99.7500   29.4260   23.8540 C.2   200  LEU200      0.2287
     81  O        100.4780   30.3430   24.2180 O.2   200  LEU200     -0.2864
     82  CB        97.5090   30.1280   24.6160 C.3   200  LEU200      0.0297
     83  CG        96.2010   30.8050   24.2180 C.3   200  LEU200      0.0022
     84  CD1       95.3210   31.0290   25.4330 C.3   200  LEU200      0.0001
     85  CD2       96.4890   32.1120   23.4880 C.3   200  LEU200      0.0001
     86  N        100.0400   30.6240   19.1490 N.3   204  PHE204     -0.1241
     87  CA        99.7940   32.0630   19.2260 C.3   204  PHE204      0.1605
     88  C         99.8540   32.6150   20.6390 C.2   204  PHE204      0.2264
     89  O         98.8320   32.9810   21.2210 O.2   204  PHE204     -0.2867
     90  CB        98.4460   32.4110   18.6000 C.3   204  PHE204      0.0534
     91  CG        98.3380   32.0370   17.1530 C.ar  204  PHE204     -0.0203
     92  CD1       97.4610   31.0450   16.7450 C.ar  204  PHE204     -0.0042
     93  CD2       99.1200   32.6770   16.1990 C.ar  204  PHE204     -0.0042
     94  CE1       97.3600   30.6980   15.4110 C.ar  204  PHE204     -0.0003
     95  CE2       99.0260   32.3370   14.8540 C.ar  204  PHE204     -0.0003
     96  CZ        98.1430   31.3460   14.4580 C.ar  204  PHE204     -0.0000
     97  N         97.8210   35.7330   22.2060 N.3   207  GLY207     -0.1225
     98  CA        96.6360   35.9740   21.4030 C.3   207  GLY207      0.1811
     99  C         95.3850   36.0920   22.2600 C.2   207  GLY207      0.2280
    100  O         95.2320   35.3740   23.2610 O.2   207  GLY207     -0.2866
    101  N         91.0700   36.5890   21.7490 N.3   209  LEU209     -0.1245
    102  CA        89.9020   36.6280   20.8790 C.3   209  LEU209      0.1561
    103  C         88.8070   37.5200   21.4430 C.2   209  LEU209      0.2260
    104  O         88.4210   37.3920   22.6040 O.2   209  LEU209     -0.2867
    105  CB        89.3560   35.2270   20.6650 C.3   209  LEU209      0.0270
    106  CG        90.3620   34.2320   20.1150 C.3   209  LEU209      0.0019
    107  CD1       89.6640   32.9200   19.8350 C.3   209  LEU209      0.0001
    108  CD2       91.0290   34.7720   18.8540 C.3   209  LEU209      0.0001
    109  N         86.0700   28.7030    7.6350 N.3   236  TYR236     -0.1241
    110  CA        87.4050   28.4360    8.1380 C.3   236  TYR236      0.1605
    111  C         87.6790   26.9480    8.1700 C.2   236  TYR236      0.2264
    112  O         88.8260   26.5170    8.2500 O.2   236  TYR236     -0.2867
    113  CB        87.6040   29.0460    9.5130 C.3   236  TYR236      0.0534
    114  CG        88.9090   29.7960    9.6220 C.ar  236  TYR236     -0.0201
    115  CD1       90.0760   29.2810    9.0590 C.ar  236  TYR236     -0.0009
    116  CD2       88.9800   31.0170   10.2900 C.ar  236  TYR236     -0.0009
    117  CE1       91.2720   29.9650    9.1500 C.ar  236  TYR236      0.0417
    118  CE2       90.1740   31.7050   10.3880 C.ar  236  TYR236      0.0417
    119  CZ        91.3130   31.1730    9.8150 C.ar  236  TYR236      0.1957
    120  OH        92.5020   31.8450    9.9130 O.3   236  TYR236     -0.2866
    121  N         90.9300   25.6150    6.7710 N.3   240  LEU240     -0.1245
    122  CA        91.8700   24.9350    7.6480 C.3   240  LEU240      0.1561
    123  C         92.1530   23.5040    7.2220 C.2   240  LEU240      0.2260
    124  O         93.2570   23.0000    7.4140 O.2   240  LEU240     -0.2867
    125  CB        91.4030   24.9970    9.1000 C.3   240  LEU240      0.0270
    126  CG        91.7080   26.3380    9.7640 C.3   240  LEU240      0.0019
    127  CD1       90.7310   26.6140   10.8840 C.3   240  LEU240      0.0001
    128  CD2       93.1270   26.3360   10.2620 C.3   240  LEU240      0.0001
    129  N         94.6180   23.7250    4.3600 N.3   243  TRP243     -0.1241
    130  CA        95.9690   23.9540    4.8580 C.3   243  TRP243      0.1605
    131  C         96.5450   22.6710    5.4300 C.2   243  TRP243      0.2264
    132  O         97.6760   22.3010    5.1310 O.2   243  TRP243     -0.2867
    133  CB        96.0080   25.0650    5.9180 C.3   243  TRP243      0.0550
    134  CG        95.6800   26.4450    5.3880 C.ar  243  TRP243      0.0003
    135  CD1       95.7290   26.8600    4.0840 C.ar  243  TRP243      0.0946
    136  CD2       95.2740   27.5930    6.1540 C.ar  243  TRP243      0.0152
    137  NE1       95.3590   28.1890    3.9910 N.ar  243  TRP243     -0.2442
    138  CE2       95.0790   28.6600    5.2470 C.ar  243  TRP243      0.0810
    139  CE3       95.0520   27.8210    7.5170 C.ar  243  TRP243      0.0012
    140  CZ2       94.6730   29.9260    5.6560 C.ar  243  TRP243      0.0191
    141  CZ3       94.6460   29.0810    7.9200 C.ar  243  TRP243      0.0001
    142  CH2       94.4630   30.1180    6.9920 C.ar  243  TRP243      0.0015
    143  N         97.7200   21.5400   15.3890 N.3   269  TYR269     -0.1241
    144  CA        97.1480   22.8840   15.3610 C.3   269  TYR269      0.1605
    145  C         96.0320   23.0450   14.3200 C.2   269  TYR269      0.2264
    146  O         94.9140   23.4440   14.6550 O.2   269  TYR269     -0.2867
    147  CB        98.2880   23.8920   15.1640 C.3   269  TYR269      0.0534
    148  CG        97.9840   25.1750   14.4220 C.ar  269  TYR269     -0.0201
    149  CD1       96.8160   25.8860   14.6460 C.ar  269  TYR269     -0.0009
    150  CD2       98.9140   25.7080   13.5290 C.ar  269  TYR269     -0.0009
    151  CE1       96.5660   27.0800   13.9690 C.ar  269  TYR269      0.0417
    152  CE2       98.6790   26.8930   12.8590 C.ar  269  TYR269      0.0417
    153  CZ        97.5020   27.5760   13.0780 C.ar  269  TYR269      0.1957
    154  OH        97.2610   28.7570   12.4100 O.3   269  TYR269     -0.2866
    155  N         92.0210   23.2620   15.1340 N.3   273  CYS273     -0.1235
    156  CA        91.2980   24.5190   14.9700 C.3   273  CYS273      0.1677
    157  C         90.0860   24.4000   14.0570 C.2   273  CYS273      0.2270
    158  O         89.0800   25.0820   14.2560 O.2   273  CYS273     -0.2867
    159  CB        92.2230   25.6010   14.4330 C.3   273  CYS273      0.0956
    160  SG        93.2790   26.3170   15.6680 S.3   273  CYS273     -0.0801
    161  N         87.0850   23.6790   16.0090 N.3   276  LEU276     -0.1231
    162  CA        86.6220   24.8370   16.7590 C.3   276  LEU276      0.1693
    163  C         85.5540   25.6050   15.9890 C.2   276  LEU276      0.2592
    164  O         84.5350   26.0030   16.5520 O.2   276  LEU276     -0.2718
    165  CB        87.7980   25.7480   17.1140 C.3   276  LEU276      0.0284
    166  CG        88.7970   25.1760   18.1220 C.3   276  LEU276      0.0019
    167  CD1       89.8090   26.2240   18.4970 C.3   276  LEU276      0.0001
    168  CD2       88.0790   24.6910   19.3600 C.3   276  LEU276      0.0001
    169  N         85.7840   25.7950   14.6950 N.am  277  PHE277     -0.1976
    170  CA        84.8360   26.5270   13.8660 C.3   277  PHE277      0.1639
    171  C         83.6850   25.6390   13.4180 C.2   277  PHE277      0.2290
    172  O         82.5560   26.1060   13.2670 O.2   277  PHE277     -0.2864
    173  CB        85.5390   27.1450   12.6590 C.3   277  PHE277      0.0560
    174  CG        86.6030   28.1350   13.0270 C.ar  277  PHE277     -0.0200
    175  CD1       87.9130   27.7200   13.2030 C.ar  277  PHE277     -0.0042
    176  CD2       86.2920   29.4740   13.2160 C.ar  277  PHE277     -0.0042
    177  CE1       88.8900   28.6160   13.5560 C.ar  277  PHE277     -0.0003
    178  CE2       87.2670   30.3780   13.5680 C.ar  277  PHE277     -0.0003
    179  CZ        88.5680   29.9490   13.7370 C.ar  277  PHE277     -0.0000
    180  N         84.2790   28.9460   17.9410 N.3   282  THR282     -0.1218
    181  CA        84.8160   30.2160   17.4770 C.3   282  THR282      0.1862
    182  C         84.1100   30.6440   16.2120 C.2   282  THR282      0.2287
    183  O         83.4650   29.8340   15.5570 O.2   282  THR282     -0.2866
    184  CB        86.3030   30.1060   17.1890 C.3   282  THR282      0.1770
    185  OG1       86.5820   28.8170   16.6320 O.3   282  THR282     -0.2211
    186  CG2       87.1010   30.2700   18.4650 C.3   282  THR282      0.0375
@<TRIPOS>BOND
     1   137   135   ar
     2   137   138   ar
     3   135   134   ar
     4   129   130    1
     5    13    14    1
     6   130   131    1
     7   130   133    1
     8   132   131    2
     9   138   140   ar
    10   138   136   ar
    11   134   133    1
    12   134   136   ar
    13    28    27    2
    14   140   142   ar
    15    30    29    1
    16    14    17    1
    17    14    15    1
    18   136   139   ar
    19    25    15   am
    20    25    26    1
    21    27    26    1
    22   121   122    1
    23    17    18    1
    24    15    16    2
    25   142   141   ar
    26    26    29    1
    27   123   124    2
    28   123   122    1
    29   139   141   ar
    30   109   110    1
    31   122   125    1
    32    18    19   ar
    33    18    20   ar
    34    19    21   ar
    35   110   111    1
    36   110   113    1
    37   111   112    2
    38    20    22   ar
    39    21    23   ar
    40   115   117   ar
    41   115   114   ar
    42   125   126    1
    43   117   119   ar
    44   113   114    1
    45   114   116   ar
    46     4     3    2
    47   126   128    1
    48   126   127    1
    49   119   120    1
    50   119   118   ar
    51    22    23   ar
    52    31    32    1
    53    23    24    1
    54   116   118   ar
    55    32    33    1
    56     3     2    1
    57     8    10   ar
    58     8     6   ar
    59     5     2    1
    60     5     6    1
    61    33    34    2
    62    10    11   ar
    63     2     1    1
    64     6     7   ar
    65   154   153    1
    66   173   174    1
    67   173   170    1
    68    11    12    1
    69    11     9   ar
    70   152   153   ar
    71   152   150   ar
    72   174   175   ar
    73   174   176   ar
    74   153   151   ar
    75     7     9   ar
    76   175   177   ar
    77   176   178   ar
    78   172   171    2
    79   171   170    1
    80   150   148   ar
    81   177   179   ar
    82   178   179   ar
    83    59    61    1
    84    59    58    1
    85   170   169    1
    86    54    55    1
    87    43    41   ar
    88   151   149   ar
    89   157   158    2
    90   157   156    1
    91   145   146    2
    92   145   144    1
    93   148   149   ar
    94   148   147    1
    95   159   156    1
    96   159   160    1
    97    96    95   ar
    98    96    94   ar
    99    42    41   ar
   100    55    58    1
   101    55    56    1
   102   169   163   am
   103    41    40    1
   104    95    93   ar
   105   156   155    1
   106    58    60    1
   107   147   144    1
   108   144   143    1
   109    94    92   ar
   110   183   182    2
   111    51    53   ar
   112    51    49   ar
   113    53    52   ar
   114    56    57    2
   115   163   164    2
   116   163   162    1
   117   161   162    1
   118    93    91   ar
   119   182   181    1
   120    40    39    1
   121    35    36    1
   122   185   184    1
   123    92    91   ar
   124   162   165    1
   125    49    48    1
   126    49    50   ar
   127    52    50   ar
   128   165   166    1
   129    91    90    1
   130   184   181    1
   131   184   186    1
   132    39    36    1
   133    48    45    1
   134   181   180    1
   135    36    37    1
   136    44    37   am
   137    44    45    1
   138   166   167    1
   139   166   168    1
   140    37    38    2
   141    45    46    1
   142    90    87    1
   143    77    75    1
   144   108   106    1
   145    46    47    2
   146    86    87    1
   147    87    88    1
   148    76    74    1
   149   107   106    1
   150    75    74    1
   151   106   105    1
   152    88    89    2
   153    74    71    1
   154   105   102    1
   155   102   103    1
   156   102   101    1
   157    73    72    2
   158    71    72    1
   159    71    70    1
   160    98    97    1
   161    98    99    1
   162   103   104    2
   163    72    78   am
   164    99   100    2
   165    69    67    1
   166    78    79    1
   167    79    80    1
   168    79    82    1
   169    85    83    1
   170    62    63    1
   171    63    64    1
   172    63    66    1
   173    80    81    2
   174    65    64    2
   175    67    66    1
   176    83    82    1
   177    83    84    1
   178    66    68    1
