@<TRIPOS>MOLECULE
tmp/3hf4A00.pdb
 214 202 0 0 0
SMALL
GASTEIGER

@<TRIPOS>ATOM
      1  N         19.9680   11.8600   47.4900 N.3    29  LEU29      -0.1245
      2  CA        20.6620   12.9950   46.8780 C.3    29  LEU29       0.1561
      3  C         22.0220   13.2490   47.5200 C.2    29  LEU29       0.2260
      4  O         23.0100   13.4390   46.8120 O.2    29  LEU29      -0.2867
      5  CB        19.7990   14.2600   46.9260 C.3    29  LEU29       0.0270
      6  CG        18.5060   14.2700   46.1030 C.3    29  LEU29       0.0019
      7  CD1       17.6020   15.3890   46.5800 C.3    29  LEU29       0.0001
      8  CD2       18.7660   14.3860   44.6000 C.3    29  LEU29       0.0001
      9  N         24.2710   10.7580   46.2020 N.3    32  MET32      -0.1245
     10  CA        24.5960   11.0700   44.8070 C.3    32  MET32       0.1570
     11  C         25.6360   12.1890   44.6990 C.2    32  MET32       0.2261
     12  O         26.5510   12.1090   43.8820 O.2    32  MET32      -0.2867
     13  CB        23.3310   11.4250   44.0190 C.3    32  MET32       0.0387
     14  CG        23.5560   11.6300   42.5230 C.3    32  MET32       0.0595
     15  SD        22.1730   12.4330   41.6790 S.3    32  MET32      -0.1393
     16  CE        22.1890   14.0700   42.4020 C.3    32  MET32       0.0692
     17  N         27.4380   15.2670   39.5480 N.3    39  THR39      -0.1218
     18  CA        26.0190   15.6200   39.5450 C.3    39  THR39       0.1862
     19  C         25.7380   16.9510   40.2450 C.2    39  THR39       0.2287
     20  O         24.6660   17.5330   40.0650 O.2    39  THR39      -0.2866
     21  CB        25.1620   14.5190   40.1970 C.3    39  THR39       0.1770
     22  OG1       25.4090   14.4900   41.6080 O.3    39  THR39      -0.2211
     23  CG2       25.4800   13.1520   39.5920 C.3    39  THR39       0.0375
     24  N         24.5640   20.3370   38.2780 N.3    42  TYR42      -0.1227
     25  CA        23.1610   20.6350   37.9880 C.3    42  TYR42       0.1736
     26  C         22.4650   21.4100   39.1100 C.2    42  TYR42       0.2595
     27  O         21.4100   22.0110   38.8870 O.2    42  TYR42      -0.2718
     28  CB        22.3870   19.3450   37.6860 C.3    42  TYR42       0.0548
     29  CG        22.7750   18.6710   36.3880 C.ar   42  TYR42      -0.0200
     30  CD1       22.0260   18.8650   35.2320 C.ar   42  TYR42      -0.0009
     31  CD2       23.8880   17.8360   36.3190 C.ar   42  TYR42      -0.0009
     32  CE1       22.3750   18.2450   34.0380 C.ar   42  TYR42       0.0417
     33  CE2       24.2480   17.2170   35.1340 C.ar   42  TYR42       0.0417
     34  CZ        23.4880   17.4220   33.9970 C.ar   42  TYR42       0.1957
     35  OH        23.8460   16.8040   32.8220 O.3    42  TYR42      -0.2866
     36  N         23.0520   21.3940   40.3060 N.am   43  PHE43      -0.1976
     37  CA        22.4680   22.0800   41.4620 C.3    43  PHE43       0.1639
     38  C         23.3230   23.2550   41.9520 C.2    43  PHE43       0.2290
     39  O         23.3820   23.5300   43.1530 O.2    43  PHE43      -0.2864
     40  CB        22.1980   21.0850   42.5990 C.3    43  PHE43       0.0560
     41  CG        21.1540   20.0520   42.2700 C.ar   43  PHE43      -0.0200
     42  CD1       21.5220   18.8060   41.7760 C.ar   43  PHE43      -0.0042
     43  CD2       19.8030   20.3270   42.4540 C.ar   43  PHE43      -0.0042
     44  CE1       20.5610   17.8490   41.4720 C.ar   43  PHE43      -0.0003
     45  CE2       18.8320   19.3780   42.1480 C.ar   43  PHE43      -0.0003
     46  CZ        19.2100   18.1360   41.6580 C.ar   43  PHE43      -0.0000
     47  N         22.8850   26.2930   42.0340 N.3    45  HIS45      -0.1226
     48  CA        22.1550   27.4610   42.5230 C.3    45  HIS45       0.1752
     49  C         21.5960   27.3010   43.9390 C.2    45  HIS45       0.2595
     50  O         21.0700   28.2580   44.5170 O.2    45  HIS45      -0.2718
     51  CB        21.0410   27.8300   41.5430 C.3    45  HIS45       0.0759
     52  CG        20.0240   26.7510   41.3560 C.ar   45  HIS45       0.0818
     53  ND1       20.2110   25.6960   40.4890 N.ar   45  HIS45      -0.2268
     54  CD2       18.8110   26.5610   41.9260 C.ar   45  HIS45       0.1154
     55  CE1       19.1560   24.9030   40.5330 C.ar   45  HIS45       0.1986
     56  NE2       18.2910   25.4060   41.3960 N.ar   45  HIS45      -0.2212
     57  N         21.7110   26.0970   44.4930 N.am   46  ILE46      -0.1980
     58  CA        21.2980   25.8460   45.8750 C.3    46  ILE46       0.1595
     59  C         22.4770   25.3980   46.7330 C.2    46  ILE46       0.2287
     60  O         23.5290   25.0160   46.2150 O.2    46  ILE46      -0.2864
     61  CB        20.1520   24.8020   45.9760 C.3    46  ILE46       0.0276
     62  CG1       20.5510   23.4880   45.2970 C.3    46  ILE46       0.0022
     63  CG2       18.8520   25.3700   45.4040 C.3    46  ILE46       0.0022
     64  CD1       19.6810   22.2970   45.6760 C.3    46  ILE46       0.0001
     65  N         14.1030   19.6840   48.4450 N.3    58  HIS58      -0.1241
     66  CA        14.1460   18.9980   47.1520 C.3    58  HIS58       0.1621
     67  C         13.9800   17.4840   47.3060 C.2    58  HIS58       0.2264
     68  O         13.3440   16.8340   46.4690 O.2    58  HIS58      -0.2867
     69  CB        15.4460   19.3190   46.4110 C.3    58  HIS58       0.0745
     70  CG        15.4490   18.8840   44.9790 C.ar   58  HIS58       0.0817
     71  ND1       14.8220   19.6010   43.9840 N.ar   58  HIS58      -0.2268
     72  CD2       16.0020   17.8060   44.3750 C.ar   58  HIS58       0.1154
     73  CE1       14.9890   18.9840   42.8280 C.ar   58  HIS58       0.1986
     74  NE2       15.7010   17.8920   43.0370 N.ar   58  HIS58      -0.2212
     75  N         10.3850   16.7380   47.4000 N.3    61  LYS61      -0.1231
     76  CA         9.8040   16.9080   46.0660 C.3    61  LYS61       0.1693
     77  C          9.9770   15.6500   45.2070 C.2    61  LYS61       0.2591
     78  O          9.0360   15.2110   44.5410 O.2    61  LYS61      -0.2718
     79  CB        10.4000   18.1290   45.3610 C.3    61  LYS61       0.0285
     80  CG         9.7440   19.4590   45.7420 C.3    61  LYS61       0.0035
     81  CD        10.2970   20.6330   44.9230 C.3    61  LYS61       0.0206
     82  CE        11.6290   21.1550   45.4740 C.3    61  LYS61       0.1093
     83  NZ        12.2680   22.1990   44.6090 N.3    61  LYS61      -0.1314
     84  N         11.1790   15.0730   45.2460 N.am   62  VAL62      -0.1980
     85  CA        11.4950   13.8390   44.5290 C.3    62  VAL62       0.1595
     86  C         10.6340   12.6720   45.0250 C.2    62  VAL62       0.2287
     87  O         10.0920   11.9010   44.2210 O.2    62  VAL62      -0.2864
     88  CB        13.0100   13.4970   44.6450 C.3    62  VAL62       0.0276
     89  CG1       13.2980   12.0600   44.2180 C.3    62  VAL62       0.0022
     90  CG2       13.8450   14.4770   43.8250 C.3    62  VAL62       0.0022
     91  N          7.0740   12.7690   43.8210 N.3    65  ALA65      -0.1231
     92  CA         7.0580   12.4110   42.4070 C.3    65  ALA65       0.1694
     93  C          7.1380   10.9010   42.2130 C.2    65  ALA65       0.2591
     94  O          6.4610   10.3460   41.3500 O.2    65  ALA65      -0.2718
     95  CB         8.1910   13.1040   41.6790 C.3    65  ALA65       0.0304
     96  N          7.9590   10.2420   43.0260 N.am   66  LEU66      -0.1980
     97  CA         8.0790    8.7860   42.9990 C.3    66  LEU66       0.1596
     98  C          6.8380    8.1010   43.5620 C.2    66  LEU66       0.2287
     99  O          6.4750    7.0110   43.1200 O.2    66  LEU66      -0.2864
    100  CB         9.3240    8.3310   43.7640 C.3    66  LEU66       0.0297
    101  CG        10.6880    8.6300   43.1420 C.3    66  LEU66       0.0022
    102  CD1       11.7680    8.4100   44.1720 C.3    66  LEU66       0.0001
    103  CD2       10.9400    7.7740   41.9070 C.3    66  LEU66       0.0001
    104  N          7.3770   16.6890   34.5380 N.3    83  LEU83      -0.1245
    105  CA         8.7400   16.3530   34.9470 C.3    83  LEU83       0.1561
    106  C          9.6070   15.9530   33.7590 C.2    83  LEU83       0.2260
    107  O         10.8310   16.0820   33.8050 O.2    83  LEU83      -0.2867
    108  CB         8.7330   15.2330   35.9890 C.3    83  LEU83       0.0270
    109  CG         8.0210   15.4970   37.3210 C.3    83  LEU83       0.0019
    110  CD1        7.8350   14.2000   38.0960 C.3    83  LEU83       0.0001
    111  CD2        8.7600   16.5370   38.1590 C.3    83  LEU83       0.0001
    112  N         10.7060   19.2390   32.1720 N.3    86  LEU86      -0.1231
    113  CA        11.7250   19.8360   33.0230 C.3    86  LEU86       0.1693
    114  C         13.0960   19.2450   32.7190 C.2    86  LEU86       0.2592
    115  O         14.0140   19.9720   32.3510 O.2    86  LEU86      -0.2718
    116  CB        11.3920   19.6340   34.5050 C.3    86  LEU86       0.0284
    117  CG        11.5030   20.8240   35.4720 C.3    86  LEU86       0.0019
    118  CD1       11.6390   20.3140   36.8930 C.3    86  LEU86       0.0001
    119  CD2       12.6420   21.7910   35.1460 C.3    86  LEU86       0.0001
    120  N         13.2100   17.9240   32.8400 N.am   87  HIS87      -0.1976
    121  CA        14.4980   17.2310   32.7820 C.3    87  HIS87       0.1656
    122  C         15.0450   17.0050   31.3720 C.2    87  HIS87       0.2291
    123  O         16.2630   16.9750   31.1740 O.2    87  HIS87      -0.2864
    124  CB        14.4080   15.8990   33.5260 C.3    87  HIS87       0.0771
    125  CG        14.1530   16.0460   34.9950 C.ar   87  HIS87       0.0820
    126  ND1       12.9050   16.3260   35.5090 N.ar   87  HIS87      -0.2267
    127  CD2       14.9860   15.9570   36.0580 C.ar   87  HIS87       0.1154
    128  CE1       12.9800   16.3990   36.8250 C.ar   87  HIS87       0.1986
    129  NE2       14.2320   16.1810   37.1840 N.ar   87  HIS87      -0.2212
    130  N         16.1180   21.2370   31.3410 N.3    91  LEU91      -0.1245
    131  CA        17.3680   20.9750   32.0690 C.3    91  LEU91       0.1561
    132  C         18.4280   20.2350   31.2590 C.2    91  LEU91       0.2260
    133  O         19.6180   20.3610   31.5460 O.2    91  LEU91      -0.2867
    134  CB        17.1010   20.2110   33.3700 C.3    91  LEU91       0.0270
    135  CG        16.2310   20.8520   34.4560 C.3    91  LEU91       0.0019
    136  CD1       15.8300   19.8000   35.4780 C.3    91  LEU91       0.0001
    137  CD2       16.9130   22.0400   35.1290 C.3    91  LEU91       0.0001
    138  N         19.2190   17.0260   31.1310 N.3    93  VAL93      -0.1245
    139  CA        19.9890   16.1430   32.0120 C.3    93  VAL93       0.1561
    140  C         20.5360   14.9290   31.2570 C.2    93  VAL93       0.2260
    141  O         19.7960   14.2220   30.5700 O.2    93  VAL93      -0.2867
    142  CB        19.1640   15.6760   33.2510 C.3    93  VAL93       0.0252
    143  CG1       20.0340   14.8730   34.2170 C.3    93  VAL93       0.0019
    144  CG2       18.5450   16.8630   33.9750 C.3    93  VAL93       0.0019
    145  N         23.2450   10.3930   34.9820 N.3    97  ASN97      -0.1225
    146  CA        22.8940   10.9770   36.2670 C.3    97  ASN97       0.1785
    147  C         21.7130   10.2520   36.9110 C.2    97  ASN97       0.2597
    148  O         21.7050   10.0260   38.1220 O.2    97  ASN97      -0.2718
    149  CB        22.6200   12.4760   36.1070 C.3    97  ASN97       0.1169
    150  CG        23.8230   13.2330   35.5620 C.2    97  ASN97       0.2627
    151  OD1       23.8610   13.6030   34.3910 O.2    97  ASN97      -0.2716
    152  ND2       24.8170   13.4500   36.4090 N.am   97  ASN97      -0.0877
    153  N         20.7380    9.8630   36.0890 N.am   98  PHE98      -0.1976
    154  CA        19.5840    9.0920   36.5540 C.3    98  PHE98       0.1639
    155  C         19.9900    7.7150   37.0710 C.2    98  PHE98       0.2290
    156  O         19.4870    7.2700   38.1030 O.2    98  PHE98      -0.2864
    157  CB        18.5250    8.9730   35.4580 C.3    98  PHE98       0.0560
    158  CG        17.6600   10.1940   35.3200 C.ar   98  PHE98      -0.0200
    159  CD1       16.4450   10.2770   35.9900 C.ar   98  PHE98      -0.0042
    160  CD2       18.0640   11.2650   34.5280 C.ar   98  PHE98      -0.0042
    161  CE1       15.6440   11.4060   35.8690 C.ar   98  PHE98      -0.0003
    162  CE2       17.2700   12.3980   34.4010 C.ar   98  PHE98      -0.0003
    163  CZ        16.0590   12.4700   35.0710 C.ar   98  PHE98      -0.0000
    164  N         21.4700    8.3960   40.5250 N.3   101  LEU101     -0.1231
    165  CA        20.4490    8.6360   41.5450 C.3   101  LEU101      0.1693
    166  C         19.6160    7.3870   41.8320 C.2   101  LEU101      0.2592
    167  O         19.3030    7.1040   42.9880 O.2   101  LEU101     -0.2718
    168  CB        19.5530    9.8210   41.1600 C.3   101  LEU101      0.0284
    169  CG        18.3980   10.2430   42.0820 C.3   101  LEU101      0.0019
    170  CD1       18.8600   10.5170   43.5090 C.3   101  LEU101      0.0001
    171  CD2       17.6970   11.4620   41.5080 C.3   101  LEU101      0.0001
    172  N         19.2670    6.6440   40.7820 N.am  102  SER102     -0.1952
    173  CA        18.5570    5.3690   40.9280 C.3   102  SER102      0.1924
    174  C         19.3000    4.4500   41.8850 C.2   102  SER102      0.2314
    175  O         18.7070    3.8820   42.8030 O.2   102  SER102     -0.2863
    176  CB        18.4050    4.6720   39.5740 C.3   102  SER102      0.2116
    177  OG        17.4290    5.3160   38.7760 O.3   102  SER102     -0.2180
    178  N         19.4110    5.6880   45.4250 N.3   105  LEU105     -0.1245
    179  CA        18.0890    5.4610   45.9960 C.3   105  LEU105      0.1561
    180  C         17.9230    4.0120   46.4530 C.2   105  LEU105      0.2260
    181  O         17.2980    3.7560   47.4800 O.2   105  LEU105     -0.2867
    182  CB        16.9960    5.8510   44.9970 C.3   105  LEU105      0.0270
    183  CG        15.5080    5.8910   45.3790 C.3   105  LEU105      0.0019
    184  CD1       15.2260    6.3500   46.8180 C.3   105  LEU105      0.0001
    185  CD2       14.8060    6.7950   44.3840 C.3   105  LEU105      0.0001
    186  N         12.5440    2.2870   38.5040 N.3   129  LEU129     -0.1245
    187  CA        13.3480    3.5040   38.3760 C.3   129  LEU129      0.1561
    188  C         13.9320    3.6660   36.9790 C.2   129  LEU129      0.2260
    189  O         14.1210    4.7910   36.5130 O.2   129  LEU129     -0.2867
    190  CB        14.4800    3.5230   39.4050 C.3   129  LEU129      0.0270
    191  CG        14.1260    3.5940   40.8920 C.3   129  LEU129      0.0019
    192  CD1       15.3630    3.2780   41.7190 C.3   129  LEU129      0.0001
    193  CD2       13.5380    4.9470   41.2800 C.3   129  LEU129      0.0001
    194  N         11.0130    4.9820   34.9170 N.3   132  VAL132     -0.1231
    195  CA        10.8760    6.3780   35.3430 C.3   132  VAL132      0.1692
    196  C         11.9550    7.2560   34.6840 C.2   132  VAL132      0.2592
    197  O         11.6620    8.3600   34.2260 O.2   132  VAL132     -0.2718
    198  CB        10.9170    6.5060   36.8930 C.3   132  VAL132      0.0266
    199  CG1       11.1390    7.9490   37.3280 C.3   132  VAL132      0.0020
    200  CG2        9.6320    5.9630   37.5100 C.3   132  VAL132      0.0020
    201  N         13.1890    6.7470   34.6260 N.am  133  SER133     -0.1952
    202  CA        14.3120    7.4310   33.9700 C.3   133  SER133      0.1924
    203  C         14.1270    7.5740   32.4590 C.2   133  SER133      0.2314
    204  O         14.4640    8.6090   31.8830 O.2   133  SER133     -0.2863
    205  CB        15.6270    6.6990   34.2500 C.3   133  SER133      0.2116
    206  OG        15.9720    6.7610   35.6200 O.3   133  SER133     -0.2180
    207  N         11.6630   10.3190   31.7750 N.3   136  LEU136     -0.1245
    208  CA        12.1830   11.6200   32.1960 C.3   136  LEU136      0.1561
    209  C         13.2440   12.2030   31.2580 C.2   136  LEU136      0.2260
    210  O         13.4390   13.4210   31.2100 O.2   136  LEU136     -0.2867
    211  CB        12.7460   11.5130   33.6180 C.3   136  LEU136      0.0270
    212  CG        11.8780   11.7690   34.8610 C.3   136  LEU136      0.0019
    213  CD1       11.9160   13.2300   35.2400 C.3   136  LEU136      0.0001
    214  CD2       10.4350   11.2990   34.7250 C.3   136  LEU136      0.0001
@<TRIPOS>BOND
     1   141   140    2
     2   138   139    1
     3   123   122    2
     4   210   209    2
     5   140   139    1
     6   209   208    1
     7   132   133    2
     8   132   131    1
     9   130   131    1
    10   122   121    1
    11   207   208    1
    12   204   203    2
    13   139   142    1
    14   131   134    1
    15   112   113    1
    16   208   211    1
    17   115   114    2
    18   203   202    1
    19   114   120   am
    20   114   113    1
    21   121   120    1
    22   121   124    1
    23    35    34    1
    24   113   116    1
    25   142   144    1
    26   142   143    1
    27   134   135    1
    28   124   125    1
    29   211   212    1
    30   106   107    2
    31   106   105    1
    32   202   205    1
    33   202   201    1
    34    34    32   ar
    35    34    33   ar
    36    32    30   ar
    37   197   196    2
    38   205   206    1
    39   151   150    2
    40   162   160   ar
    41   162   163   ar
    42   135   137    1
    43   135   136    1
    44   116   117    1
    45   160   158   ar
    46   104   105    1
    47   201   196   am
    48   196   195    1
    49   214   212    1
    50   212   213    1
    51   194   195    1
    52   105   108    1
    53   145   146    1
    54   125   126   ar
    55   125   127   ar
    56   163   161   ar
    57    33    31   ar
    58   119   117    1
    59    30    29   ar
    60   158   157    1
    61   158   159   ar
    62   195   198    1
    63   157   154    1
    64   117   118    1
    65   126   128   ar
    66   150   149    1
    67   150   152   am
    68   161   159   ar
    69   108   109    1
    70   127   129   ar
    71   153   154    1
    72   153   147   am
    73   149   146    1
    74   146   147    1
    75    31    29   ar
    76    29    28    1
    77   189   188    2
    78   154   155    1
    79   128   129   ar
    80   198   199    1
    81   198   200    1
    82   147   148    2
    83   188   187    1
    84   155   156    2
    85   109   110    1
    86   109   111    1
    87    28    25    1
    88    25    24    1
    89    25    26    1
    90   187   186    1
    91   187   190    1
    92   177   176    1
    93    27    26    2
    94    26    36   am
    95   190   191    1
    96    18    17    1
    97    18    21    1
    98    18    19    1
    99   176   173    1
   100    23    21    1
   101    20    19    2
   102    21    22    1
   103    36    37    1
   104    53    55   ar
   105    53    52   ar
   106   164   165    1
   107    55    56   ar
   108   172   173    1
   109   172   166   am
   110   191   193    1
   111   191   192    1
   112   173   174    1
   113   168   165    1
   114   168   169    1
   115    94    93    2
   116    52    51    1
   117    52    54   ar
   118    56    54   ar
   119    37    38    1
   120    37    40    1
   121    44    46   ar
   122    44    42   ar
   123   171   169    1
   124    51    48    1
   125   165   166    1
   126    46    45   ar
   127    15    16    1
   128    15    14    1
   129    95    92    1
   130    42    41   ar
   131   166   167    2
   132   174   175    2
   133   103   101    1
   134    38    39    2
   135    47    48    1
   136   169   170    1
   137    45    43   ar
   138    93    92    1
   139    93    96   am
   140    41    43   ar
   141    41    40    1
   142    92    91    1
   143    14    13    1
   144    48    49    1
   145    73    74   ar
   146    73    71   ar
   147    97    96    1
   148    97    98    1
   149    97   100    1
   150    74    72   ar
   151    99    98    2
   152   101   100    1
   153   101   102    1
   154    90    88    1
   155    12    11    2
   156    49    57   am
   157    49    50    2
   158    71    70   ar
   159    13    10    1
   160    89    88    1
   161    87    86    2
   162    72    70   ar
   163   185   183    1
   164    57    58    1
   165    85    88    1
   166    85    86    1
   167    85    84    1
   168    78    77    2
   169     8     6    1
   170    83    82    1
   171    11    10    1
   172    10     9    1
   173    81    82    1
   174    81    80    1
   175    70    69    1
   176   182   183    1
   177   182   179    1
   178    77    84   am
   179    77    76    1
   180    62    64    1
   181    62    61    1
   182    79    80    1
   183    79    76    1
   184   183   184    1
   185    63    61    1
   186   178   179    1
   187    58    61    1
   188    58    59    1
   189   179   180    1
   190    76    75    1
   191     6     7    1
   192     6     5    1
   193    60    59    2
   194    69    66    1
   195   180   181    2
   196    68    67    2
   197     4     3    2
   198     2     5    1
   199     2     1    1
   200     2     3    1
   201    66    67    1
   202    66    65    1
