@<TRIPOS>MOLECULE
tmp/3hf5A00.pdb
 118 114 0 0 0
SMALL
GASTEIGER

@<TRIPOS>ATOM
      1  N         21.9240   16.2130   19.2080 N.3    14  TYR14      -0.1241
      2  CA        21.2840   14.9370   19.5060 C.3    14  TYR14       0.1605
      3  C         20.5660   15.0090   20.8580 C.2    14  TYR14       0.2264
      4  O         21.1360   15.4590   21.8740 O.2    14  TYR14      -0.2867
      5  CB        22.3540   13.8390   19.6260 C.3    14  TYR14       0.0534
      6  CG        23.1300   13.6220   18.3680 C.ar   14  TYR14      -0.0201
      7  CD1       22.7210   12.6180   17.5020 C.ar   14  TYR14      -0.0009
      8  CD2       24.2370   14.4200   18.0500 C.ar   14  TYR14      -0.0009
      9  CE1       23.4190   12.3790   16.3080 C.ar   14  TYR14       0.0417
     10  CE2       24.9460   14.1730   16.8020 C.ar   14  TYR14       0.0417
     11  CZ        24.5110   13.1720   16.0070 C.ar   14  TYR14       0.1957
     12  OH        25.1690   12.9530   14.7990 O.3    14  TYR14      -0.2866
     13  N         19.4140   12.5060   23.6940 N.3    16  LEU16      -0.1245
     14  CA        19.7440   11.1410   24.1820 C.3    16  LEU16       0.1561
     15  C         18.7320   10.7410   25.2510 C.2    16  LEU16       0.2260
     16  O         18.4120   11.5330   26.1410 O.2    16  LEU16      -0.2867
     17  CB        21.1520   11.1610   24.7830 C.3    16  LEU16       0.0270
     18  CG        22.3920   11.0630   23.8470 C.3    16  LEU16       0.0019
     19  CD1       22.4480   12.3200   22.9930 C.3    16  LEU16       0.0001
     20  CD2       23.6680   10.9330   24.5550 C.3    16  LEU16       0.0001
     21  N         31.9540    8.6250   26.9150 N.3    34  HIS34      -0.1241
     22  CA        31.6930    8.8820   25.5030 C.3    34  HIS34       0.1621
     23  C         32.3970   10.1660   25.0820 C.2    34  HIS34       0.2264
     24  O         32.9520   10.2390   23.9460 O.2    34  HIS34      -0.2867
     25  CB        30.2160    9.0490   25.2500 C.3    34  HIS34       0.0745
     26  CG        29.8080    8.6650   23.8720 C.ar   34  HIS34       0.0817
     27  ND1       30.0800    7.4160   23.3420 N.ar   34  HIS34      -0.2268
     28  CD2       29.1400    9.3540   22.9110 C.ar   34  HIS34       0.1154
     29  CE1       29.5660    7.3420   22.1240 C.ar   34  HIS34       0.1986
     30  NE2       28.9750    8.4990   21.8380 N.ar   34  HIS34      -0.2212
     31  N         32.9990   17.8510   20.0700 N.3    47  TYR47      -0.1241
     32  CA        31.8850   17.0910   20.6170 C.3    47  TYR47       0.1605
     33  C         31.5920   17.6920   21.9740 C.2    47  TYR47       0.2264
     34  O         32.5010   18.0160   22.7470 O.2    47  TYR47      -0.2867
     35  CB        32.2580   15.6190   20.8360 C.3    47  TYR47       0.0534
     36  CG        31.1390   14.7960   21.4290 C.ar   47  TYR47      -0.0201
     37  CD1       29.8820   14.6450   20.7930 C.ar   47  TYR47      -0.0009
     38  CD2       31.3090   14.1650   22.6780 C.ar   47  TYR47      -0.0009
     39  CE1       28.8370   13.9190   21.4020 C.ar   47  TYR47       0.0417
     40  CE2       30.2750   13.4240   23.2600 C.ar   47  TYR47       0.0417
     41  CZ        29.0800   13.2640   22.6150 C.ar   47  TYR47       0.1957
     42  OH        28.1350   12.5260   23.2700 O.3    47  TYR47      -0.2866
     43  N         23.6670   15.8560   23.0900 N.3    73  GLY73      -0.1225
     44  CA        25.0140   15.7700   22.4690 C.3    73  GLY73       0.1811
     45  C         25.0670   16.7040   21.3040 C.2    73  GLY73       0.2280
     46  O         24.0450   17.0770   20.7480 O.2    73  GLY73      -0.2866
     47  N         27.7740   17.5980   17.7350 N.3    75  CYS75      -0.1235
     48  CA        28.9930   17.4490   16.9480 C.3    75  CYS75       0.1677
     49  C         29.1160   18.5860   15.9830 C.2    75  CYS75       0.2270
     50  O         28.1460   19.0050   15.3930 O.2    75  CYS75      -0.2867
     51  CB        28.9060   16.1790   16.1300 C.3    75  CYS75       0.0956
     52  SG        28.9690   14.6630   17.1390 S.3    75  CYS75      -0.0801
     53  N         35.2940   11.4110    9.0720 N.3    86  TYR86      -0.1241
     54  CA        34.5580   10.8620   10.2220 C.3    86  TYR86       0.1605
     55  C         33.6360    9.7250    9.8590 C.2    86  TYR86       0.2264
     56  O         33.7250    8.6640   10.4880 O.2    86  TYR86      -0.2867
     57  CB        33.7690   12.0260   10.8390 C.3    86  TYR86       0.0534
     58  CG        32.6740   11.7170   11.8320 C.ar   86  TYR86      -0.0201
     59  CD1       32.9780   11.5400   13.1760 C.ar   86  TYR86      -0.0009
     60  CD2       31.3180   11.6920   11.4200 C.ar   86  TYR86      -0.0009
     61  CE1       31.9440   11.3570   14.1080 C.ar   86  TYR86       0.0417
     62  CE2       30.2830   11.5370   12.3310 C.ar   86  TYR86       0.0417
     63  CZ        30.6500   11.3210   13.6380 C.ar   86  TYR86       0.1957
     64  OH        29.6180   11.1470   14.5300 O.3    86  TYR86      -0.2866
     65  N         33.3600    4.2260   18.5010 N.3    95  TRP95      -0.1227
     66  CA        32.6740    5.1820   19.3690 C.3    95  TRP95       0.1737
     67  C         31.2010    4.8800   19.3600 C.2    95  TRP95       0.2595
     68  O         30.5060    4.8440   20.4170 O.2    95  TRP95      -0.2718
     69  CB        32.9410    6.5700   18.7950 C.3    95  TRP95       0.0564
     70  CG        32.4840    7.7440   19.6610 C.ar   95  TRP95       0.0003
     71  CD1       32.6720    7.9000   21.0200 C.ar   95  TRP95       0.0946
     72  CD2       31.8920    8.9550   19.1830 C.ar   95  TRP95       0.0152
     73  NE1       32.1530    9.1240   21.4100 N.ar   95  TRP95      -0.2442
     74  CE2       31.7100    9.7890   20.2850 C.ar   95  TRP95       0.0810
     75  CE3       31.4900    9.4040   17.9200 C.ar   95  TRP95       0.0012
     76  CZ2       31.1320   11.0710   20.1630 C.ar   95  TRP95       0.0191
     77  CZ3       30.9000   10.6710   17.8000 C.ar   95  TRP95       0.0001
     78  CH2       30.7220   11.4820   18.9420 C.ar   95  TRP95       0.0015
     79  N         30.6630    4.6130   18.1830 N.am   96  PHE96      -0.1976
     80  CA        29.2400    4.2700   18.0520 C.3    96  PHE96       0.1639
     81  C         28.8780    2.9170   18.7500 C.2    96  PHE96       0.2290
     82  O         27.7550    2.7440   19.2160 O.2    96  PHE96      -0.2864
     83  CB        28.7860    4.2810   16.5890 C.3    96  PHE96       0.0560
     84  CG        28.4460    5.6600   16.0320 C.ar   96  PHE96      -0.0200
     85  CD1       29.2520    6.7860   16.2410 C.ar   96  PHE96      -0.0042
     86  CD2       27.3140    5.8010   15.2380 C.ar   96  PHE96      -0.0042
     87  CE1       28.8770    8.0700   15.6400 C.ar   96  PHE96      -0.0003
     88  CE2       26.9790    7.0230   14.6320 C.ar   96  PHE96      -0.0003
     89  CZ        27.7600    8.1480   14.8450 C.ar   96  PHE96      -0.0000
     90  N         28.1880    4.0130   22.0180 N.3    99  GLY99      -0.1210
     91  CA        26.8770    4.5700   21.9880 C.3    99  GLY99       0.1956
     92  C         25.7510    3.5700   22.0880 C.2    99  GLY99       0.2611
     93  O         24.7490    3.8350   22.7630 O.2    99  GLY99      -0.2717
     94  N         25.8950    2.4170   21.4330 N.am  100  LYS100     -0.1979
     95  CA        24.8290    1.4120   21.4950 C.3   100  LYS100      0.1596
     96  C         24.6260    0.8700   22.9200 C.2   100  LYS100      0.2287
     97  O         23.5060    0.4840   23.2930 O.2   100  LYS100     -0.2864
     98  CB        25.0600    0.2620   20.4980 C.3   100  LYS100      0.0298
     99  CG        24.9860    0.6580   19.0340 C.3   100  LYS100      0.0038
    100  CD        25.1560   -0.5560   18.1150 C.3   100  LYS100      0.0206
    101  CE        25.5680   -0.1360   16.6930 C.3   100  LYS100      0.1093
    102  NZ        25.5350   -1.2640   15.7010 N.3   100  LYS100     -0.1314
    103  N         23.1980    4.5520   25.0450 N.3   103  ILE103     -0.1245
    104  CA        22.1070    5.3420   24.5040 C.3   103  ILE103      0.1561
    105  C         20.9450    4.4440   24.1360 C.2   103  ILE103      0.2260
    106  O         21.0350    3.6250   23.1880 O.2   103  ILE103     -0.2867
    107  CB        22.5400    6.1550   23.2730 C.3   103  ILE103      0.0252
    108  CG1       23.6950    7.0730   23.6350 C.3   103  ILE103      0.0019
    109  CG2       21.3810    6.9760   22.7800 C.3   103  ILE103      0.0019
    110  CD1       24.4480    7.6300   22.3880 C.3   103  ILE103      0.0001
    111  N         17.6300    7.8640   20.4060 N.3   106  LEU106     -0.1245
    112  CA        18.4070    9.0520   19.9230 C.3   106  LEU106      0.1561
    113  C         17.6020    9.7940   18.8970 C.2   106  LEU106      0.2260
    114  O         17.0570    9.1640   17.9950 O.2   106  LEU106     -0.2867
    115  CB        19.7500    8.5470   19.2860 C.3   106  LEU106      0.0270
    116  CG        20.7510    9.5380   18.7250 C.3   106  LEU106      0.0019
    117  CD1       21.3130   10.3060   19.8440 C.3   106  LEU106      0.0001
    118  CD2       21.8590    8.7650   18.0890 C.3   106  LEU106      0.0001
@<TRIPOS>BOND
     1    53    54    1
     2    55    54    1
     3    55    56    2
     4    54    57    1
     5    57    58    1
     6    60    58   ar
     7    60    62   ar
     8    58    59   ar
     9    62    63   ar
    10    59    61   ar
    11    63    61   ar
    12    63    64    1
    13    88    89   ar
    14    88    86   ar
    15    12    11    1
    16    89    87   ar
    17    86    84   ar
    18    50    49    2
    19    87    85   ar
    20   102   101    1
    21    49    48    1
    22    11     9   ar
    23    11    10   ar
    24    84    85   ar
    25    84    83    1
    26    51    48    1
    27    51    52    1
    28     9     7   ar
    29    83    80    1
    30   101   100    1
    31    10     8   ar
    32    48    47    1
    33     7     6   ar
    34    77    75   ar
    35    77    78   ar
    36    75    72   ar
    37   114   113    2
    38     8     6   ar
    39    80    79    1
    40    80    81    1
    41   118   116    1
    42   100    99    1
    43    79    67   am
    44     6     5    1
    45    65    66    1
    46   116   115    1
    47   116   117    1
    48    81    82    2
    49    69    66    1
    50    69    70    1
    51   113   112    1
    52    78    76   ar
    53    99    98    1
    54    72    70   ar
    55    72    74   ar
    56     1     2    1
    57   115   112    1
    58    67    66    1
    59    67    68    2
    60     2     5    1
    61     2     3    1
    62    70    71   ar
    63   112   111    1
    64    31    32    1
    65    76    74   ar
    66    74    73   ar
    67    98    95    1
    68    32    35    1
    69    32    33    1
    70    46    45    2
    71    37    39   ar
    72    37    36   ar
    73    35    36    1
    74     3     4    2
    75    71    73   ar
    76    45    44    1
    77    39    41   ar
    78    36    38   ar
    79    94    95    1
    80    94    92   am
    81    95    96    1
    82    30    29   ar
    83    30    28   ar
    84    33    34    2
    85    91    90    1
    86    91    92    1
    87    92    93    2
    88    29    27   ar
    89   110   108    1
    90    44    43    1
    91    41    40   ar
    92    41    42    1
    93    38    40   ar
    94   109   107    1
    95    28    26   ar
    96    96    97    2
    97    19    18    1
    98   106   105    2
    99   107   108    1
   100   107   104    1
   101    27    26   ar
   102    13    14    1
   103    18    20    1
   104    18    17    1
   105    26    25    1
   106    24    23    2
   107   105   104    1
   108    14    17    1
   109    14    15    1
   110   104   103    1
   111    23    22    1
   112    25    22    1
   113    15    16    2
   114    22    21    1
