@<TRIPOS>MOLECULE
tmp/3hf6A00.pdb
 198 193 0 0 0
SMALL
GASTEIGER

@<TRIPOS>ATOM
      1  N          3.7830   19.2430   15.9010 N.3    32  ARG32      -0.1245
      2  CA         3.2930   17.8960   16.1990 C.3    32  ARG32       0.1563
      3  C          1.7950   17.7770   15.9250 C.2    32  ARG32       0.2260
      4  O          1.3460   16.7640   15.3900 O.2    32  ARG32      -0.2867
      5  CB         3.6310   17.4700   17.6330 C.3    32  ARG32       0.0307
      6  CG         5.1080   17.1480   17.8670 C.3    32  ARG32       0.0489
      7  CD         5.5710   15.8920   17.1180 C.3    32  ARG32       0.2205
      8  NE         4.8480   14.6880   17.5310 N.pl3  32  ARG32      -0.0865
      9  CZ         5.3050   13.7800   18.3870 C.cat  32  ARG32       0.5346
     10  NH1        6.5070   13.9160   18.9450 N.pl3  32  ARG32       0.1354
     11  NH2        4.5510   12.7280   18.6890 N.pl3  32  ARG32       0.1354
     12  N          0.2030    8.7050   15.7600 N.3   121  GLY121     -0.1210
     13  CA         1.0080    8.2650   16.8920 C.3   121  GLY121      0.1956
     14  C          0.8430    6.7850   17.1630 C.2   121  GLY121      0.2612
     15  O          0.9870    5.9520   16.2600 O.2   121  GLY121     -0.2717
     16  N          0.5200    6.4650   18.4110 N.am  122  TYR122     -0.1962
     17  CA         0.3710    5.0860   18.8480 C.3   122  TYR122      0.1771
     18  C         -0.7980    4.3830   18.1660 C.2   122  TYR122      0.2619
     19  O         -1.8620    4.9640   17.9700 O.2   122  TYR122     -0.2715
     20  CB         0.1970    5.0210   20.3730 C.3   122  TYR122      0.0574
     21  CG        -0.0040    3.6110   20.8880 C.ar  122  TYR122     -0.0198
     22  CD1       -1.2890    3.1000   21.0950 C.ar  122  TYR122     -0.0009
     23  CD2        1.0840    2.7780   21.1350 C.ar  122  TYR122     -0.0009
     24  CE1       -1.4820    1.7970   21.5440 C.ar  122  TYR122      0.0417
     25  CE2        0.9010    1.4720   21.5900 C.ar  122  TYR122      0.0417
     26  CZ        -0.3820    0.9940   21.7940 C.ar  122  TYR122      0.1957
     27  OH        -0.5650   -0.2920   22.2460 O.3   122  TYR122     -0.2866
     28  N         -0.5770    3.1250   17.8070 N.am  123  LEU123     -0.1977
     29  CA        -1.6530    2.2350   17.3940 C.3   123  LEU123      0.1596
     30  C         -1.3980    0.8780   18.0350 C.2   123  LEU123      0.2287
     31  O         -0.2630    0.5660   18.3890 O.2   123  LEU123     -0.2864
     32  CB        -1.7350    2.1300   15.8650 C.3   123  LEU123      0.0297
     33  CG        -0.6610    1.4220   15.0290 C.3   123  LEU123      0.0022
     34  CD1       -1.1260    1.3300   13.5770 C.3   123  LEU123      0.0001
     35  CD2        0.7050    2.1120   15.1170 C.3   123  LEU123      0.0001
     36  N          5.3110    7.1940   11.2200 N.3   140  THR140     -0.1218
     37  CA         5.2480    8.5400   11.7630 C.3   140  THR140      0.1862
     38  C          6.0430    9.4740   10.8550 C.2   140  THR140      0.2287
     39  O          6.9840    9.0400   10.1730 O.2   140  THR140     -0.2866
     40  CB         5.8220    8.5920   13.1800 C.3   140  THR140      0.1770
     41  OG1        7.1380    8.0290   13.1660 O.3   140  THR140     -0.2211
     42  CG2        4.9410    7.7790   14.1390 C.3   140  THR140      0.0375
     43  N          6.7780   12.9700   11.9490 N.3   142  TYR142     -0.1241
     44  CA         7.4920   13.9580   12.7660 C.3   142  TYR142      0.1605
     45  C          8.9120   13.5220   13.1210 C.2   142  TYR142      0.2264
     46  O          9.2810   12.3560   12.9760 O.2   142  TYR142     -0.2867
     47  CB         6.7230   14.2460   14.0590 C.3   142  TYR142      0.0534
     48  CG         6.4460   13.0110   14.8900 C.ar  142  TYR142     -0.0201
     49  CD1        7.4230   12.4770   15.7420 C.ar  142  TYR142     -0.0009
     50  CD2        5.2080   12.3670   14.8200 C.ar  142  TYR142     -0.0009
     51  CE1        7.1710   11.3310   16.4990 C.ar  142  TYR142      0.0417
     52  CE2        4.9470   11.2270   15.5760 C.ar  142  TYR142      0.0417
     53  CZ         5.9270   10.7150   16.4050 C.ar  142  TYR142      0.1957
     54  OH         5.6610    9.5880   17.1480 O.3   142  TYR142     -0.2866
     55  N         12.0870   13.3660   16.0330 N.3   144  ARG144     -0.1245
     56  CA        12.3850   13.2960   17.4700 C.3   144  ARG144      0.1563
     57  C         12.8580   14.6480   18.0120 C.2   144  ARG144      0.2260
     58  O         13.4550   15.4440   17.2800 O.2   144  ARG144     -0.2867
     59  CB        13.4440   12.2210   17.7560 C.3   144  ARG144      0.0307
     60  CG        14.8300   12.5090   17.1590 C.3   144  ARG144      0.0489
     61  CD        15.7450   11.3080   17.2890 C.3   144  ARG144      0.2205
     62  NE        15.1610   10.1390   16.6410 N.pl3 144  ARG144     -0.0865
     63  CZ        15.5810    8.8880   16.8010 C.cat 144  ARG144      0.5346
     64  NH1       14.9590    7.9070   16.1620 N.pl3 144  ARG144      0.1354
     65  NH2       16.6160    8.6120   17.5950 N.pl3 144  ARG144      0.1354
     66  N         18.7890    8.3720   21.3020 N.3   151  TYR151     -0.1227
     67  CA        17.7810    7.3800   21.6670 C.3   151  TYR151      0.1736
     68  C         16.5030    8.0970   22.0470 C.2   151  TYR151      0.2596
     69  O         16.5340    9.0600   22.8110 O.2   151  TYR151     -0.2718
     70  CB        18.2230    6.4950   22.8480 C.3   151  TYR151      0.0548
     71  CG        17.0700    5.6860   23.4130 C.ar  151  TYR151     -0.0200
     72  CD1       16.2710    6.1960   24.4410 C.ar  151  TYR151     -0.0009
     73  CD2       16.7420    4.4330   22.8830 C.ar  151  TYR151     -0.0009
     74  CE1       15.1860    5.4710   24.9410 C.ar  151  TYR151      0.0417
     75  CE2       15.6590    3.6980   23.3780 C.ar  151  TYR151      0.0417
     76  CZ        14.8900    4.2230   24.4050 C.ar  151  TYR151      0.1957
     77  OH        13.8160    3.5140   24.9010 O.3   151  TYR151     -0.2866
     78  N         15.3780    7.6130   21.5280 N.am  152  THR152     -0.1939
     79  CA        14.0660    8.0730   21.9850 C.3   152  THR152      0.2013
     80  C         13.1060    6.8910   22.1510 C.2   152  THR152      0.2484
     81  O         13.0820    5.9890   21.3130 O.2   152  THR152     -0.2729
     82  CB        13.4460    9.1610   21.0660 C.3   152  THR152      0.1807
     83  OG1       12.1160    9.4600   21.5100 O.3   152  THR152     -0.2208
     84  CG2       13.3870    8.6980   19.6100 C.3   152  THR152      0.0379
     85  N         12.3230    6.8840   23.2490 N.am  153  PRO153     -0.2715
     86  CA        11.3280    5.8270   23.4240 C.3   153  PRO153      0.1536
     87  C         10.1310    5.9730   22.4660 C.2   153  PRO153      0.2598
     88  O          9.3100    5.0640   22.3590 O.2   153  PRO153     -0.2715
     89  CB        10.8940    5.9940   24.8870 C.3   153  PRO153      0.0310
     90  CG        11.1270    7.4340   25.1860 C.3   153  PRO153      0.0237
     91  CD        12.3330    7.8370   24.3780 C.3   153  PRO153      0.0939
     92  N         10.0410    7.1080   21.7760 N.am  154  GLU154     -0.1964
     93  CA         8.9370    7.3690   20.8520 C.3   154  GLU154      0.1718
     94  C          9.4430    7.2450   19.4150 C.2   154  GLU154      0.2458
     95  O         10.3670    7.9540   19.0260 O.2   154  GLU154     -0.2730
     96  CB         8.3490    8.7690   21.1010 C.3   154  GLU154      0.0428
     97  CG         7.2180    9.1670   20.1600 C.3   154  GLU154      0.1163
     98  CD         6.8640   10.6520   20.2300 C.2   154  GLU154      0.3649
     99  OE1        7.7320   11.5010   19.9300 O.co2 154  GLU154     -0.2457
    100  OE2        5.6990   10.9670   20.5610 O.co2 154  GLU154     -0.2457
    101  N          8.8450    6.3400   18.6220 N.am  155  PRO155     -0.2727
    102  CA         9.2760    6.2210   17.2340 C.3   155  PRO155      0.1402
    103  C          8.9300    7.4760   16.4300 C.2   155  PRO155      0.2269
    104  O          7.8290    8.0290   16.5680 O.2   155  PRO155     -0.2865
    105  CB         8.5070    4.9980   16.7200 C.3   155  PRO155      0.0296
    106  CG         7.3520    4.8540   17.6080 C.3   155  PRO155      0.0237
    107  CD         7.7550    5.4060   18.9510 C.3   155  PRO155      0.0939
    108  N         13.4210    7.0610   12.6610 N.3   159  HIS159     -0.1241
    109  CA        13.2840    5.6350   12.8900 C.3   159  HIS159      0.1621
    110  C         12.6530    4.8880   11.7060 C.2   159  HIS159      0.2264
    111  O         13.1550    3.8420   11.3060 O.2   159  HIS159     -0.2867
    112  CB        12.5030    5.3530   14.1720 C.3   159  HIS159      0.0745
    113  CG        12.1190    3.9180   14.3240 C.ar  159  HIS159      0.0817
    114  ND1       13.0420    2.9260   14.5750 N.ar  159  HIS159     -0.2268
    115  CD2       10.9170    3.3020   14.2310 C.ar  159  HIS159      0.1154
    116  CE1       12.4220    1.7610   14.6420 C.ar  159  HIS159      0.1986
    117  NE2       11.1320    1.9630   14.4400 N.ar  159  HIS159     -0.2212
    118  N          3.4030  -10.1900   18.1710 N.3   196  ALA196     -0.1245
    119  CA         3.9580   -8.8500   18.3820 C.3   196  ALA196      0.1562
    120  C          5.3230   -8.8910   19.0660 C.2   196  ALA196      0.2260
    121  O          6.2150   -8.1090   18.7220 O.2   196  ALA196     -0.2867
    122  CB         2.9910   -7.9740   19.1720 C.3   196  ALA196      0.0290
    123  N          7.8680  -10.1820   16.5580 N.3   199  TYR199     -0.1227
    124  CA         8.1450   -9.0290   15.6970 C.3   199  TYR199      0.1736
    125  C          9.1260   -8.0680   16.3730 C.2   199  TYR199      0.2595
    126  O         10.0930   -7.6250   15.7550 O.2   199  TYR199     -0.2718
    127  CB         6.8440   -8.3060   15.3210 C.3   199  TYR199      0.0548
    128  CG         7.0380   -7.0050   14.5510 C.ar  199  TYR199     -0.0200
    129  CD1        6.9800   -6.9850   13.1570 C.ar  199  TYR199     -0.0009
    130  CD2        7.2610   -5.7970   15.2160 C.ar  199  TYR199     -0.0009
    131  CE1        7.1560   -5.7930   12.4390 C.ar  199  TYR199      0.0417
    132  CE2        7.4340   -4.5880   14.4990 C.ar  199  TYR199      0.0417
    133  CZ         7.3800   -4.6050   13.1160 C.ar  199  TYR199      0.1957
    134  OH         7.5550   -3.4260   12.4020 O.3   199  TYR199     -0.2866
    135  N          8.8690   -7.7630   17.6440 N.am  200  PHE200     -0.1976
    136  CA         9.6980   -6.8560   18.4280 C.3   200  PHE200      0.1639
    137  C         11.1600   -7.3090   18.5000 C.2   200  PHE200      0.2290
    138  O         12.0770   -6.4950   18.3720 O.2   200  PHE200     -0.2864
    139  CB         9.1080   -6.6910   19.8380 C.3   200  PHE200      0.0560
    140  CG         9.6970   -5.5490   20.6300 C.ar  200  PHE200     -0.0200
    141  CD1        9.2180   -4.2480   20.4680 C.ar  200  PHE200     -0.0042
    142  CD2       10.7150   -5.7750   21.5550 C.ar  200  PHE200     -0.0042
    143  CE1        9.7520   -3.1860   21.2100 C.ar  200  PHE200     -0.0003
    144  CE2       11.2500   -4.7130   22.3050 C.ar  200  PHE200     -0.0003
    145  CZ        10.7660   -3.4240   22.1250 C.ar  200  PHE200     -0.0000
    146  N         12.2010   -5.3860   14.9930 N.3   204  GLU204     -0.1231
    147  CA        12.5280   -4.1970   15.7620 C.3   204  GLU204      0.1699
    148  C         13.9210   -4.2310   16.4000 C.2   204  GLU204      0.2592
    149  O         14.6240   -3.2230   16.3680 O.2   204  GLU204     -0.2718
    150  CB        11.4700   -3.9080   16.8290 C.3   204  GLU204      0.0402
    151  CG        11.2780   -2.4310   17.0800 C.3   204  GLU204      0.1161
    152  CD        10.4180   -1.7880   16.0140 C.2   204  GLU204      0.3649
    153  OE1        9.3160   -2.3170   15.7680 O.co2 204  GLU204     -0.2457
    154  OE2       10.8460   -0.7710   15.4230 O.co2 204  GLU204     -0.2457
    155  N         14.3070   -5.3630   16.9940 N.am  205  PHE205     -0.1976
    156  CA        15.5600   -5.4300   17.7700 C.3   205  PHE205      0.1639
    157  C         16.4530   -6.6410   17.4690 C.2   205  PHE205      0.2290
    158  O         17.3630   -6.9740   18.2350 O.2   205  PHE205     -0.2864
    159  CB        15.2620   -5.2650   19.2720 C.3   205  PHE205      0.0560
    160  CG        14.8970   -3.8600   19.6400 C.ar  205  PHE205     -0.0200
    161  CD1       13.5640   -3.4650   19.7120 C.ar  205  PHE205     -0.0042
    162  CD2       15.8900   -2.9060   19.8370 C.ar  205  PHE205     -0.0042
    163  CE1       13.2260   -2.1420   20.0150 C.ar  205  PHE205     -0.0003
    164  CE2       15.5670   -1.5890   20.1400 C.ar  205  PHE205     -0.0003
    165  CZ        14.2310   -1.2010   20.2250 C.ar  205  PHE205     -0.0000
    166  N         14.7630   -0.6620   15.4200 N.3   220  GLY220     -0.1225
    167  CA        14.9300    0.1250   16.6390 C.3   220  GLY220      0.1811
    168  C         16.3850    0.3380   17.0140 C.2   220  GLY220      0.2280
    169  O         16.7240    1.3360   17.6540 O.2   220  GLY220     -0.2866
    170  N         18.1720    2.8280   14.0750 N.3   223  SER223     -0.1202
    171  CA        17.8400    4.2480   14.1890 C.3   223  SER223      0.2020
    172  C         18.3450    4.9160   15.4750 C.2   223  SER223      0.2619
    173  O         18.2230    6.1330   15.6250 O.2   223  SER223     -0.2717
    174  CB        16.3310    4.4560   14.0400 C.3   223  SER223      0.2103
    175  OG        15.6280    3.8520   15.1090 O.3   223  SER223     -0.2182
    176  N         18.9110    4.1310   16.3930 N.am  224  SER224     -0.1951
    177  CA        19.4360    4.6730   17.6570 C.3   224  SER224      0.1924
    178  C         20.9510    4.5790   17.7270 C.2   224  SER224      0.2314
    179  O         21.5010    3.4850   17.8800 O.2   224  SER224     -0.2863
    180  CB        18.8230    3.9520   18.8620 C.3   224  SER224      0.2116
    181  OG        19.4720    4.3350   20.0690 O.3   224  SER224     -0.2180
    182  N         21.9560    2.8640   21.1540 N.3   227  GLU227     -0.1245
    183  CA        21.6280    1.4410   21.2910 C.3   227  GLU227      0.1567
    184  C         22.2990    0.5580   20.2320 C.2   227  GLU227      0.2260
    185  O         22.6310   -0.5960   20.5100 O.2   227  GLU227     -0.2867
    186  CB        20.1200    1.1660   21.3900 C.3   227  GLU227      0.0388
    187  CG        19.8680   -0.1370   22.1880 C.3   227  GLU227      0.1160
    188  CD        18.4160   -0.4690   22.4730 C.2   227  GLU227      0.3649
    189  OE1       18.1750   -1.6060   22.9430 O.co2 227  GLU227     -0.2457
    190  OE2       17.5220    0.3770   22.2500 O.co2 227  GLU227     -0.2457
    191  N         10.0700   -0.7050   26.7120 N.3   253  ILE253     -0.1245
    192  CA         9.5640    0.4130   25.9050 C.3   253  ILE253      0.1561
    193  C         10.0280    1.8180   26.3200 C.2   253  ILE253      0.2260
    194  O          9.6000    2.8090   25.7190 O.2   253  ILE253     -0.2867
    195  CB         8.0100    0.3570   25.7790 C.3   253  ILE253      0.0252
    196  CG1        7.3390    0.2550   27.1550 C.3   253  ILE253      0.0019
    197  CG2        7.5860   -0.8290   24.9120 C.3   253  ILE253      0.0019
    198  CD1        6.6890    1.5360   27.6330 C.3   253  ILE253      0.0001
@<TRIPOS>BOND
     1    39    38    2
     2    38    37    1
     3    36    37    1
     4   111   110    2
     5   110   109    1
     6    37    40    1
     7    43    44    1
     8   134   133    1
     9   131   133   ar
    10   131   129   ar
    11   108   109    1
    12    44    45    1
    13    44    47    1
    14   109   112    1
    15    46    45    2
    16   133   132   ar
    17   129   128   ar
    18    41    40    1
    19    40    42    1
    20    34    33    1
    21   174   171    1
    22   174   175    1
    23    47    48    1
    24   170   171    1
    25   112   113    1
    26   171   172    1
    27   115   113   ar
    28   115   117   ar
    29   113   114   ar
    30   117   116   ar
    31   132   130   ar
    32   128   130   ar
    33   128   127    1
    34   114   116   ar
    35    50    48   ar
    36    50    52   ar
    37    48    49   ar
    38   146   147    1
    39    33    35    1
    40    33    32    1
    41   127   124    1
    42     4     3    2
    43   166   167    1
    44   154   152   ar
    45   172   173    2
    46   172   176   am
    47    52    53   ar
    48   124   125    1
    49   124   123    1
    50    49    51   ar
    51   126   125    2
    52    12    13    1
    53   147   148    1
    54   147   150    1
    55   153   152   ar
    56    32    29    1
    57     1     2    1
    58     3     2    1
    59   152   151    1
    60    55    56    1
    61    64    63    1
    62     2     5    1
    63    15    14    2
    64   149   148    2
    65   125   135   am
    66   176   177    1
    67   148   155   am
    68    53    51   ar
    69    53    54    1
    70   103   104    2
    71   103   102    1
    72   167   168    1
    73    62    63    2
    74    62    61    1
    75   105   102    1
    76   105   106    1
    77    63    65    1
    78   150   151    1
    79    13    14    1
    80   155   156    1
    81   168   169    2
    82     7     8    1
    83     7     6    1
    84    60    61    1
    85    60    59    1
    86    14    16   am
    87   102   101    1
    88    58    57    2
    89    29    28    1
    90    29    30    1
    91   157   156    1
    92   157   158    2
    93    56    59    1
    94    56    57    1
    95     8     9    2
    96   106   107    1
    97     5     6    1
    98   135   136    1
    99   177   178    1
   100   177   180    1
   101   178   179    2
   102   156   159    1
   103    28    18   am
   104    19    18    2
   105    30    31    2
   106    18    17    1
   107   118   119    1
   108   138   137    2
   109   119   120    1
   110   119   122    1
   111     9    11    1
   112     9    10    1
   113    16    17    1
   114   136   137    1
   115   136   139    1
   116   101   107    1
   117   101    94   am
   118   121   120    2
   119    17    20    1
   120   180   181    1
   121    95    94    2
   122   159   160    1
   123    94    93    1
   124    84    82    1
   125   160   161   ar
   126   160   162   ar
   127   161   163   ar
   128   162   164   ar
   129   139   140    1
   130    99    98   ar
   131   163   165   ar
   132   164   165   ar
   133    97    98    1
   134    97    96    1
   135    98   100   ar
   136   184   185    2
   137   184   183    1
   138    20    21    1
   139   141   140   ar
   140   141   143   ar
   141   140   142   ar
   142    93    96    1
   143    93    92    1
   144    21    22   ar
   145    21    23   ar
   146    82    83    1
   147    82    79    1
   148    22    24   ar
   149    23    25   ar
   150   182   183    1
   151   143   145   ar
   152   183   186    1
   153    66    67    1
   154    81    80    2
   155   186   187    1
   156    78    79    1
   157    78    68   am
   158    24    26   ar
   159   142   144   ar
   160    25    26   ar
   161    67    68    1
   162    67    70    1
   163    92    87   am
   164    26    27    1
   165    79    80    1
   166    68    69    2
   167   145   144   ar
   168    80    85   am
   169   187   188    1
   170   190   188   ar
   171    88    87    2
   172    87    86    1
   173   188   189   ar
   174    70    71    1
   175    73    75   ar
   176    73    71   ar
   177    85    86    1
   178    85    91    1
   179    75    76   ar
   180    71    72   ar
   181    86    89    1
   182    91    90    1
   183    76    77    1
   184    76    74   ar
   185    72    74   ar
   186    89    90    1
   187   197   195    1
   188   194   193    2
   189   195   192    1
   190   195   196    1
   191   192   193    1
   192   192   191    1
   193   196   198    1
