@<TRIPOS>MOLECULE
tmp/3hf7A00.pdb
 125 119 0 0 0
SMALL
GASTEIGER

@<TRIPOS>ATOM
      1  N         45.7270    8.6860   19.4010 N.3     9  VAL9       -0.1245
      2  CA        45.9050    9.8800   18.5710 C.3     9  VAL9        0.1561
      3  C         46.8880   10.7870   19.3250 C.2     9  VAL9        0.2260
      4  O         46.6780   11.0620   20.5130 O.2     9  VAL9       -0.2867
      5  CB        44.5600   10.6210   18.3660 C.3     9  VAL9        0.0252
      6  CG1       44.7630   11.9920   17.7140 C.3     9  VAL9        0.0019
      7  CG2       43.6060    9.7810   17.5370 C.3     9  VAL9        0.0019
      8  N         47.2630   16.2900   18.0230 N.3    13  GLU13      -0.1231
      9  CA        46.1560   16.0800   17.1110 C.3    13  GLU13       0.1699
     10  C         44.8320   15.9190   17.8400 C.2    13  GLU13       0.2592
     11  O         43.8200   15.5560   17.2350 O.2    13  GLU13      -0.2718
     12  CB        46.4000   14.8170   16.3180 C.3    13  GLU13       0.0402
     13  CG        47.7900   14.6770   15.8040 C.3    13  GLU13       0.1161
     14  CD        47.7760   14.2690   14.3640 C.2    13  GLU13       0.3649
     15  OE1       48.0020   13.0690   14.0670 O.co2  13  GLU13      -0.2457
     16  OE2       47.4890   15.1600   13.5360 O.co2  13  GLU13      -0.2457
     17  N         44.8420   16.1590   19.1440 N.am   14  ILE14      -0.1966
     18  CA        43.6280   16.0970   19.9300 C.3    14  ILE14       0.1727
     19  C         42.8090   17.3500   19.6560 C.2    14  ILE14       0.2616
     20  O         43.2950   18.4690   19.8490 O.2    14  ILE14      -0.2715
     21  CB        43.9420   15.9650   21.4320 C.3    14  ILE14       0.0290
     22  CG1       44.7120   14.6670   21.6850 C.3    14  ILE14       0.0022
     23  CG2       42.6760   15.9550   22.2350 C.3    14  ILE14       0.0023
     24  CD1       45.0010   14.3380   23.1420 C.3    14  ILE14       0.0001
     25  N         41.5780   17.1620   19.1820 N.am   15  VAL15      -0.1977
     26  CA        40.6200   18.2630   19.0310 C.3    15  VAL15       0.1596
     27  C         39.9270   18.5600   20.3640 C.2    15  VAL15       0.2287
     28  O         39.2970   17.6930   20.9830 O.2    15  VAL15      -0.2864
     29  CB        39.5480   17.9740   17.9590 C.3    15  VAL15       0.0276
     30  CG1       38.5930   19.1460   17.8460 C.3    15  VAL15       0.0022
     31  CG2       40.1960   17.6890   16.5990 C.3    15  VAL15       0.0022
     32  N         34.9480   18.0820   14.4690 N.3    34  PRO34      -0.2102
     33  CA        35.0360   16.9570   13.5390 C.3    34  PRO34       0.1504
     34  C         34.8240   15.5930   14.1970 C.2    34  PRO34       0.2576
     35  O         34.8870   14.5810   13.5100 O.2    34  PRO34      -0.2718
     36  CB        36.4550   17.0710   12.9840 C.3    34  PRO34       0.0282
     37  CG        37.2210   17.7390   14.0610 C.3    34  PRO34       0.0208
     38  CD        36.2700   18.7090   14.7030 C.3    34  PRO34       0.0893
     39  N         34.5440   15.5660   15.4970 N.am   35  HIS35      -0.1962
     40  CA        34.4070   14.3080   16.2480 C.3    35  HIS35       0.1787
     41  C         33.2520   14.3030   17.2450 C.2    35  HIS35       0.2621
     42  O         32.7220   15.3550   17.5950 O.2    35  HIS35      -0.2715
     43  CB        35.7020   14.0170   17.0100 C.3    35  HIS35       0.0785
     44  CG        36.8690   13.7700   16.1160 C.ar   35  HIS35       0.0821
     45  ND1       36.9990   12.6130   15.3760 N.ar   35  HIS35      -0.2267
     46  CD2       37.9480   14.5340   15.8230 C.ar   35  HIS35       0.1154
     47  CE1       38.1140   12.6730   14.6710 C.ar   35  HIS35       0.1986
     48  NE2       38.7060   13.8280   14.9220 N.ar   35  HIS35      -0.2212
     49  N         32.9010   13.1170   17.7360 N.am   36  GLY36      -0.1940
     50  CA        31.7830   12.9560   18.6680 C.3    36  GLY36       0.2014
     51  C         32.0250   13.4530   20.0840 C.2    36  GLY36       0.2639
     52  O         31.1010   13.9440   20.7440 O.2    36  GLY36      -0.2714
     53  N         33.2550   13.2940   20.5690 N.am   37  ARG37      -0.1963
     54  CA        33.6420   13.8460   21.8680 C.3    37  ARG37       0.1729
     55  C         34.8060   14.8210   21.6660 C.2    37  ARG37       0.2616
     56  O         35.5880   14.6730   20.7350 O.2    37  ARG37      -0.2715
     57  CB        34.0320   12.7420   22.8600 C.3    37  ARG37       0.0348
     58  CG        33.3110   11.4080   22.7030 C.3    37  ARG37       0.0492
     59  CD        32.0740   11.3200   23.5750 C.3    37  ARG37       0.2205
     60  NE        32.1920   10.4500   24.7620 N.pl3  37  ARG37      -0.0865
     61  CZ        31.5930    9.2610   24.8810 C.cat  37  ARG37       0.5346
     62  NH1       30.8670    8.8150   23.8640 N.pl3  37  ARG37       0.1354
     63  NH2       31.7190    8.5180   25.9960 N.pl3  37  ARG37       0.1354
     64  N         34.9190   15.8280   22.5220 N.am   38  ILE38      -0.1963
     65  CA        36.0420   16.7700   22.4360 C.3    38  ILE38       0.1727
     66  C         36.4210   17.2850   23.8000 C.2    38  ILE38       0.2616
     67  O         35.5710   17.3950   24.6800 O.2    38  ILE38      -0.2715
     68  CB        35.7490   17.9840   21.5500 C.3    38  ILE38       0.0290
     69  CG1       34.4040   18.6000   21.9250 C.3    38  ILE38       0.0022
     70  CG2       35.8420   17.6050   20.0750 C.3    38  ILE38       0.0023
     71  CD1       34.4840   20.0460   22.2020 C.3    38  ILE38       0.0001
     72  N         37.7030   17.6260   23.9540 N.am   39  VAL39      -0.1977
     73  CA        38.2430   18.0070   25.2510 C.3    39  VAL39       0.1596
     74  C         37.9420   19.4720   25.5250 C.2    39  VAL39       0.2287
     75  O         38.1340   20.3310   24.6630 O.2    39  VAL39      -0.2864
     76  CB        39.7760   17.7180   25.3680 C.3    39  VAL39       0.0276
     77  CG1       40.2690   17.9520   26.7940 C.3    39  VAL39       0.0022
     78  CG2       40.1070   16.2980   24.9370 C.3    39  VAL39       0.0022
     79  N         35.4500   15.9430   29.2130 N.3    51  MET51      -0.1245
     80  CA        35.2180   15.4210   27.8770 C.3    51  MET51       0.1570
     81  C         33.7490   15.6680   27.5510 C.2    51  MET51       0.2261
     82  O         32.8680   15.3050   28.3320 O.2    51  MET51      -0.2867
     83  CB        35.5770   13.9350   27.8240 C.3    51  MET51       0.0387
     84  CG        35.5530   13.3390   26.4510 C.3    51  MET51       0.0595
     85  SD        36.9650   13.7860   25.4200 S.3    51  MET51      -0.1393
     86  CE        38.3060   13.0430   26.3690 C.3    51  MET51       0.0692
     87  N         36.1940    6.5070   25.5770 N.3   102  VAL102     -0.1245
     88  CA        37.3000    7.3950   25.2320 C.3   102  VAL102      0.1561
     89  C         38.1590    7.6940   26.4610 C.2   102  VAL102      0.2260
     90  O         37.6610    7.8560   27.5780 O.2   102  VAL102     -0.2867
     91  CB        36.8050    8.7140   24.6090 C.3   102  VAL102      0.0252
     92  CG1       37.9590    9.6810   24.4160 C.3   102  VAL102      0.0019
     93  CG2       36.1650    8.4590   23.2670 C.3   102  VAL102      0.0019
     94  N         45.0880   10.4360   22.7180 N.3   115  LEU115     -0.1245
     95  CA        43.6970   10.0500   22.8830 C.3   115  LEU115      0.1561
     96  C         43.5420    8.6060   22.3880 C.2   115  LEU115      0.2260
     97  O         44.0780    8.2390   21.3400 O.2   115  LEU115     -0.2867
     98  CB        42.8350   11.0140   22.0730 C.3   115  LEU115      0.0270
     99  CG        41.3180   11.0000   21.9290 C.3   115  LEU115      0.0019
    100  CD1       40.7250    9.6150   21.9480 C.3   115  LEU115      0.0001
    101  CD2       40.6960   11.8690   23.0040 C.3   115  LEU115      0.0001
    102  N         40.5690    5.1550   22.0260 N.3   117  THR117     -0.1218
    103  CA        39.1660    4.7640   22.0690 C.3   117  THR117      0.1862
    104  C         39.0270    3.2580   21.9170 C.2   117  THR117      0.2287
    105  O         39.8690    2.6110   21.2850 O.2   117  THR117     -0.2866
    106  CB        38.3320    5.4060   20.9360 C.3   117  THR117      0.1770
    107  OG1       38.7450    4.8540   19.6700 O.3   117  THR117     -0.2211
    108  CG2       38.4740    6.9310   20.9160 C.3   117  THR117      0.0375
    109  N         36.8050    1.6820   20.0730 N.3   119  GLU119     -0.1231
    110  CA        36.7610    1.4530   18.6390 C.3   119  GLU119      0.1699
    111  C         38.2030    1.1870   18.1990 C.2   119  GLU119      0.2592
    112  O         38.4900    0.1470   17.5990 O.2   119  GLU119     -0.2718
    113  CB        36.1610    2.6390   17.8880 C.3   119  GLU119      0.0402
    114  CG        34.6770    2.4920   17.6200 C.3   119  GLU119      0.1161
    115  CD        34.1870    3.4450   16.5320 C.2   119  GLU119      0.3649
    116  OE1       34.9480    4.3580   16.1080 O.co2 119  GLU119     -0.2457
    117  OE2       33.0190    3.2890   16.1230 O.co2 119  GLU119     -0.2457
    118  N         39.1130    2.0890   18.5650 N.am  120  ASP120     -0.1974
    119  CA        40.5220    1.9780   18.1700 C.3   120  ASP120      0.1709
    120  C         41.2100    0.6970   18.6240 C.2   120  ASP120      0.2293
    121  O         41.9390    0.0760   17.8420 O.2   120  ASP120     -0.2864
    122  CB        41.3280    3.1670   18.6860 C.3   120  ASP120      0.1436
    123  CG        40.8170    4.4820   18.1600 C.2   120  ASP120      0.3671
    124  OD1       40.0930    4.4740   17.1250 O.co2 120  ASP120     -0.2456
    125  OD2       41.1270    5.5190   18.7980 O.co2 120  ASP120     -0.2456
@<TRIPOS>BOND
     1    36    33    1
     2    36    37    1
     3    35    34    2
     4    16    14   ar
     5    33    34    1
     6    33    32    1
     7    37    38    1
     8    15    14   ar
     9    34    39   am
    10    14    13    1
    11    32    38    1
    12    47    48   ar
    13    47    45   ar
    14    48    46   ar
    15    45    44   ar
    16    39    40    1
    17    13    12    1
    18    46    44   ar
    19   116   115   ar
    20    44    43    1
    21   117   115   ar
    22    40    43    1
    23    40    41    1
    24    12     9    1
    25   115   114    1
    26    31    29    1
    27     9    10    1
    28     9     8    1
    29   124   123   ar
    30    11    10    2
    31    41    42    2
    32    41    49   am
    33     7     5    1
    34   112   111    2
    35   114   113    1
    36     6     5    1
    37    49    50    1
    38    10    17   am
    39   121   120    2
    40    30    29    1
    41   113   110    1
    42    29    26    1
    43   123   122    1
    44   123   125   ar
    45   119   118    1
    46   119   120    1
    47   119   122    1
    48   111   118   am
    49   111   110    1
    50     5     2    1
    51     2     3    1
    52     2     1    1
    53   110   109    1
    54    50    51    1
    55    26    25    1
    56    26    27    1
    57    17    18    1
    58    25    19   am
    59     3     4    2
    60    19    20    2
    61    19    18    1
    62   107   106    1
    63    18    21    1
    64    70    68    1
    65    51    53   am
    66    51    52    2
    67    27    28    2
    68    53    54    1
    69    56    55    2
    70   108   106    1
    71   106   103    1
    72   105   104    2
    73    97    96    2
    74    21    22    1
    75    21    23    1
    76    68    69    1
    77    68    65    1
    78    55    54    1
    79    55    64   am
    80    22    24    1
    81    54    57    1
    82   104   103    1
    83    69    71    1
    84    99   100    1
    85    99    98    1
    86    99   101    1
    87   102   103    1
    88    98    95    1
    89    96    95    1
    90    65    64    1
    91    65    66    1
    92    58    57    1
    93    58    59    1
    94    94    95    1
    95    93    91    1
    96    59    60    1
    97    66    72   am
    98    66    67    2
    99    62    61    1
   100    72    73    1
   101    92    91    1
   102    91    88    1
   103    75    74    2
   104    60    61    2
   105    61    63    1
   106    78    76    1
   107    88    87    1
   108    88    89    1
   109    73    76    1
   110    73    74    1
   111    76    77    1
   112    85    86    1
   113    85    84    1
   114    84    83    1
   115    89    90    2
   116    81    80    1
   117    81    82    2
   118    83    80    1
   119    80    79    1
