@<TRIPOS>MOLECULE
tmp/3hf8A00.pdb
 200 197 0 0 0
SMALL
GASTEIGER

@<TRIPOS>ATOM
      1  N         -6.9700    6.0470   15.1090 N.3    18  ARG18      -0.1245
      2  CA        -7.1660    5.6800   16.5180 C.3    18  ARG18       0.1563
      3  C         -5.8670    5.7760   17.3240 C.2    18  ARG18       0.2260
      4  O         -5.1740    4.7790   17.5430 O.2    18  ARG18      -0.2867
      5  CB        -7.7870    4.2790   16.6460 C.3    18  ARG18       0.0307
      6  CG        -9.3150    4.2530   16.5920 C.3    18  ARG18       0.0489
      7  CD        -9.8520    4.3800   15.1710 C.3    18  ARG18       0.2205
      8  NE       -11.2350    4.8610   15.1480 N.pl3  18  ARG18      -0.0865
      9  CZ       -11.5880    6.1420   15.0410 C.cat  18  ARG18       0.5346
     10  NH1      -10.6650    7.0930   14.9380 N.pl3  18  ARG18       0.1354
     11  NH2      -12.8720    6.4720   15.0360 N.pl3  18  ARG18       0.1354
     12  N          1.0500    6.8880   18.0990 N.3   116  TYR116     -0.1227
     13  CA         1.0700    5.4440   18.3300 C.3   116  TYR116      0.1736
     14  C         -0.2730    4.8130   17.9780 C.2   116  TYR116      0.2595
     15  O         -1.3220    5.2910   18.4180 O.2   116  TYR116     -0.2718
     16  CB         1.3620    5.1440   19.8030 C.3   116  TYR116      0.0548
     17  CG         2.8140    5.1130   20.2330 C.ar  116  TYR116     -0.0200
     18  CD1        3.6630    4.0790   19.8350 C.ar  116  TYR116     -0.0009
     19  CD2        3.3250    6.0880   21.0950 C.ar  116  TYR116     -0.0009
     20  CE1        4.9990    4.0380   20.2530 C.ar  116  TYR116      0.0417
     21  CE2        4.6600    6.0540   21.5240 C.ar  116  TYR116      0.0417
     22  CZ         5.4860    5.0230   21.1020 C.ar  116  TYR116      0.1957
     23  OH         6.8080    4.9830   21.5230 O.3   116  TYR116     -0.2866
     24  N         -0.2380    3.7420   17.1870 N.am  117  LEU117     -0.1966
     25  CA        -1.4120    2.8890   16.9690 C.3   117  LEU117      0.1728
     26  C         -1.3200    1.6750   17.8730 C.2   117  LEU117      0.2617
     27  O         -0.2280    1.3070   18.3040 O.2   117  LEU117     -0.2715
     28  CB        -1.4690    2.4020   15.5180 C.3   117  LEU117      0.0311
     29  CG        -1.8890    3.3600   14.4140 C.3   117  LEU117      0.0022
     30  CD1       -1.5800    2.7160   13.0770 C.3   117  LEU117      0.0001
     31  CD2       -3.3640    3.6930   14.5240 C.3   117  LEU117      0.0001
     32  N         -2.4590    1.0440   18.1480 N.am  118  SER118     -0.1936
     33  CA        -2.4630   -0.2290   18.8560 C.3   118  SER118      0.2040
     34  C         -1.6790   -1.2400   18.0240 C.2   118  SER118      0.2485
     35  O         -1.6850   -1.1610   16.7940 O.2   118  SER118     -0.2729
     36  CB        -3.8910   -0.7400   19.0630 C.3   118  SER118      0.2129
     37  OG        -4.4920   -1.0310   17.8140 O.3   118  SER118     -0.2179
     38  N         -0.9870   -2.1800   18.6900 N.am  119  PRO119     -0.2726
     39  CA        -0.2600   -3.2210   17.9790 C.3   119  PRO119      0.1402
     40  C         -1.1290   -3.9200   16.9420 C.2   119  PRO119      0.2269
     41  O         -0.6520   -4.2080   15.8420 O.2   119  PRO119     -0.2865
     42  CB         0.1260   -4.1890   19.0970 C.3   119  PRO119      0.0296
     43  CG         0.2790   -3.3090   20.2820 C.3   119  PRO119      0.0237
     44  CD        -0.8300   -2.3110   20.1500 C.3   119  PRO119      0.0939
     45  N         -1.4940   -1.4290   13.9810 N.3   122  PHE122     -0.1241
     46  CA        -0.2040   -1.3140   13.3070 C.3   122  PHE122      0.1605
     47  C          0.1350   -2.5560   12.4740 C.2   122  PHE122      0.2264
     48  O          0.4910   -2.4530   11.2950 O.2   122  PHE122     -0.2867
     49  CB         0.9360   -1.0140   14.2870 C.3   122  PHE122      0.0534
     50  CG         2.2180   -0.6500   13.5910 C.ar  122  PHE122     -0.0203
     51  CD1        2.4320    0.6480   13.1430 C.ar  122  PHE122     -0.0042
     52  CD2        3.1880   -1.6120   13.3400 C.ar  122  PHE122     -0.0042
     53  CE1        3.6060    0.9880   12.4730 C.ar  122  PHE122     -0.0003
     54  CE2        4.3660   -1.2830   12.6670 C.ar  122  PHE122     -0.0003
     55  CZ         4.5730    0.0200   12.2340 C.ar  122  PHE122     -0.0000
     56  N         12.1290   14.4610   15.7410 N.3   138  ARG138     -0.1245
     57  CA        12.7690   14.5140   17.0650 C.3   138  ARG138      0.1563
     58  C         12.8780   15.9230   17.6160 C.2   138  ARG138      0.2260
     59  O         13.2960   16.8350   16.8960 O.2   138  ARG138     -0.2867
     60  CB        14.2200   14.0510   16.9330 C.3   138  ARG138      0.0307
     61  CG        14.5000   12.6500   17.3120 C.3   138  ARG138      0.0489
     62  CD        15.5930   12.1440   16.3970 C.3   138  ARG138      0.2205
     63  NE        16.4180   11.1380   17.0410 N.pl3 138  ARG138     -0.0865
     64  CZ        16.2640    9.8340   16.8920 C.cat 138  ARG138      0.5346
     65  NH1       15.3120    9.3420   16.0950 N.pl3 138  ARG138      0.1354
     66  NH2       17.0800    9.0230   17.5390 N.pl3 138  ARG138      0.1354
     67  N         18.9900    9.8840   20.9120 N.3   145  TYR145     -0.1227
     68  CA        17.9470    8.9490   21.3240 C.3   145  TYR145      0.1736
     69  C         16.6290    9.6800   21.5780 C.2   145  TYR145      0.2596
     70  O         16.6110   10.8060   22.0830 O.2   145  TYR145     -0.2718
     71  CB        18.3670    8.1520   22.5730 C.3   145  TYR145      0.0548
     72  CG        17.2590    7.2810   23.1420 C.ar  145  TYR145     -0.0200
     73  CD1       16.4080    7.7620   24.1390 C.ar  145  TYR145     -0.0009
     74  CD2       17.0500    5.9850   22.6690 C.ar  145  TYR145     -0.0009
     75  CE1       15.3790    6.9700   24.6520 C.ar  145  TYR145      0.0417
     76  CE2       16.0240    5.1830   23.1760 C.ar  145  TYR145      0.0417
     77  CZ        15.1950    5.6820   24.1670 C.ar  145  TYR145      0.1957
     78  OH        14.1820    4.8960   24.6710 O.3   145  TYR145     -0.2866
     79  N         15.5260    9.0300   21.2240 N.am  146  THR146     -0.1939
     80  CA        14.1960    9.5460   21.5240 C.3   146  THR146      0.2013
     81  C         13.2700    8.3790   21.8920 C.2   146  THR146      0.2484
     82  O         13.2750    7.3450   21.2130 O.2   146  THR146     -0.2729
     83  CB        13.6290   10.4070   20.3580 C.3   146  THR146      0.1807
     84  OG1       12.3540   10.9450   20.7240 O.3   146  THR146     -0.2208
     85  CG2       13.4870    9.5830   19.0640 C.3   146  THR146      0.0379
     86  N         12.4920    8.5260   22.9860 N.am  147  PRO147     -0.2715
     87  CA        11.6240    7.4290   23.4250 C.3   147  PRO147      0.1536
     88  C         10.4350    7.1740   22.5000 C.2   147  PRO147      0.2598
     89  O          9.8210    6.1100   22.5720 O.2   147  PRO147     -0.2715
     90  CB        11.1400    7.8920   24.8050 C.3   147  PRO147      0.0310
     91  CG        11.2080    9.3890   24.7380 C.3   147  PRO147      0.0237
     92  CD        12.3950    9.7010   23.8770 C.3   147  PRO147      0.0939
     93  N         10.1150    8.1350   21.6390 N.am  148  GLU148     -0.1964
     94  CA         9.0250    7.9570   20.6840 C.3   148  GLU148      0.1718
     95  C          9.5390    7.9510   19.2420 C.2   148  GLU148      0.2458
     96  O         10.5390    8.6090   18.9380 O.2   148  GLU148     -0.2730
     97  CB         7.9350    9.0220   20.8700 C.3   148  GLU148      0.0428
     98  CG         8.4150   10.4550   20.8040 C.3   148  GLU148      0.1163
     99  CD         7.2940   11.4390   20.5220 C.2   148  GLU148      0.3649
    100  OE1        7.6070   12.5680   20.0920 O.co2 148  GLU148     -0.2457
    101  OE2        6.1050   11.0930   20.7230 O.co2 148  GLU148     -0.2457
    102  N          8.8590    7.2050   18.3510 N.am  149  PRO149     -0.2727
    103  CA         9.2920    7.1850   16.9520 C.3   149  PRO149      0.1402
    104  C          9.0110    8.5150   16.2620 C.2   149  PRO149      0.2269
    105  O          7.9350    9.0960   16.4390 O.2   149  PRO149     -0.2865
    106  CB         8.4510    6.0600   16.3260 C.3   149  PRO149      0.0296
    107  CG         7.7750    5.3640   17.4660 C.3   149  PRO149      0.0237
    108  CD         7.6840    6.3480   18.5750 C.3   149  PRO149      0.0939
    109  N         13.4890    8.1140   12.4920 N.3   153  HIS153     -0.1241
    110  CA        13.3730    6.6780   12.7330 C.3   153  HIS153      0.1621
    111  C         12.7340    5.9090   11.5770 C.2   153  HIS153      0.2264
    112  O         13.2370    4.8510   11.1860 O.2   153  HIS153     -0.2867
    113  CB        12.6070    6.4040   14.0300 C.3   153  HIS153      0.0745
    114  CG        12.2040    4.9730   14.1920 C.ar  153  HIS153      0.0817
    115  ND1       13.1150    3.9620   14.4220 N.ar  153  HIS153     -0.2268
    116  CD2       10.9900    4.3800   14.1200 C.ar  153  HIS153      0.1154
    117  CE1       12.4740    2.8090   14.4970 C.ar  153  HIS153      0.1986
    118  NE2       11.1850    3.0370   14.3250 N.ar  153  HIS153     -0.2212
    119  N          7.7750   -8.9730   16.5390 N.3   193  TYR193     -0.1227
    120  CA         8.0220   -7.8230   15.6700 C.3   193  TYR193      0.1736
    121  C          8.9960   -6.8210   16.3140 C.2   193  TYR193      0.2595
    122  O          9.9450   -6.3600   15.6710 O.2   193  TYR193     -0.2718
    123  CB         6.6940   -7.1330   15.3180 C.3   193  TYR193      0.0548
    124  CG         6.8850   -5.7730   14.6860 C.ar  193  TYR193     -0.0200
    125  CD1        6.9770   -5.6370   13.3040 C.ar  193  TYR193     -0.0009
    126  CD2        6.9990   -4.6220   15.4770 C.ar  193  TYR193     -0.0009
    127  CE1        7.1620   -4.3840   12.7170 C.ar  193  TYR193      0.0417
    128  CE2        7.1980   -3.3670   14.9000 C.ar  193  TYR193      0.0417
    129  CZ         7.2850   -3.2600   13.5270 C.ar  193  TYR193      0.1957
    130  OH         7.4760   -2.0220   12.9510 O.3   193  TYR193     -0.2866
    131  N          8.7470   -6.4960   17.5810 N.am  194  PHE194     -0.1976
    132  CA         9.5470   -5.5310   18.3300 C.3   194  PHE194      0.1639
    133  C         11.0100   -5.9710   18.3960 C.2   194  PHE194      0.2290
    134  O         11.9200   -5.1840   18.1450 O.2   194  PHE194     -0.2864
    135  CB         8.9710   -5.3710   19.7430 C.3   194  PHE194      0.0560
    136  CG         9.5670   -4.2350   20.5290 C.ar  194  PHE194     -0.0200
    137  CD1        9.0100   -2.9670   20.4680 C.ar  194  PHE194     -0.0042
    138  CD2       10.6730   -4.4440   21.3570 C.ar  194  PHE194     -0.0042
    139  CE1        9.5470   -1.9100   21.2060 C.ar  194  PHE194     -0.0003
    140  CE2       11.2180   -3.3910   22.1000 C.ar  194  PHE194     -0.0003
    141  CZ        10.6590   -2.1250   22.0210 C.ar  194  PHE194     -0.0000
    142  N         12.1080   -3.9450   14.9930 N.3   198  GLU198     -0.1231
    143  CA        12.5080   -2.7400   15.7240 C.3   198  GLU198      0.1699
    144  C         13.9050   -2.8040   16.3710 C.2   198  GLU198      0.2592
    145  O         14.6460   -1.8210   16.3190 O.2   198  GLU198     -0.2718
    146  CB        11.4560   -2.3120   16.7610 C.3   198  GLU198      0.0402
    147  CG        10.0600   -1.9670   16.1890 C.3   198  GLU198      0.1161
    148  CD         9.9670   -0.6290   15.4390 C.2   198  GLU198      0.3649
    149  OE1        8.8850   -0.3570   14.8680 O.co2 198  GLU198     -0.2457
    150  OE2       10.9350    0.1670   15.4030 O.co2 198  GLU198     -0.2457
    151  N         14.2550   -3.9380   16.9830 N.am  199  PHE199     -0.1976
    152  CA        15.4830   -4.0110   17.8000 C.3   199  PHE199      0.1639
    153  C         16.3430   -5.2590   17.5570 C.2   199  PHE199      0.2290
    154  O         17.1830   -5.6290   18.3820 O.2   199  PHE199     -0.2864
    155  CB        15.1460   -3.8130   19.2920 C.3   199  PHE199      0.0560
    156  CG        14.7140   -2.4170   19.6110 C.ar  199  PHE199     -0.0200
    157  CD1       13.3600   -2.0800   19.6300 C.ar  199  PHE199     -0.0042
    158  CD2       15.6580   -1.4170   19.8290 C.ar  199  PHE199     -0.0042
    159  CE1       12.9520   -0.7740   19.8880 C.ar  199  PHE199     -0.0003
    160  CE2       15.2630   -0.1090   20.0890 C.ar  199  PHE199     -0.0003
    161  CZ        13.9070    0.2150   20.1160 C.ar  199  PHE199     -0.0000
    162  N         14.8110    0.6010   15.3190 N.3   214  GLY214     -0.1225
    163  CA        14.9470    1.4060   16.5400 C.3   214  GLY214      0.1811
    164  C         16.4000    1.5900   16.9390 C.2   214  GLY214      0.2280
    165  O         16.7560    2.5860   17.5700 O.2   214  GLY214     -0.2866
    166  N         18.2190    4.0320   13.9820 N.3   217  SER217     -0.1202
    167  CA        17.9000    5.4620   14.0310 C.3   217  SER217      0.2020
    168  C         18.4040    6.1780   15.2980 C.2   217  SER217      0.2619
    169  O         18.2060    7.3860   15.4490 O.2   217  SER217     -0.2717
    170  CB        16.3890    5.6650   13.8880 C.3   217  SER217      0.2103
    171  OG        15.6920    5.0320   14.9520 O.3   217  SER217     -0.2182
    172  N         19.0340    5.4300   16.2010 N.am  218  SER218     -0.1951
    173  CA        19.5690    5.9820   17.4480 C.3   218  SER218      0.1924
    174  C         21.0790    5.8700   17.4810 C.2   218  SER218      0.2314
    175  O         21.6240    4.7720   17.6480 O.2   218  SER218     -0.2863
    176  CB        18.9820    5.2610   18.6660 C.3   218  SER218      0.2116
    177  OG        19.6390    5.6530   19.8650 O.3   218  SER218     -0.2180
    178  N         22.0650    4.0890   20.9600 N.3   221  GLU221     -0.1245
    179  CA        21.7530    2.6630   21.1230 C.3   221  GLU221      0.1567
    180  C         22.4110    1.7560   20.0770 C.2   221  GLU221      0.2260
    181  O         22.7310    0.6020   20.3750 O.2   221  GLU221     -0.2867
    182  CB        20.2420    2.3900   21.2010 C.3   221  GLU221      0.0388
    183  CG        19.9370    1.0630   21.8930 C.3   221  GLU221      0.1160
    184  CD        18.4770    0.8350   22.2580 C.2   221  GLU221      0.3649
    185  OE1       18.1780   -0.2800   22.7270 O.co2 221  GLU221     -0.2457
    186  OE2       17.6330    1.7410   22.0920 O.co2 221  GLU221     -0.2457
    187  N          8.9090   -5.4910   26.3390 N.3   245  CYS245     -0.1235
    188  CA         9.3310   -4.4240   25.4340 C.3   245  CYS245      0.1677
    189  C          9.5070   -3.1350   26.2240 C.2   245  CYS245      0.2270
    190  O          8.5590   -2.6400   26.8340 O.2   245  CYS245     -0.2867
    191  CB         8.3070   -4.2170   24.3180 C.3   245  CYS245      0.0956
    192  SG         7.9600   -5.6760   23.3160 S.3   245  CYS245     -0.0801
    193  N         10.3270    0.8980   26.7960 N.3   247  ILE247     -0.1245
    194  CA        10.2430    2.2460   26.2570 C.3   247  ILE247      0.1561
    195  C         10.9010    3.2080   27.2460 C.2   247  ILE247      0.2260
    196  O         10.9490    2.9230   28.4470 O.2   247  ILE247     -0.2867
    197  CB         8.7730    2.6640   25.9850 C.3   247  ILE247      0.0252
    198  CG1        7.8060    1.9940   26.9730 C.3   247  ILE247      0.0019
    199  CG2        8.3650    2.2770   24.5770 C.3   247  ILE247      0.0019
    200  CD1        7.6020    2.7400   28.2760 C.3   247  ILE247      0.0001
@<TRIPOS>BOND
     1   112   111    2
     2    48    47    2
     3   111   110    1
     4    55    53   ar
     5    55    54   ar
     6    53    51   ar
     7    47    46    1
     8   109   110    1
     9    54    52   ar
    10   127   125   ar
    11   127   129   ar
    12   110   113    1
    13   130   129    1
    14    30    29    1
    15    51    50   ar
    16   125   124   ar
    17    46    45    1
    18    46    49    1
    19    52    50   ar
    20   129   128   ar
    21    50    49    1
    22   170   167    1
    23   170   171    1
    24   166   167    1
    25   113   114    1
    26   167   168    1
    27   116   114   ar
    28   116   118   ar
    29   114   115   ar
    30   118   117   ar
    31    29    31    1
    32    29    28    1
    33   115   117   ar
    34   124   123    1
    35   124   126   ar
    36   149   148   ar
    37   128   126   ar
    38    10     9    1
    39   142   143    1
    40    11     9    1
    41     9     8    2
    42     1     2    1
    43     8     7    1
    44     7     6    1
    45   168   169    2
    46   168   172   am
    47   123   120    1
    48   162   163    1
    49   150   148   ar
    50   148   147    1
    51    28    25    1
    52   120   121    1
    53   120   119    1
    54   122   121    2
    55   143   144    1
    56   143   146    1
    57    56    57    1
    58    41    40    2
    59    65    64    1
    60   147   146    1
    61   172   173    1
    62   104   105    2
    63   104   103    1
    64   121   131   am
    65   145   144    2
    66   106   103    1
    67   106   107    1
    68   144   151   am
    69    62    63    1
    70    62    61    1
    71     2     5    1
    72     2     3    1
    73   163   164    1
    74     6     5    1
    75    35    34    2
    76    64    63    2
    77    64    66    1
    78    59    58    2
    79    60    57    1
    80    60    61    1
    81   164   165    2
    82    40    39    1
    83   103   102    1
    84    25    24    1
    85    25    26    1
    86   151   152    1
    87    57    58    1
    88    24    14   am
    89     3     4    2
    90   173   174    1
    91   173   176    1
    92   107   108    1
    93   174   175    2
    94   153   152    1
    95   153   154    2
    96   131   132    1
    97   152   155    1
    98    37    36    1
    99    26    32   am
   100    26    27    2
   101    14    13    1
   102    14    15    2
   103    39    38    1
   104    39    42    1
   105    34    38   am
   106    34    33    1
   107    12    13    1
   108   134   133    2
   109    32    33    1
   110   132   133    1
   111   132   135    1
   112    13    16    1
   113   102   108    1
   114   102    95   am
   115   176   177    1
   116    38    44    1
   117    33    36    1
   118    96    95    2
   119    85    83    1
   120    42    43    1
   121    95    94    1
   122   155   156    1
   123   156   157   ar
   124   156   158   ar
   125   157   159   ar
   126   135   136    1
   127    16    17    1
   128   158   160   ar
   129    18    17   ar
   130    18    20   ar
   131   159   161   ar
   132   180   181    2
   133   180   179    1
   134   160   161   ar
   135   100    99   ar
   136    44    43    1
   137    17    19   ar
   138    20    22   ar
   139    83    84    1
   140    83    80    1
   141   137   136   ar
   142   137   139   ar
   143    99   101   ar
   144    99    98    1
   145   136   138   ar
   146    94    97    1
   147    94    93    1
   148    98    97    1
   149    67    68    1
   150   178   179    1
   151    19    21   ar
   152    22    23    1
   153    22    21   ar
   154   179   182    1
   155   182   183    1
   156   139   141   ar
   157    82    81    2
   158    79    80    1
   159    79    69   am
   160    68    69    1
   161    68    71    1
   162   138   140   ar
   163    80    81    1
   164    69    70    2
   165    93    88   am
   166    81    86   am
   167   183   184    1
   168   141   140   ar
   169   186   184   ar
   170   184   185   ar
   171    88    89    2
   172    88    87    1
   173    71    72    1
   174    74    72   ar
   175    74    76   ar
   176    86    87    1
   177    86    92    1
   178    72    73   ar
   179    76    77   ar
   180   192   191    1
   181    87    90    1
   182    92    91    1
   183    73    75   ar
   184    77    75   ar
   185    77    78    1
   186   191   188    1
   187   199   197    1
   188    91    90    1
   189   188   189    1
   190   188   187    1
   191   197   194    1
   192   197   198    1
   193   189   190    2
   194   194   193    1
   195   194   195    1
   196   198   200    1
   197   195   196    2
