@<TRIPOS>MOLECULE
tmp/3hfbA00.pdb
 199 195 0 0 0
SMALL
GASTEIGER

@<TRIPOS>ATOM
      1  N          0.5340    5.9390   18.4230 N.3   116  TYR116     -0.1227
      2  CA         0.6840    4.4900   18.5940 C.3   116  TYR116      0.1736
      3  C         -0.6030    3.7720   18.2370 C.2   116  TYR116      0.2595
      4  O         -1.6730    4.0870   18.7760 O.2   116  TYR116     -0.2718
      5  CB         1.0270    4.1310   20.0450 C.3   116  TYR116      0.0548
      6  CG         2.4910    4.1790   20.4280 C.ar  116  TYR116     -0.0200
      7  CD1        3.3680    3.1590   20.0480 C.ar  116  TYR116     -0.0009
      8  CD2        2.9900    5.2200   21.2200 C.ar  116  TYR116     -0.0009
      9  CE1        4.7180    3.1870   20.4220 C.ar  116  TYR116      0.0417
     10  CE2        4.3440    5.2630   21.5930 C.ar  116  TYR116      0.0417
     11  CZ         5.1940    4.2390   21.1940 C.ar  116  TYR116      0.1957
     12  OH         6.5210    4.2750   21.5650 O.3   116  TYR116     -0.2866
     13  N         -0.4920    2.8080   17.3300 N.am  117  LEU117     -0.1966
     14  CA        -1.5740    1.8730   17.0540 C.3   117  LEU117      0.1728
     15  C         -1.4440    0.7030   18.0100 C.2   117  LEU117      0.2617
     16  O         -0.3750    0.4940   18.5790 O.2   117  LEU117     -0.2715
     17  CB        -1.4690    1.3670   15.6130 C.3   117  LEU117      0.0311
     18  CG        -2.0350    2.2830   14.5390 C.3   117  LEU117      0.0022
     19  CD1       -1.7270    1.7000   13.1960 C.3   117  LEU117      0.0001
     20  CD2       -3.5260    2.4120   14.7210 C.3   117  LEU117      0.0001
     21  N         -2.5210   -0.0580   18.1920 N.am  118  SER118     -0.1936
     22  CA        -2.4310   -1.3020   18.9460 C.3   118  SER118      0.2040
     23  C         -1.6240   -2.2790   18.0860 C.2   118  SER118      0.2485
     24  O         -1.6310   -2.1490   16.8550 O.2   118  SER118     -0.2729
     25  CB        -3.8170   -1.8720   19.2390 C.3   118  SER118      0.2129
     26  OG        -4.4070   -2.3510   18.0490 O.3   118  SER118     -0.2179
     27  N         -0.9010   -3.2280   18.7200 N.am  119  PRO119     -0.2726
     28  CA        -0.1550   -4.2260   17.9470 C.3   119  PRO119      0.1402
     29  C         -1.0370   -4.9340   16.9200 C.2   119  PRO119      0.2269
     30  O         -0.5640   -5.2340   15.8220 O.2   119  PRO119     -0.2865
     31  CB         0.3240   -5.2260   19.0030 C.3   119  PRO119      0.0296
     32  CG         0.2750   -4.5020   20.2760 C.3   119  PRO119      0.0237
     33  CD        -0.7320   -3.4060   20.1730 C.3   119  PRO119      0.0939
     34  N         12.2170   13.4350   15.8710 N.3   138  ARG138     -0.1245
     35  CA        12.4960   13.4100   17.3170 C.3   138  ARG138      0.1563
     36  C         12.9300   14.7950   17.8190 C.2   138  ARG138      0.2260
     37  O         13.5490   15.5670   17.0690 O.2   138  ARG138     -0.2867
     38  CB        13.5780   12.3700   17.6420 C.3   138  ARG138      0.0307
     39  CG        14.9760   12.7060   17.1070 C.3   138  ARG138      0.0489
     40  CD        15.8860   11.5250   17.2410 C.3   138  ARG138      0.2205
     41  NE        15.3110   10.3770   16.5420 N.pl3 138  ARG138     -0.0865
     42  CZ        15.7450    9.1280   16.6560 C.cat 138  ARG138      0.5346
     43  NH1       15.1470    8.1660   15.9750 N.pl3 138  ARG138      0.1354
     44  NH2       16.7590    8.8410   17.4640 N.pl3 138  ARG138      0.1354
     45  N         19.0390    8.6870   21.0450 N.3   145  TYR145     -0.1227
     46  CA        18.0350    7.7340   21.4930 C.3   145  TYR145      0.1736
     47  C         16.7420    8.4730   21.8030 C.2   145  TYR145      0.2596
     48  O         16.7680    9.5670   22.3460 O.2   145  TYR145     -0.2718
     49  CB        18.5130    6.9250   22.7150 C.3   145  TYR145      0.0548
     50  CG        17.4120    6.0660   23.3050 C.ar  145  TYR145     -0.0200
     51  CD1       16.5530    6.5780   24.2780 C.ar  145  TYR145     -0.0009
     52  CD2       17.1950    4.7610   22.8560 C.ar  145  TYR145     -0.0009
     53  CE1       15.5150    5.8140   24.8000 C.ar  145  TYR145      0.0417
     54  CE2       16.1560    3.9880   23.3690 C.ar  145  TYR145      0.0417
     55  CZ        15.3210    4.5230   24.3420 C.ar  145  TYR145      0.1957
     56  OH        14.2890    3.7680   24.8640 O.3   145  TYR145     -0.2866
     57  N         15.6140    7.8920   21.4250 N.am  146  THR146     -0.1939
     58  CA        14.3170    8.4340   21.8230 C.3   146  THR146      0.2013
     59  C         13.3820    7.2780   22.1900 C.2   146  THR146      0.2484
     60  O         13.3660    6.2520   21.5030 O.2   146  THR146     -0.2729
     61  CB        13.7020    9.3700   20.7500 C.3   146  THR146      0.1807
     62  OG1       12.3480    9.6750   21.0990 O.3   146  THR146     -0.2208
     63  CG2       13.7210    8.7220   19.3580 C.3   146  THR146      0.0379
     64  N         12.6090    7.4280   23.2800 N.am  147  PRO147     -0.2715
     65  CA        11.7220    6.3290   23.6530 C.3   147  PRO147      0.1536
     66  C         10.4720    6.2290   22.7670 C.2   147  PRO147      0.2598
     67  O          9.7210    5.2750   22.8980 O.2   147  PRO147     -0.2715
     68  CB        11.3420    6.6620   25.0960 C.3   147  PRO147      0.0310
     69  CG        11.3880    8.1480   25.1490 C.3   147  PRO147      0.0237
     70  CD        12.4930    8.5720   24.2090 C.3   147  PRO147      0.0939
     71  N         10.2500    7.1950   21.8780 N.am  148  GLU148     -0.1964
     72  CA         9.1140    7.1150   20.9470 C.3   148  GLU148      0.1718
     73  C          9.6000    7.1050   19.4900 C.2   148  GLU148      0.2458
     74  O         10.6000    7.7650   19.1630 O.2   148  GLU148     -0.2730
     75  CB         8.0610    8.2270   21.2020 C.3   148  GLU148      0.0428
     76  CG         8.5570    9.6400   20.9680 C.3   148  GLU148      0.1163
     77  CD         7.4630   10.6550   20.6190 C.2   148  GLU148      0.3649
     78  OE1        7.8280   11.7430   20.1180 O.co2 148  GLU148     -0.2457
     79  OE2        6.2610   10.3910   20.8370 O.co2 148  GLU148     -0.2457
     80  N          8.8960    6.3630   18.6050 N.am  149  PRO149     -0.2727
     81  CA         9.3470    6.3000   17.2160 C.3   149  PRO149      0.1402
     82  C          9.1230    7.6420   16.5510 C.2   149  PRO149      0.2269
     83  O          8.1530    8.3350   16.8730 O.2   149  PRO149     -0.2865
     84  CB         8.4090    5.2620   16.5770 C.3   149  PRO149      0.0296
     85  CG         7.7250    4.5860   17.7010 C.3   149  PRO149      0.0237
     86  CD         7.6630    5.5880   18.8060 C.3   149  PRO149      0.0939
     87  N         13.3940    7.0190   12.6680 N.3   153  HIS153     -0.1241
     88  CA        13.2520    5.5930   12.9170 C.3   153  HIS153      0.1621
     89  C         12.6410    4.8490   11.7210 C.2   153  HIS153      0.2264
     90  O         13.1410    3.7950   11.3320 O.2   153  HIS153     -0.2867
     91  CB        12.4410    5.3270   14.1820 C.3   153  HIS153      0.0745
     92  CG        12.0600    3.8920   14.3630 C.ar  153  HIS153      0.0817
     93  ND1       12.9890    2.8930   14.5760 N.ar  153  HIS153     -0.2268
     94  CD2       10.8470    3.2860   14.3640 C.ar  153  HIS153      0.1154
     95  CE1       12.3630    1.7340   14.6980 C.ar  153  HIS153      0.1986
     96  NE2       11.0620    1.9480   14.5860 N.ar  153  HIS153     -0.2212
     97  N         -0.2910  -11.0030   21.0260 N.3   187  GLN187     -0.1245
     98  CA         0.8130  -10.5840   21.8980 C.3   187  GLN187      0.1566
     99  C          2.1090  -11.3390   21.5860 C.2   187  GLN187      0.2260
    100  O          3.1730  -10.7510   21.6090 O.2   187  GLN187     -0.2867
    101  CB         0.4480  -10.6950   23.3910 C.3   187  GLN187      0.0367
    102  CG         1.3290   -9.8400   24.3250 C.3   187  GLN187      0.0905
    103  CD         0.8940   -8.3660   24.4190 C.2   187  GLN187      0.2608
    104  OE1        1.0510   -7.5880   23.4700 O.2   187  GLN187     -0.2717
    105  NE2        0.3550   -7.9810   25.5790 N.am  187  GLN187     -0.0878
    106  N          3.5160  -10.1530   18.1530 N.3   190  ALA190     -0.1231
    107  CA         4.0750   -8.8080   18.3200 C.3   190  ALA190      0.1694
    108  C          5.3930   -8.8320   19.0980 C.2   190  ALA190      0.2592
    109  O          6.2810   -8.0340   18.8270 O.2   190  ALA190     -0.2718
    110  CB         3.0690   -7.8710   18.9910 C.3   190  ALA190      0.0304
    111  N          5.5200   -9.7460   20.0600 N.am  191  THR191     -0.1953
    112  CA         6.7800   -9.8890   20.7900 C.3   191  THR191      0.1897
    113  C          7.8650  -10.4770   19.8790 C.2   191  THR191      0.2313
    114  O          9.0170  -10.0230   19.8880 O.2   191  THR191     -0.2863
    115  CB         6.6070  -10.7360   22.0760 C.3   191  THR191      0.1794
    116  OG1        5.6710  -10.0760   22.9400 O.3   191  THR191     -0.2208
    117  CG2        7.9300  -10.8660   22.8130 C.3   191  THR191      0.0378
    118  N          7.9130  -10.1820   16.6110 N.3   193  TYR193     -0.1227
    119  CA         8.1900   -9.0430   15.7380 C.3   193  TYR193      0.1736
    120  C          9.1730   -8.0630   16.4150 C.2   193  TYR193      0.2595
    121  O         10.1390   -7.6230   15.7930 O.2   193  TYR193     -0.2718
    122  CB         6.8810   -8.3320   15.3850 C.3   193  TYR193      0.0548
    123  CG         7.0580   -6.9940   14.7060 C.ar  193  TYR193     -0.0200
    124  CD1        7.0290   -6.8900   13.3140 C.ar  193  TYR193     -0.0009
    125  CD2        7.2420   -5.8260   15.4560 C.ar  193  TYR193     -0.0009
    126  CE1        7.1920   -5.6560   12.6810 C.ar  193  TYR193      0.0417
    127  CE2        7.4200   -4.5770   14.8320 C.ar  193  TYR193      0.0417
    128  CZ         7.3970   -4.5100   13.4440 C.ar  193  TYR193      0.1957
    129  OH         7.5660   -3.2950   12.8210 O.3   193  TYR193     -0.2866
    130  N          8.9040   -7.7280   17.6810 N.am  194  PHE194     -0.1976
    131  CA         9.7530   -6.8360   18.4610 C.3   194  PHE194      0.1639
    132  C         11.2210   -7.2910   18.4770 C.2   194  PHE194      0.2290
    133  O         12.1240   -6.4680   18.3730 O.2   194  PHE194     -0.2864
    134  CB         9.2050   -6.7120   19.8980 C.3   194  PHE194      0.0560
    135  CG         9.8350   -5.5970   20.7020 C.ar  194  PHE194     -0.0200
    136  CD1        9.3030   -4.3120   20.6710 C.ar  194  PHE194     -0.0042
    137  CD2       10.9670   -5.8340   21.4900 C.ar  194  PHE194     -0.0042
    138  CE1        9.8870   -3.2840   21.4120 C.ar  194  PHE194     -0.0003
    139  CE2       11.5550   -4.8060   22.2290 C.ar  194  PHE194     -0.0003
    140  CZ        11.0220   -3.5430   22.1910 C.ar  194  PHE194     -0.0000
    141  N         12.2610   -5.2980   15.0490 N.3   198  GLU198     -0.1231
    142  CA        12.5550   -4.0970   15.8130 C.3   198  GLU198      0.1699
    143  C         13.9580   -4.0820   16.4330 C.2   198  GLU198      0.2592
    144  O         14.6840   -3.0940   16.2860 O.2   198  GLU198     -0.2718
    145  CB        11.4900   -3.8670   16.8900 C.3   198  GLU198      0.0402
    146  CG        11.2120   -2.4100   17.1640 C.3   198  GLU198      0.1161
    147  CD        10.4130   -1.7670   16.0570 C.2   198  GLU198      0.3649
    148  OE1        9.3540   -2.3170   15.6810 O.co2 198  GLU198     -0.2457
    149  OE2       10.8460   -0.7160   15.5580 O.co2 198  GLU198     -0.2457
    150  N         14.3250   -5.1620   17.1250 N.am  199  PHE199     -0.1976
    151  CA        15.6000   -5.2290   17.8600 C.3   199  PHE199      0.1639
    152  C         16.4610   -6.4740   17.5730 C.2   199  PHE199      0.2290
    153  O         17.3080   -6.8690   18.3810 O.2   199  PHE199     -0.2864
    154  CB        15.3360   -5.0190   19.3640 C.3   199  PHE199      0.0560
    155  CG        14.9580   -3.6030   19.6910 C.ar  199  PHE199     -0.0200
    156  CD1       13.6160   -3.2260   19.7670 C.ar  199  PHE199     -0.0042
    157  CD2       15.9360   -2.6370   19.8660 C.ar  199  PHE199     -0.0042
    158  CE1       13.2630   -1.9040   20.0330 C.ar  199  PHE199     -0.0003
    159  CE2       15.6030   -1.3280   20.1400 C.ar  199  PHE199     -0.0003
    160  CZ        14.2630   -0.9500   20.2140 C.ar  199  PHE199     -0.0000
    161  N         14.8230   -0.6050   15.5320 N.3   214  GLY214     -0.1225
    162  CA        15.0080    0.2720   16.7010 C.3   214  GLY214      0.1811
    163  C         16.4810    0.4950   17.0300 C.2   214  GLY214      0.2280
    164  O         16.8520    1.5050   17.6380 O.2   214  GLY214     -0.2866
    165  N         18.2370    2.9940   14.0080 N.3   217  SER217     -0.1202
    166  CA        17.9170    4.4170   14.0800 C.3   217  SER217      0.2020
    167  C         18.4640    5.1180   15.3370 C.2   217  SER217      0.2619
    168  O         18.4360    6.3430   15.4100 O.2   217  SER217     -0.2717
    169  CB        16.4080    4.6180   13.9890 C.3   217  SER217      0.2103
    170  OG        15.7440    3.9590   15.0540 O.3   217  SER217     -0.2182
    171  N         18.9590    4.3420   16.3020 N.am  218  SER218     -0.1951
    172  CA        19.5330    4.8860   17.5430 C.3   218  SER218      0.1924
    173  C         21.0460    4.7460   17.5990 C.2   218  SER218      0.2314
    174  O         21.5600    3.6470   17.7900 O.2   218  SER218     -0.2863
    175  CB        18.9420    4.1680   18.7580 C.3   218  SER218      0.2116
    176  OG        19.6510    4.5130   19.9400 O.3   218  SER218     -0.2180
    177  N         22.1420    2.9200   21.0920 N.3   221  GLU221     -0.1245
    178  CA        21.8090    1.4830   21.2010 C.3   221  GLU221      0.1567
    179  C         22.4630    0.6060   20.1240 C.2   221  GLU221      0.2260
    180  O         22.7560   -0.5650   20.3760 O.2   221  GLU221     -0.2867
    181  CB        20.2900    1.2040   21.3020 C.3   221  GLU221      0.0388
    182  CG        20.0300   -0.1680   21.9700 C.3   221  GLU221      0.1160
    183  CD        18.5970   -0.4610   22.4080 C.2   221  GLU221      0.3649
    184  OE1       18.3640   -1.5860   22.9200 O.co2 221  GLU221     -0.2457
    185  OE2       17.7060    0.4000   22.2680 O.co2 221  GLU221     -0.2457
    186  N          9.1270   -6.8330   26.3520 N.3   245  CYS245     -0.1235
    187  CA         9.5810   -5.7420   25.4910 C.3   245  CYS245      0.1677
    188  C          9.7130   -4.4610   26.2990 C.2   245  CYS245      0.2270
    189  O          8.7220   -3.9490   26.8210 O.2   245  CYS245     -0.2867
    190  CB         8.5890   -5.5080   24.3520 C.3   245  CYS245      0.0956
    191  SG         8.1410   -6.9760   23.4210 S.3   245  CYS245     -0.0801
    192  N         10.2410   -0.5210   26.8550 N.3   247  ILE247     -0.1245
    193  CA        10.1720    0.8360   26.3350 C.3   247  ILE247      0.1561
    194  C         10.7920    1.7950   27.3470 C.2   247  ILE247      0.2260
    195  O         10.7860    1.5250   28.5630 O.2   247  ILE247     -0.2867
    196  CB         8.7240    1.2590   25.9760 C.3   247  ILE247      0.0252
    197  CG1        7.6950    0.5840   26.8890 C.3   247  ILE247      0.0019
    198  CG2        8.4180    0.8970   24.5340 C.3   247  ILE247      0.0019
    199  CD1        7.3680    1.3640   28.1510 C.3   247  ILE247      0.0001
@<TRIPOS>BOND
     1    90    89    2
     2    89    88    1
     3    87    88    1
     4   126   124   ar
     5   126   128   ar
     6   129   128    1
     7    88    91    1
     8    19    18    1
     9   124   123   ar
    10   128   127   ar
    11   169   166    1
    12   169   170    1
    13   165   166    1
    14   166   167    1
    15    91    92    1
    16    92    94   ar
    17    92    93   ar
    18    94    96   ar
    19    18    20    1
    20    18    17    1
    21    93    95   ar
    22    96    95   ar
    23   123   122    1
    24   123   125   ar
    25   127   125   ar
    26   141   142    1
    27   167   168    2
    28   167   171   am
    29   122   119    1
    30   161   162    1
    31   149   147   ar
    32    17    14    1
    33   148   147   ar
    34   119   120    1
    35   119   118    1
    36   121   120    2
    37   142   143    1
    38   142   145    1
    39    30    29    2
    40    34    35    1
    41    43    42    1
    42   147   146    1
    43   144   143    2
    44   171   172    1
    45   120   130   am
    46   143   150   am
    47    41    42    2
    48    41    40    1
    49    82    83    2
    50    82    81    1
    51    84    81    1
    52    84    85    1
    53    42    44    1
    54   162   163    1
    55    24    23    2
    56   145   146    1
    57    29    28    1
    58   163   164    2
    59    14    13    1
    60    14    15    1
    61    37    36    2
    62    39    40    1
    63    39    38    1
    64   150   151    1
    65    81    80    1
    66    35    38    1
    67    35    36    1
    68    13     3   am
    69   172   173    1
    70   172   175    1
    71   152   151    1
    72   152   153    2
    73   173   174    2
    74   130   131    1
    75    85    86    1
    76   151   154    1
    77    28    27    1
    78    28    31    1
    79    15    21   am
    80    15    16    2
    81    26    25    1
    82    23    27   am
    83    23    22    1
    84   106   107    1
    85    21    22    1
    86     3     2    1
    87     3     4    2
    88   107   110    1
    89   107   108    1
    90   133   132    2
    91     1     2    1
    92   131   132    1
    93   131   134    1
    94     2     5    1
    95    80    86    1
    96    80    73   am
    97    27    33    1
    98   175   176    1
    99   109   108    2
   100    22    25    1
   101    31    32    1
   102   108   111   am
   103    74    73    2
   104    63    61    1
   105   154   155    1
   106    73    72    1
   107   155   156   ar
   108   155   157   ar
   109   156   158   ar
   110   157   159   ar
   111   113   114    2
   112   113   112    1
   113   134   135    1
   114   158   160   ar
   115     5     6    1
   116     7     9   ar
   117     7     6   ar
   118   111   112    1
   119    78    77   ar
   120   179   180    2
   121   179   178    1
   122   159   160   ar
   123    33    32    1
   124     9    11   ar
   125     6     8   ar
   126    77    79   ar
   127    77    76    1
   128   136   135   ar
   129   136   138   ar
   130   135   137   ar
   131    61    62    1
   132    61    58    1
   133   112   115    1
   134    72    75    1
   135    72    71    1
   136    76    75    1
   137    97    98    1
   138    45    46    1
   139   177   178    1
   140    11    12    1
   141    11    10   ar
   142   178   181    1
   143     8    10   ar
   144   181   182    1
   145   138   140   ar
   146    57    47   am
   147    57    58    1
   148   137   139   ar
   149    46    47    1
   150    46    49    1
   151    60    59    2
   152    99   100    2
   153    99    98    1
   154    47    48    2
   155    58    59    1
   156    71    66   am
   157    98   101    1
   158   182   183    1
   159   115   117    1
   160   115   116    1
   161    59    64   am
   162   140   139   ar
   163   185   183   ar
   164   183   184   ar
   165    49    50    1
   166    66    67    2
   167    66    65    1
   168    52    50   ar
   169    52    54   ar
   170    64    65    1
   171    64    70    1
   172    50    51   ar
   173    54    55   ar
   174   101   102    1
   175   191   190    1
   176   104   103    2
   177    65    68    1
   178    70    69    1
   179    51    53   ar
   180   102   103    1
   181    55    53   ar
   182    55    56    1
   183   190   187    1
   184   103   105   am
   185   198   196    1
   186    68    69    1
   187   187   188    1
   188   187   186    1
   189   196   193    1
   190   196   197    1
   191   188   189    2
   192   193   192    1
   193   193   194    1
   194   197   199    1
   195   194   195    2
