@<TRIPOS>MOLECULE
tmp/3hfgB00.pdb
 184 177 0 0 0
SMALL
GASTEIGER

@<TRIPOS>ATOM
      1  N        -21.7430   -7.9040    8.6160 N.3   100  ILE100     -0.1231
      2  CA       -21.3150   -7.6750    9.9860 C.3   100  ILE100      0.1692
      3  C        -22.1110   -8.5650   10.9350 C.2   100  ILE100      0.2593
      4  O        -23.2090   -9.0180   10.6070 O.2   100  ILE100     -0.2718
      5  CB       -21.4850   -6.2110   10.4050 C.3   100  ILE100      0.0266
      6  CG1      -22.9340   -5.7720   10.2180 C.3   100  ILE100      0.0019
      7  CG2      -20.5410   -5.3260    9.6130 C.3   100  ILE100      0.0020
      8  CD1      -23.3250   -4.6090   11.0890 C.3   100  ILE100      0.0001
      9  N        -21.5460   -8.8210   12.1100 N.am  101  THR101     -0.1939
     10  CA       -22.2090   -9.6420   13.1100 C.3   101  THR101      0.2028
     11  C        -23.2840   -8.8040   13.7830 C.2   101  THR101      0.2642
     12  O        -23.2480   -7.5780   13.7080 O.2   101  THR101     -0.2714
     13  CB       -21.2100  -10.1560   14.1600 C.3   101  THR101      0.1808
     14  OG1      -21.8360  -11.1550   14.9750 O.3   101  THR101     -0.2208
     15  CG2      -20.7230   -9.0150   15.0390 C.3   101  THR101      0.0379
     16  N        -24.2420   -9.4580   14.4300 N.am  102  ASN102     -0.1957
     17  CA       -25.3290   -8.7420   15.0860 C.3   102  ASN102      0.1819
     18  C        -24.8410   -7.8450   16.2180 C.2   102  ASN102      0.2622
     19  O        -24.5030   -8.3200   17.3040 O.2   102  ASN102     -0.2715
     20  CB       -26.3930   -9.7140   15.5980 C.3   102  ASN102      0.1195
     21  CG       -27.3070  -10.2130   14.4910 C.2   102  ASN102      0.2630
     22  OD1      -27.6250   -9.4790   13.5500 O.2   102  ASN102     -0.2716
     23  ND2      -27.7410  -11.4630   14.6020 N.am  102  ASN102     -0.0877
     24  N        -24.8010   -6.5460   15.9520 N.am  103  THR103     -0.1937
     25  CA       -24.4000   -5.5720   16.9540 C.3   103  THR103      0.2028
     26  C        -25.6010   -4.7390   17.3860 C.2   103  THR103      0.2643
     27  O        -26.5890   -4.6270   16.6560 O.2   103  THR103     -0.2714
     28  CB       -23.2970   -4.6320   16.4150 C.3   103  THR103      0.1808
     29  OG1      -22.3100   -5.3990   15.7140 O.3   103  THR103     -0.2208
     30  CG2      -22.6300   -3.8710   17.5510 C.3   103  THR103      0.0379
     31  N        -25.5140   -4.1640   18.5800 N.am  104  SER104     -0.1935
     32  CA       -26.5320   -3.2410   19.0680 C.3   104  SER104      0.2055
     33  C        -25.8540   -2.1350   19.8660 C.2   104  SER104      0.2642
     34  O        -24.6730   -2.2400   20.1990 O.2   104  SER104     -0.2714
     35  CB       -27.5460   -3.9740   19.9440 C.3   104  SER104      0.2130
     36  OG       -26.9530   -4.3860   21.1650 O.3   104  SER104     -0.2179
     37  N        -26.5940   -1.0740   20.1700 N.am  105  LEU105     -0.1977
     38  CA       -26.0460    0.0120   20.9780 C.3   105  LEU105      0.1596
     39  C        -26.0880   -0.3090   22.4670 C.2   105  LEU105      0.2287
     40  O        -27.1580   -0.4460   23.0540 O.2   105  LEU105     -0.2864
     41  CB       -26.7510    1.3390   20.6840 C.3   105  LEU105      0.0297
     42  CG       -25.9600    2.2860   19.7780 C.3   105  LEU105      0.0022
     43  CD1      -25.5520    1.5970   18.4890 C.3   105  LEU105      0.0001
     44  CD2      -26.7470    3.5530   19.4840 C.3   105  LEU105      0.0001
     45  N        -17.5960    2.5830    8.2590 N.3   149  SER149     -0.1202
     46  CA       -18.5100    3.4440    9.0030 C.3   149  SER149      0.2020
     47  C        -17.8230    4.6580    9.6220 C.2   149  SER149      0.2619
     48  O        -16.6010    4.6890    9.7630 O.2   149  SER149     -0.2717
     49  CB       -19.1630    2.6200   10.1130 C.3   149  SER149      0.2103
     50  OG       -19.2360    1.2530    9.7320 O.3   149  SER149     -0.2182
     51  N        -18.6120    5.6590   10.0010 N.am  150  LEU150     -0.1965
     52  CA       -18.0650    6.7940   10.7420 C.3   150  LEU150      0.1728
     53  C        -17.3790    6.3040   12.0180 C.2   150  LEU150      0.2616
     54  O        -16.3240    6.8170   12.4090 O.2   150  LEU150     -0.2715
     55  CB       -19.1580    7.8200   11.0700 C.3   150  LEU150      0.0311
     56  CG       -19.5390    8.7950    9.9470 C.3   150  LEU150      0.0022
     57  CD1      -20.7400    9.6410   10.3410 C.3   150  LEU150      0.0001
     58  CD2      -18.3590    9.6820    9.5850 C.3   150  LEU150      0.0001
     59  N        -17.9700    5.2930   12.6490 N.am  151  ALA151     -0.1977
     60  CA       -17.4060    4.7130   13.8680 C.3   151  ALA151      0.1597
     61  C        -16.0480    4.0570   13.6300 C.2   151  ALA151      0.2287
     62  O        -15.3430    3.6990   14.5810 O.2   151  ALA151     -0.2864
     63  CB       -18.3800    3.7200   14.4870 C.3   151  ALA151      0.0319
     64  N        -17.0910    7.0030   18.7900 N.3   156  TYR156     -0.1228
     65  CA       -18.3800    7.1790   19.4520 C.3   156  TYR156      0.1721
     66  C        -18.5500    6.1170   20.5420 C.2   156  TYR156      0.2437
     67  O        -17.9420    5.0480   20.4750 O.2   156  TYR156     -0.2733
     68  CB       -19.5250    7.0860   18.4480 C.3   156  TYR156      0.0547
     69  CG       -19.4870    8.1350   17.3540 C.ar  156  TYR156     -0.0200
     70  CD1      -19.1300    7.7980   16.0570 C.ar  156  TYR156     -0.0009
     71  CD2      -19.8160    9.4570   17.6180 C.ar  156  TYR156     -0.0009
     72  CE1      -19.1010    8.7450   15.0540 C.ar  156  TYR156      0.0417
     73  CE2      -19.7860   10.4130   16.6200 C.ar  156  TYR156      0.0417
     74  CZ       -19.4260   10.0510   15.3400 C.ar  156  TYR156      0.1957
     75  OH       -19.3900   10.9960   14.3390 O.3   156  TYR156     -0.2866
     76  N        -19.3700    6.4130   21.5600 N.am  157  PRO157     -0.2718
     77  CA       -19.6490    5.4750   22.6540 C.3   157  PRO157      0.1535
     78  C        -20.7460    4.4800   22.2840 C.2   157  PRO157      0.2598
     79  O        -21.5460    4.7760   21.4000 O.2   157  PRO157     -0.2715
     80  CB       -20.1440    6.3890   23.7840 C.3   157  PRO157      0.0310
     81  CG       -19.8810    7.8030   23.3120 C.3   157  PRO157      0.0237
     82  CD       -19.9330    7.7410   21.8300 C.3   157  PRO157      0.0939
     83  N        -20.7710    3.3260   22.9520 N.am  158  MET158     -0.1964
     84  CA       -21.8140    2.3080   22.7610 C.3   158  MET158      0.1736
     85  C        -21.6550    1.4820   21.4820 C.2   158  MET158      0.2616
     86  O        -22.5450    0.7160   21.1170 O.2   158  MET158     -0.2715
     87  CB       -23.2060    2.9380   22.8130 C.3   158  MET158      0.0427
     88  CG       -23.4390    3.8100   24.0330 C.3   158  MET158      0.0599
     89  SD       -25.1870    4.1800   24.2620 S.3   158  MET158     -0.1393
     90  CE       -25.5990    4.8390   22.6480 C.3   158  MET158      0.0692
     91  N        -20.5220    1.6410   20.8080 N.am  159  VAL159     -0.1977
     92  CA       -20.2140    0.8460   19.6290 C.3   159  VAL159      0.1596
     93  C        -18.7390    0.4510   19.6370 C.2   159  VAL159      0.2287
     94  O        -18.1390    0.2400   18.5860 O.2   159  VAL159     -0.2864
     95  CB       -20.5350    1.6040   18.3260 C.3   159  VAL159      0.0276
     96  CG1      -22.0090    1.9760   18.2720 C.3   159  VAL159      0.0022
     97  CG2      -19.6670    2.8440   18.2030 C.3   159  VAL159      0.0022
     98  N        -17.7330   -2.8070   17.8880 N.3   162  TYR162     -0.1241
     99  CA       -17.9820   -2.5830   16.4710 C.3   162  TYR162      0.1605
    100  C        -16.9270   -1.6490   15.8850 C.2   162  TYR162      0.2264
    101  O        -16.2730   -1.9670   14.8930 O.2   162  TYR162     -0.2867
    102  CB       -19.3800   -1.9900   16.3100 C.3   162  TYR162      0.0534
    103  CG       -19.7460   -1.5580   14.9150 C.ar  162  TYR162     -0.0201
    104  CD1      -20.3710   -2.4300   14.0410 C.ar  162  TYR162     -0.0009
    105  CD2      -19.4930   -0.2630   14.4800 C.ar  162  TYR162     -0.0009
    106  CE1      -20.7240   -2.0310   12.7680 C.ar  162  TYR162      0.0417
    107  CE2      -19.8380    0.1450   13.2020 C.ar  162  TYR162      0.0417
    108  CZ       -20.4520   -0.7420   12.3530 C.ar  162  TYR162      0.1957
    109  OH       -20.7970   -0.3370   11.0850 O.3   162  TYR162     -0.2866
    110  N        -19.5350    4.9450    5.8100 N.3   194  LEU194     -0.1231
    111  CA       -20.9590    5.2630    5.7840 C.3   194  LEU194      0.1693
    112  C        -21.4100    5.8680    7.0950 C.2   194  LEU194      0.2593
    113  O        -21.0120    5.4120    8.1650 O.2   194  LEU194     -0.2718
    114  CB       -21.7950    4.0110    5.5210 C.3   194  LEU194      0.0284
    115  CG       -21.4580    3.0990    4.3380 C.3   194  LEU194      0.0019
    116  CD1      -22.4780    1.9620    4.2590 C.3   194  LEU194      0.0001
    117  CD2      -21.3980    3.8710    3.0220 C.3   194  LEU194      0.0001
    118  N        -22.2510    6.8890    7.0070 N.am  195  GLY195     -0.1942
    119  CA       -22.9210    7.4270    8.1730 C.3   195  GLY195      0.2014
    120  C        -24.1620    6.6000    8.4360 C.2   195  GLY195      0.2639
    121  O        -24.3180    5.5250    7.8570 O.2   195  GLY195     -0.2714
    122  N        -25.0450    7.0850    9.3030 N.am  196  LEU196     -0.1963
    123  CA       -26.2800    6.3630    9.5840 C.3   196  LEU196      0.1728
    124  C        -27.0710    6.0670    8.3100 C.2   196  LEU196      0.2616
    125  O        -27.4940    6.9810    7.6040 O.2   196  LEU196     -0.2715
    126  CB       -27.1530    7.1380   10.5720 C.3   196  LEU196      0.0311
    127  CG       -28.4990    6.4730   10.8680 C.3   196  LEU196      0.0022
    128  CD1      -28.2960    5.0040   11.2000 C.3   196  LEU196      0.0001
    129  CD2      -29.2250    7.1950   11.9900 C.3   196  LEU196      0.0001
    130  N        -27.2680    4.7850    8.0200 N.am  197  ILE197     -0.1977
    131  CA       -28.0780    4.3760    6.8770 C.3   197  ILE197      0.1596
    132  C        -29.3270    3.6460    7.3670 C.2   197  ILE197      0.2287
    133  O        -29.2560    2.8450    8.3010 O.2   197  ILE197     -0.2864
    134  CB       -27.2800    3.4990    5.8980 C.3   197  ILE197      0.0276
    135  CG1      -25.9710    4.1870    5.5200 C.3   197  ILE197      0.0022
    136  CG2      -28.0960    3.2140    4.6420 C.3   197  ILE197      0.0022
    137  CD1      -26.1650    5.5580    4.9000 C.3   197  ILE197      0.0001
    138  N        -31.1680    1.1120    7.2700 N.3   199  THR199     -0.1218
    139  CA       -31.4350   -0.3170    7.1470 C.3   199  THR199      0.1862
    140  C        -32.3760   -0.7730    8.2530 C.2   199  THR199      0.2287
    141  O        -32.4980   -0.1100    9.2870 O.2   199  THR199     -0.2866
    142  CB       -30.1490   -1.1470    7.2170 C.3   199  THR199      0.1770
    143  OG1      -29.4600   -0.8600    8.4390 O.3   199  THR199     -0.2211
    144  CG2      -29.2480   -0.8200    6.0440 C.3   199  THR199      0.0375
    145  N        -32.0700   -3.2670   10.2860 N.3   201  THR201     -0.1203
    146  CA       -31.2630   -3.5380   11.4740 C.3   201  THR201      0.1994
    147  C        -30.8250   -2.2640   12.1890 C.2   201  THR201      0.2617
    148  O        -30.9410   -2.1570   13.4090 O.2   201  THR201     -0.2717
    149  CB       -30.0030   -4.3470   11.1140 C.3   201  THR201      0.1784
    150  OG1      -30.3610   -5.4710   10.2980 O.3   201  THR201     -0.2211
    151  CG2      -29.3090   -4.8340   12.3720 C.3   201  THR201      0.0376
    152  N        -30.3130   -1.3020   11.4270 N.am  202  ALA202     -0.1979
    153  CA       -29.8290   -0.0430   11.9950 C.3   202  ALA202      0.1597
    154  C        -30.9250    0.7130   12.7350 C.2   202  ALA202      0.2287
    155  O        -30.7330    1.1250   13.8760 O.2   202  ALA202     -0.2864
    156  CB       -29.2220    0.8320   10.9020 C.3   202  ALA202      0.0319
    157  N        -31.8880   -0.5840   16.2270 N.3   205  ALA205     -0.1231
    158  CA       -30.8860   -0.3850   17.2690 C.3   205  ALA205      0.1694
    159  C        -30.7460    1.0730   17.7000 C.2   205  ALA205      0.2591
    160  O        -30.3340    1.3610   18.8240 O.2   205  ALA205     -0.2718
    161  CB       -29.5400   -0.9270   16.8060 C.3   205  ALA205      0.0304
    162  N        -31.0890    1.9880   16.8000 N.am  206  VAL206     -0.1980
    163  CA       -30.8900    3.4130   17.0380 C.3   206  VAL206      0.1595
    164  C        -32.0890    4.0700   17.7150 C.2   206  VAL206      0.2287
    165  O        -31.9300    4.8660   18.6410 O.2   206  VAL206     -0.2864
    166  CB       -30.6000    4.1580   15.7200 C.3   206  VAL206      0.0276
    167  CG1      -30.8620    5.6470   15.8840 C.3   206  VAL206      0.0022
    168  CG2      -29.1710    3.8970   15.2620 C.3   206  VAL206      0.0022
    169  N        -30.9880   10.5680   15.6950 N.3   211  MET211     -0.1245
    170  CA       -30.3570   11.3100   14.6030 C.3   211  MET211      0.1570
    171  C        -31.1570   11.2330   13.3030 C.2   211  MET211      0.2261
    172  O        -32.3880   11.1770   13.3190 O.2   211  MET211     -0.2867
    173  CB       -28.9340   10.8000   14.3640 C.3   211  MET211      0.0387
    174  CG       -27.9800   11.0520   15.5190 C.3   211  MET211      0.0595
    175  SD       -26.4730   10.0720   15.3840 S.3   211  MET211     -0.1393
    176  CE       -26.1030   10.2630   13.6420 C.3   211  MET211      0.0692
    177  N        -23.4390    9.9960    3.8460 N.3   237  ASP237     -0.1239
    178  CA       -24.0840   10.3960    5.0830 C.3   237  ASP237      0.1674
    179  C        -25.1630   11.4190    4.7580 C.2   237  ASP237      0.2266
    180  O        -25.0510   12.1450    3.7710 O.2   237  ASP237     -0.2867
    181  CB       -23.0480   10.9960    6.0390 C.3   237  ASP237      0.1410
    182  CG       -23.6290   11.3410    7.3970 C.2   237  ASP237      0.3668
    183  OD1      -24.2340   12.4240    7.5280 O.co2 237  ASP237     -0.2456
    184  OD2      -23.4710   10.5360    8.3430 O.co2 237  ASP237     -0.2456
@<TRIPOS>BOND
     1   117   115    1
     2   180   179    2
     3   177   178    1
     4   116   115    1
     5   115   114    1
     6   136   134    1
     7   179   178    1
     8   137   135    1
     9   178   181    1
    10   135   134    1
    11   114   111    1
    12   111   110    1
    13   111   112    1
    14   134   131    1
    15   181   182    1
    16   144   142    1
    17   131   132    1
    18   131   130    1
    19   118   112   am
    20   118   119    1
    21   112   113    2
    22   139   142    1
    23   139   138    1
    24   139   140    1
    25   142   143    1
    26   132   133    2
    27   182   183   ar
    28   182   184   ar
    29   125   124    2
    30   121   120    2
    31   130   124   am
    32   119   120    1
    33   140   141    2
    34    45    46    1
    35   124   123    1
    36   120   122   am
    37     1     2    1
    38    46    47    1
    39    46    49    1
    40   122   123    1
    41   123   126    1
    42    58    56    1
    43     7     5    1
    44    47    48    2
    45    47    51   am
    46    50    49    1
    47    56    57    1
    48    56    55    1
    49     2     5    1
    50     2     3    1
    51    51    52    1
    52     6     5    1
    53     6     8    1
    54   145   146    1
    55   150   149    1
    56   126   127    1
    57     4     3    2
    58    52    55    1
    59    52    53    1
    60   127   128    1
    61   127   129    1
    62   156   153    1
    63     3     9   am
    64   109   108    1
    65   149   146    1
    66   149   151    1
    67   152   153    1
    68   152   147   am
    69   146   147    1
    70   153   154    1
    71    53    54    2
    72    53    59   am
    73     9    10    1
    74   147   148    2
    75   108   106   ar
    76   108   107   ar
    77    59    60    1
    78   154   155    2
    79   106   104   ar
    80    10    11    1
    81    10    13    1
    82   107   105   ar
    83   171   172    2
    84   171   170    1
    85    22    21    2
    86    61    60    1
    87    61    62    2
    88   176   175    1
    89    12    11    2
    90    11    16   am
    91    60    63    1
    92   104   103   ar
    93    13    14    1
    94    13    15    1
    95    75    74    1
    96   173   170    1
    97   173   174    1
    98    16    17    1
    99   105   103   ar
   100    21    23   am
   101    21    20    1
   102   170   169    1
   103   101   100    2
   104   103   102    1
   105    72    74   ar
   106    72    70   ar
   107    17    20    1
   108    17    18    1
   109   168   166    1
   110    74    73   ar
   111   175   174    1
   112    29    28    1
   113   166   167    1
   114   166   163    1
   115   100    99    1
   116    24    18   am
   117    24    25    1
   118    70    69   ar
   119    18    19    2
   120   157   158    1
   121   102    99    1
   122    28    25    1
   123    28    30    1
   124    99    98    1
   125    73    71   ar
   126    27    26    2
   127   162   163    1
   128   162   159   am
   129   161   158    1
   130    25    26    1
   131   163   164    1
   132   158   159    1
   133    69    71   ar
   134    69    68    1
   135    26    31   am
   136   159   160    2
   137   164   165    2
   138    97    95    1
   139    96    95    1
   140    95    92    1
   141    68    65    1
   142    43    42    1
   143    31    32    1
   144    94    93    2
   145    64    65    1
   146    32    33    1
   147    32    35    1
   148    65    66    1
   149    44    42    1
   150    92    93    1
   151    92    91    1
   152    42    41    1
   153    33    37   am
   154    33    34    2
   155    35    36    1
   156    37    38    1
   157    67    66    2
   158    66    76   am
   159    41    38    1
   160    91    85   am
   161    38    39    1
   162    86    85    2
   163    79    78    2
   164    85    84    1
   165    76    82    1
   166    76    77    1
   167    82    81    1
   168    78    77    1
   169    78    83   am
   170    39    40    2
   171    90    89    1
   172    77    80    1
   173    84    87    1
   174    84    83    1
   175    87    88    1
   176    81    80    1
   177    88    89    1
