@<TRIPOS>MOLECULE
tmp/3hfjB00.pdb
 105 103 0 0 0
SMALL
GASTEIGER

@<TRIPOS>ATOM
      1  N         22.1090   -3.6990   -5.2630 N.3     8  GLY8       -0.1210
      2  CA        22.6600   -4.2070   -6.5200 C.3     8  GLY8        0.1956
      3  C         21.6510   -4.1050   -7.6430 C.2     8  GLY8        0.2612
      4  O         20.4560   -3.9970   -7.3950 O.2     8  GLY8       -0.2717
      5  N         22.1370   -4.1390   -8.8770 N.am    9  GLY9       -0.1956
      6  CA        21.2770   -4.0980  -10.0480 C.3     9  GLY9        0.1869
      7  C         22.0630   -3.6640  -11.2630 C.2     9  GLY9        0.2309
      8  O         23.2530   -3.3670  -11.1800 O.2     9  GLY9       -0.2863
      9  N         25.9140   -4.3260  -11.5570 N.3    39  ASN39      -0.1240
     10  CA        26.2110   -5.6860  -12.0320 C.3    39  ASN39       0.1653
     11  C         26.8550   -5.6780  -13.4180 C.2    39  ASN39       0.2266
     12  O         26.6440   -4.7480  -14.2000 O.2    39  ASN39      -0.2867
     13  CB        24.9330   -6.5350  -12.1540 C.3    39  ASN39       0.1155
     14  CG        24.1020   -6.6130  -10.8660 C.2    39  ASN39       0.2627
     15  OD1       22.8980   -6.8500  -10.9340 O.2    39  ASN39      -0.2716
     16  ND2       24.7300   -6.4560   -9.7140 N.am   39  ASN39      -0.0877
     17  N         26.2690  -13.3000   -6.0310 N.3    85  THR85      -0.1218
     18  CA        26.2910  -12.4070   -4.8830 C.3    85  THR85       0.1862
     19  C         27.2470  -12.9390   -3.8140 C.2    85  THR85       0.2287
     20  O         27.9750  -12.1580   -3.1950 O.2    85  THR85      -0.2866
     21  CB        24.8620  -12.1700   -4.3330 C.3    85  THR85       0.1770
     22  OG1       24.0770  -11.5370   -5.3590 O.3    85  THR85      -0.2211
     23  CG2       24.8840  -11.2740   -3.1050 C.3    85  THR85       0.0375
     24  N         22.2290   -6.2630    2.7750 N.3   103  PHE103     -0.1227
     25  CA        22.0050   -6.5190    1.3610 C.3   103  PHE103      0.1736
     26  C         20.5260   -6.3540    1.0690 C.2   103  PHE103      0.2595
     27  O         19.7010   -7.1470    1.5240 O.2   103  PHE103     -0.2718
     28  CB        22.4940   -7.9220    0.9590 C.3   103  PHE103      0.0547
     29  CG        22.6800   -8.0810   -0.5060 C.ar  103  PHE103     -0.0202
     30  CD1       23.9150   -7.8130   -1.0950 C.ar  103  PHE103     -0.0042
     31  CD2       21.6080   -8.4430   -1.3220 C.ar  103  PHE103     -0.0042
     32  CE1       24.0870   -7.9310   -2.4680 C.ar  103  PHE103     -0.0003
     33  CE2       21.7770   -8.5780   -2.6900 C.ar  103  PHE103     -0.0003
     34  CZ        23.0220   -8.3150   -3.2660 C.ar  103  PHE103     -0.0000
     35  N         20.2050   -5.3150    0.3080 N.am  104  ILE104     -0.1966
     36  CA        18.8160   -4.9060    0.0880 C.3   104  ILE104      0.1727
     37  C         18.1990   -5.6400   -1.1000 C.2   104  ILE104      0.2616
     38  O         18.7470   -5.6400   -2.2030 O.2   104  ILE104     -0.2715
     39  CB        18.6950   -3.3930   -0.1480 C.3   104  ILE104      0.0290
     40  CG1       19.2370   -2.6030    1.0500 C.3   104  ILE104      0.0022
     41  CG2       17.2240   -3.0110   -0.4640 C.3   104  ILE104      0.0023
     42  CD1       19.7340   -1.2030    0.6580 C.3   104  ILE104      0.0001
     43  N         17.0390   -6.2500   -0.8690 N.am  105  ILE105     -0.1977
     44  CA        16.3430   -6.9590   -1.9370 C.3   105  ILE105      0.1596
     45  C         14.8530   -6.5960   -1.9420 C.2   105  ILE105      0.2287
     46  O         14.2960   -6.2520   -0.9050 O.2   105  ILE105     -0.2864
     47  CB        16.5430   -8.5120   -1.8230 C.3   105  ILE105      0.0276
     48  CG1       15.9340   -9.0610   -0.5300 C.3   105  ILE105      0.0022
     49  CG2       18.0320   -8.8750   -1.9220 C.3   105  ILE105      0.0022
     50  CD1       15.9300  -10.6160   -0.4410 C.3   105  ILE105      0.0001
     51  N         11.4220  -10.9910   -4.0380 N.3   109  MET109     -0.1245
     52  CA        12.5700  -11.8840   -4.1830 C.3   109  MET109      0.1570
     53  C         12.8010  -12.7470   -2.9440 C.2   109  MET109      0.2261
     54  O         13.5100  -13.7640   -3.0040 O.2   109  MET109     -0.2867
     55  CB        13.8210  -11.0730   -4.5220 C.3   109  MET109      0.0387
     56  CG        13.6960  -10.3790   -5.8770 C.3   109  MET109      0.0595
     57  SD        15.2730   -9.8270   -6.4730 S.3   109  MET109     -0.1393
     58  CE        15.4880   -8.3080   -5.5240 C.3   109  MET109      0.0692
     59  N         12.2940  -16.6020   -2.8580 N.3   112  TYR112     -0.1241
     60  CA        13.2560  -17.3200   -3.6980 C.3   112  TYR112      0.1605
     61  C         14.6810  -17.3680   -3.1260 C.2   112  TYR112      0.2264
     62  O         15.5650  -17.9910   -3.7190 O.2   112  TYR112     -0.2867
     63  CB        13.2620  -16.7250   -5.1130 C.3   112  TYR112      0.0534
     64  CG        11.9460  -16.9210   -5.8320 C.ar  112  TYR112     -0.0201
     65  CD1       11.1400  -15.8320   -6.1560 C.ar  112  TYR112     -0.0009
     66  CD2       11.4940  -18.2100   -6.1630 C.ar  112  TYR112     -0.0009
     67  CE1        9.9160  -16.0120   -6.8040 C.ar  112  TYR112      0.0417
     68  CE2       10.2700  -18.4040   -6.8130 C.ar  112  TYR112      0.0417
     69  CZ         9.4920  -17.3020   -7.1240 C.ar  112  TYR112      0.1957
     70  OH         8.3000  -17.4870   -7.7770 O.3   112  TYR112     -0.2866
     71  N         16.9670  -20.5300   -3.2150 N.3   115  LYS115     -0.1231
     72  CA        17.5240  -20.8440   -4.5330 C.3   115  LYS115      0.1693
     73  C         18.7690  -20.0270   -4.8940 C.2   115  LYS115      0.2592
     74  O         19.3740  -20.2480   -5.9480 O.2   115  LYS115     -0.2718
     75  CB        16.4650  -20.5930   -5.6130 C.3   115  LYS115      0.0285
     76  CG        15.2320  -21.4930   -5.4930 C.3   115  LYS115      0.0035
     77  CD        14.3090  -21.3100   -6.6810 C.3   115  LYS115      0.0206
     78  CE        13.0890  -22.1910   -6.5900 C.3   115  LYS115      0.1093
     79  NZ        13.4440  -23.6300   -6.3790 N.3   115  LYS115     -0.1314
     80  N         19.1270  -19.0550   -4.0670 N.am  116  TRP116     -0.1962
     81  CA        20.3160  -18.2520   -4.3660 C.3   116  TRP116      0.1771
     82  C         21.5690  -19.1040   -4.2090 C.2   116  TRP116      0.2619
     83  O         21.6550  -19.9230   -3.2910 O.2   116  TRP116     -0.2715
     84  CB        20.4080  -17.0440   -3.4410 C.3   116  TRP116      0.0590
     85  CG        19.5060  -15.8870   -3.7920 C.ar  116  TRP116      0.0006
     86  CD1       18.2170  -15.9400   -4.2640 C.ar  116  TRP116      0.0946
     87  CD2       19.8250  -14.4910   -3.6490 C.ar  116  TRP116      0.0152
     88  NE1       17.7250  -14.6590   -4.4400 N.ar  116  TRP116     -0.2442
     89  CE2       18.6920  -13.7550   -4.0680 C.ar  116  TRP116      0.0810
     90  CE3       20.9640  -13.7950   -3.2120 C.ar  116  TRP116      0.0012
     91  CZ2       18.6600  -12.3570   -4.0500 C.ar  116  TRP116      0.0191
     92  CZ3       20.9360  -12.3960   -3.2040 C.ar  116  TRP116      0.0001
     93  CH2       19.7900  -11.6960   -3.6200 C.ar  116  TRP116      0.0015
     94  N         22.5330  -18.9100   -5.0970 N.am  117  TYR117     -0.1974
     95  CA        23.7560  -19.7120   -5.0580 C.3   117  TYR117      0.1639
     96  C         24.4750  -19.5760   -3.7080 C.2   117  TYR117      0.2290
     97  O         24.8180  -18.4660   -3.2720 O.2   117  TYR117     -0.2864
     98  CB        24.6890  -19.3560   -6.2190 C.3   117  TYR117      0.0560
     99  CG        25.9520  -20.1710   -6.2300 C.ar  117  TYR117     -0.0198
    100  CD1       25.9760  -21.4520   -6.7970 C.ar  117  TYR117     -0.0009
    101  CD2       27.1270  -19.6750   -5.6590 C.ar  117  TYR117     -0.0009
    102  CE1       27.1500  -22.2150   -6.8060 C.ar  117  TYR117      0.0417
    103  CE2       28.3020  -20.4270   -5.6620 C.ar  117  TYR117      0.0417
    104  CZ        28.3040  -21.6880   -6.2310 C.ar  117  TYR117      0.1957
    105  OH        29.4630  -22.4270   -6.2120 O.3   117  TYR117     -0.2866
@<TRIPOS>BOND
     1    12    11    2
     2    11    10    1
     3    13    10    1
     4    13    14    1
     5    10     9    1
     6     7     8    2
     7     7     6    1
     8    15    14    2
     9    14    16   am
    10     6     5    1
    11     5     3   am
    12    70    69    1
    13     3     4    2
    14     3     2    1
    15    69    68   ar
    16    69    67   ar
    17    68    66   ar
    18   102   100   ar
    19   102   104   ar
    20    67    65   ar
    21   100    99   ar
    22    77    78    1
    23    77    76    1
    24    78    79    1
    25     2     1    1
    26    57    56    1
    27    57    58    1
    28   104   105    1
    29   104   103   ar
    30    99    98    1
    31    99   101   ar
    32    98    95    1
    33    66    64   ar
    34    65    64   ar
    35    17    18    1
    36    74    73    2
    37    56    55    1
    38    64    63    1
    39   103   101   ar
    40    75    76    1
    41    75    72    1
    42    22    21    1
    43    63    60    1
    44    94    95    1
    45    94    82   am
    46    95    96    1
    47    73    72    1
    48    73    80   am
    49    18    21    1
    50    18    19    1
    51    72    71    1
    52    55    52    1
    53    88    86   ar
    54    88    89   ar
    55    81    82    1
    56    81    80    1
    57    81    84    1
    58    21    23    1
    59    86    85   ar
    60    82    83    2
    61    52    51    1
    62    52    53    1
    63    89    91   ar
    64    89    87   ar
    65    91    93   ar
    66    19    20    2
    67    85    87   ar
    68    85    84    1
    69    62    61    2
    70    96    97    2
    71    60    61    1
    72    60    59    1
    73    87    90   ar
    74    93    92   ar
    75    34    33   ar
    76    34    32   ar
    77    90    92   ar
    78    54    53    2
    79    33    31   ar
    80    32    30   ar
    81    38    37    2
    82    45    44    1
    83    45    46    2
    84    44    47    1
    85    44    43    1
    86    49    47    1
    87    47    48    1
    88    31    29   ar
    89    37    43   am
    90    37    36    1
    91    30    29   ar
    92    48    50    1
    93    29    28    1
    94    41    39    1
    95    39    36    1
    96    39    40    1
    97    36    35    1
    98    35    26   am
    99    42    40    1
   100    28    25    1
   101    26    25    1
   102    26    27    2
   103    25    24    1
