@<TRIPOS>MOLECULE
tmp/3hfkB01.pdb
 96 92 0 0 0
SMALL
GASTEIGER

@<TRIPOS>ATOM
      1  N        -18.0480   15.1030   23.0590 N.3    13  ILE13      -0.1245
      2  CA       -17.1020   16.1660   22.7920 C.3    13  ILE13       0.1561
      3  C        -17.0890   16.4220   21.2830 C.2    13  ILE13       0.2260
      4  O        -16.8880   15.4920   20.5140 O.2    13  ILE13      -0.2867
      5  CB       -15.7000   15.7640   23.2810 C.3    13  ILE13       0.0252
      6  CG1      -15.7940   15.0200   24.6290 C.3    13  ILE13       0.0019
      7  CG2      -14.8000   16.9710   23.4070 C.3    13  ILE13       0.0019
      8  CD1      -16.4380   15.8160   25.7090 C.3    13  ILE13       0.0001
      9  N        -15.3540   18.6330   18.0920 N.3    15  TYR15      -0.1241
     10  CA       -14.0770   19.2280   17.8270 C.3    15  TYR15       0.1605
     11  C        -14.0790   19.9380   16.4880 C.2    15  TYR15       0.2264
     12  O        -14.5120   19.3700   15.4950 O.2    15  TYR15      -0.2867
     13  CB       -12.9950   18.1410   17.7540 C.3    15  TYR15       0.0534
     14  CG       -12.9030   17.1750   18.8980 C.ar   15  TYR15      -0.0201
     15  CD1      -11.9050   17.3220   19.8880 C.ar   15  TYR15      -0.0009
     16  CD2      -13.7610   16.0400   18.9630 C.ar   15  TYR15      -0.0009
     17  CE1      -11.7870   16.3600   20.9470 C.ar   15  TYR15       0.0417
     18  CE2      -13.6320   15.0810   20.0050 C.ar   15  TYR15       0.0417
     19  CZ       -12.6510   15.2630   20.9790 C.ar   15  TYR15       0.1957
     20  OH       -12.5770   14.3250   21.9880 O.3    15  TYR15      -0.2866
     21  N        -15.1020    7.0210   29.6580 N.3    84  TYR84      -0.1241
     22  CA       -14.2300    8.1300   29.2880 C.3    84  TYR84       0.1605
     23  C        -12.8280    8.0080   29.9060 C.2    84  TYR84       0.2264
     24  O        -11.8010    8.3380   29.2610 O.2    84  TYR84      -0.2867
     25  CB       -14.8270    9.4820   29.7060 C.3    84  TYR84       0.0534
     26  CG       -13.9680   10.6770   29.2870 C.ar   84  TYR84      -0.0201
     27  CD1      -13.8520   11.0450   27.9490 C.ar   84  TYR84      -0.0009
     28  CD2      -13.2650   11.4210   30.2250 C.ar   84  TYR84      -0.0009
     29  CE1      -13.0620   12.1530   27.5670 C.ar   84  TYR84       0.0417
     30  CE2      -12.4730   12.5190   29.8510 C.ar   84  TYR84       0.0417
     31  CZ       -12.3880   12.8730   28.5290 C.ar   84  TYR84       0.1957
     32  OH       -11.6110   13.9560   28.1710 O.3    84  TYR84      -0.2866
     33  N        -10.9220    5.2300   28.0340 N.3    87  TYR87      -0.1227
     34  CA       -10.3650    5.9600   26.8790 C.3    87  TYR87       0.1736
     35  C         -9.1680    6.8460   27.2310 C.2    87  TYR87       0.2595
     36  O         -8.1190    6.7580   26.6050 O.2    87  TYR87      -0.2718
     37  CB       -11.4800    6.8150   26.2590 C.3    87  TYR87       0.0548
     38  CG       -11.0530    7.8340   25.2280 C.ar   87  TYR87      -0.0200
     39  CD1      -10.7140    7.4460   23.9260 C.ar   87  TYR87      -0.0009
     40  CD2      -11.0450    9.1840   25.5380 C.ar   87  TYR87      -0.0009
     41  CE1      -10.3460    8.3900   22.9660 C.ar   87  TYR87       0.0417
     42  CE2      -10.7110   10.1350   24.5900 C.ar   87  TYR87       0.0417
     43  CZ       -10.3540    9.7210   23.3020 C.ar   87  TYR87       0.1957
     44  OH       -10.0020   10.6740   22.3650 O.3    87  TYR87      -0.2866
     45  N         -9.3190    7.6990   28.2320 N.am   88  MET88      -0.1979
     46  CA        -8.2580    8.6420   28.5910 C.3    88  MET88       0.1605
     47  C         -6.9600    7.9700   28.9910 C.2    88  MET88       0.2287
     48  O         -5.9030    8.5130   28.7280 O.2    88  MET88      -0.2864
     49  CB        -8.7020    9.5910   29.6930 C.3    88  MET88       0.0413
     50  CG        -9.6390   10.7050   29.2300 C.3    88  MET88       0.0598
     51  SD        -9.0790   11.6840   27.8040 S.3    88  MET88      -0.1393
     52  CE        -7.5660   12.3680   28.4910 C.3    88  MET88       0.0692
     53  N         -5.5690    5.1360   22.4230 N.3    93  ARG93      -0.1245
     54  CA        -5.8870    6.5500   22.2830 C.3    93  ARG93       0.1563
     55  C         -4.6240    7.3590   21.9940 C.2    93  ARG93       0.2260
     56  O         -4.6280    8.1930   21.1130 O.2    93  ARG93      -0.2867
     57  CB        -6.6250    7.0910   23.5040 C.3    93  ARG93       0.0307
     58  CG        -6.7620    8.6090   23.4790 C.3    93  ARG93       0.0489
     59  CD        -7.1480    9.1560   24.8120 C.3    93  ARG93       0.2205
     60  NE        -7.1340   10.6250   24.8930 N.pl3  93  ARG93      -0.0865
     61  CZ        -6.0490   11.3500   25.1570 C.cat  93  ARG93       0.5346
     62  NH1       -4.8830   10.7420   25.3360 N.pl3  93  ARG93       0.1354
     63  NH2       -6.1230   12.6820   25.2350 N.pl3  93  ARG93       0.1354
     64  N         -3.9550    9.6110   18.7640 N.3    97  PHE97      -0.1241
     65  CA        -3.4650   11.0100   18.8050 C.3    97  PHE97       0.1605
     66  C         -2.1610   11.2130   18.0740 C.2    97  PHE97       0.2264
     67  O         -1.8980   12.3100   17.5980 O.2    97  PHE97      -0.2867
     68  CB        -3.3320   11.5790   20.2350 C.3    97  PHE97       0.0534
     69  CG        -4.5380   12.3730   20.6770 C.ar   97  PHE97      -0.0203
     70  CD1       -4.7110   13.7000   20.2600 C.ar   97  PHE97      -0.0042
     71  CD2       -5.5100   11.7890   21.4870 C.ar   97  PHE97      -0.0042
     72  CE1       -5.8270   14.4330   20.6630 C.ar   97  PHE97      -0.0003
     73  CE2       -6.6150   12.4970   21.9060 C.ar   97  PHE97      -0.0003
     74  CZ        -6.7890   13.8190   21.4940 C.ar   97  PHE97      -0.0000
     75  N         -6.6950   22.3670   16.9750 N.3   107  LEU107     -0.1245
     76  CA        -7.8610   21.6440   17.5230 C.3   107  LEU107      0.1561
     77  C         -8.6120   22.4730   18.5650 C.2   107  LEU107      0.2260
     78  O         -8.0030   22.9640   19.5460 O.2   107  LEU107     -0.2867
     79  CB        -7.3900   20.3480   18.1790 C.3   107  LEU107      0.0270
     80  CG        -8.4930   19.3620   18.6410 C.3   107  LEU107      0.0019
     81  CD1       -9.2610   18.7810   17.4300 C.3   107  LEU107      0.0001
     82  CD2       -7.8390   18.2080   19.3570 C.3   107  LEU107      0.0001
     83  N        -11.6740   21.7880   21.1750 N.3   109  PRO109     -0.2116
     84  CA       -12.6970   20.8850   21.7590 C.3   109  PRO109      0.1372
     85  C        -13.8320   21.6220   22.4730 C.2   109  PRO109      0.2244
     86  O        -13.5670   22.5700   23.2310 O.2   109  PRO109     -0.2868
     87  CB       -11.9130   20.1270   22.8450 C.3   109  PRO109      0.0268
     88  CG       -10.4150   20.3820   22.4640 C.3   109  PRO109      0.0207
     89  CD       -10.4360   21.7880   21.9850 C.3   109  PRO109      0.0892
     90  N        -16.7850   20.4540   25.1150 N.3   111  VAL111     -0.1245
     91  CA       -17.5350   19.4430   25.8510 C.3   111  VAL111      0.1561
     92  C        -18.9800   19.9570   25.8820 C.2   111  VAL111      0.2260
     93  O        -19.2350   21.0680   26.3990 O.2   111  VAL111     -0.2867
     94  CB       -16.9970   19.3090   27.3000 C.3   111  VAL111      0.0252
     95  CG1      -17.8390   18.3120   28.0730 C.3   111  VAL111      0.0019
     96  CG2      -15.4390   18.9890   27.3210 C.3   111  VAL111      0.0019
@<TRIPOS>BOND
     1    12    11    2
     2    11    10    1
     3    75    76    1
     4    81    80    1
     5    76    79    1
     6    76    77    1
     7    67    66    2
     8    13    10    1
     9    13    14    1
    10    10     9    1
    11    66    65    1
    12    79    80    1
    13    77    78    2
    14    80    82    1
    15    64    65    1
    16    65    68    1
    17    14    16   ar
    18    14    15   ar
    19    16    18   ar
    20    15    17   ar
    21    18    19   ar
    22    68    69    1
    23    70    72   ar
    24    70    69   ar
    25     4     3    2
    26    72    74   ar
    27    69    71   ar
    28    17    19   ar
    29    19    20    1
    30    56    55    2
    31    83    84    1
    32    83    89    1
    33     3     2    1
    34    71    73   ar
    35    74    73   ar
    36    84    85    1
    37    84    87    1
    38    89    88    1
    39    55    54    1
    40    54    53    1
    41    54    57    1
    42    44    43    1
    43    88    87    1
    44    85    86    2
    45     2     1    1
    46     2     5    1
    47    41    43   ar
    48    41    39   ar
    49     5     7    1
    50     5     6    1
    51    43    42   ar
    52    58    57    1
    53    58    59    1
    54    39    38   ar
    55    42    40   ar
    56     6     8    1
    57    59    60    1
    58    60    61    2
    59    90    91    1
    60    61    63    1
    61    61    62    1
    62    38    40   ar
    63    38    37    1
    64    91    92    1
    65    91    94    1
    66    92    93    2
    67    37    34    1
    68    36    35    2
    69    34    35    1
    70    34    33    1
    71    35    45   am
    72    94    96    1
    73    94    95    1
    74    29    27   ar
    75    29    31   ar
    76    51    52    1
    77    51    50    1
    78    27    26   ar
    79    32    31    1
    80    45    46    1
    81    31    30   ar
    82    46    47    1
    83    46    49    1
    84    48    47    2
    85    50    49    1
    86    24    23    2
    87    26    25    1
    88    26    28   ar
    89    22    21    1
    90    22    25    1
    91    22    23    1
    92    30    28   ar
