@<TRIPOS>MOLECULE
tmp/3hfkB00.pdb
 109 105 0 0 0
SMALL
GASTEIGER

@<TRIPOS>ATOM
      1  N        -15.3540   18.6330   18.0920 N.3    15  TYR15      -0.1241
      2  CA       -14.0770   19.2280   17.8270 C.3    15  TYR15       0.1605
      3  C        -14.0790   19.9380   16.4880 C.2    15  TYR15       0.2264
      4  O        -14.5120   19.3700   15.4950 O.2    15  TYR15      -0.2867
      5  CB       -12.9950   18.1410   17.7540 C.3    15  TYR15       0.0534
      6  CG       -12.9030   17.1750   18.8980 C.ar   15  TYR15      -0.0201
      7  CD1      -11.9050   17.3220   19.8880 C.ar   15  TYR15      -0.0009
      8  CD2      -13.7610   16.0400   18.9630 C.ar   15  TYR15      -0.0009
      9  CE1      -11.7870   16.3600   20.9470 C.ar   15  TYR15       0.0417
     10  CE2      -13.6320   15.0810   20.0050 C.ar   15  TYR15       0.0417
     11  CZ       -12.6510   15.2630   20.9790 C.ar   15  TYR15       0.1957
     12  OH       -12.5770   14.3250   21.9880 O.3    15  TYR15      -0.2866
     13  N        -11.4390   20.9920   13.6150 N.3    17  LEU17      -0.1245
     14  CA       -10.0900   20.6200   13.1160 C.3    17  LEU17       0.1561
     15  C         -9.6380   21.5720   12.0090 C.2    17  LEU17       0.2260
     16  O        -10.4040   21.8710   11.0510 O.2    17  LEU17      -0.2867
     17  CB       -10.0690   19.1840   12.5230 C.3    17  LEU17       0.0270
     18  CG       -10.8110   17.9360   13.0990 C.3    17  LEU17       0.0019
     19  CD1      -10.1020   16.5810   12.7370 C.3    17  LEU17       0.0001
     20  CD2      -11.1390   18.0180   14.5550 C.3    17  LEU17       0.0001
     21  N         -8.2390    8.3610   10.0390 N.3    35  HIS35      -0.1241
     22  CA        -8.5370    8.5880   11.4530 C.3    35  HIS35       0.1621
     23  C         -9.8310    7.8920   11.8950 C.2    35  HIS35       0.2264
     24  O         -9.9120    7.3200   13.0110 O.2    35  HIS35      -0.2867
     25  CB        -8.5970   10.0920   11.7420 C.3    35  HIS35       0.0745
     26  CG        -8.2090   10.4490   13.1400 C.ar   35  HIS35       0.0817
     27  ND1       -6.9830   10.1130   13.6760 N.ar   35  HIS35      -0.2268
     28  CD2       -8.8800   11.1080   14.1090 C.ar   35  HIS35       0.1154
     29  CE1       -6.9170   10.5640   14.9170 C.ar   35  HIS35       0.1986
     30  NE2       -8.0600   11.1750   15.1990 N.ar   35  HIS35      -0.2212
     31  N        -17.5600    7.5560   17.0440 N.3    48  TYR48      -0.1241
     32  CA       -16.7580    8.6740   16.5650 C.3    48  TYR48       0.1605
     33  C        -17.3020    9.0820   15.2330 C.2    48  TYR48       0.2264
     34  O        -17.7400    8.2040   14.4840 O.2    48  TYR48      -0.2867
     35  CB       -15.3000    8.2430   16.4000 C.3    48  TYR48       0.0534
     36  CG       -14.4420    9.2880   15.7250 C.ar   48  TYR48      -0.0201
     37  CD1      -14.1350   10.4900   16.3700 C.ar   48  TYR48      -0.0009
     38  CD2      -13.9240    9.0810   14.4130 C.ar   48  TYR48      -0.0009
     39  CE1      -13.3370   11.4360   15.7820 C.ar   48  TYR48       0.0417
     40  CE2      -13.1160   10.0600   13.8110 C.ar   48  TYR48       0.0417
     41  CZ       -12.8300   11.2210   14.4880 C.ar   48  TYR48       0.1957
     42  OH       -12.0410   12.1600   13.8750 O.3    48  TYR48      -0.2866
     43  N        -15.0220   16.8540   14.1120 N.3    74  GLY74      -0.1225
     44  CA       -14.9800   15.5100   14.7160 C.3    74  GLY74       0.1811
     45  C        -15.8980   15.4880   15.9540 C.2    74  GLY74       0.2280
     46  O        -16.2490   16.5390   16.5080 O.2    74  GLY74      -0.2866
     47  N        -16.9210   12.7490   19.4860 N.3    76  CYS76      -0.1235
     48  CA       -16.7820   11.4760   20.2430 C.3    76  CYS76       0.1677
     49  C        -17.9060   11.3820   21.2590 C.2    76  CYS76       0.2270
     50  O        -18.2480   12.3640   21.8960 O.2    76  CYS76      -0.2867
     51  CB       -15.4740   11.4800   21.0530 C.3    76  CYS76       0.0956
     52  SG       -14.0140   11.3820   20.0170 S.3    76  CYS76      -0.0801
     53  N        -10.9220    5.2300   28.0340 N.3    87  TYR87      -0.1241
     54  CA       -10.3650    5.9600   26.8790 C.3    87  TYR87       0.1605
     55  C         -9.1680    6.8460   27.2310 C.2    87  TYR87       0.2264
     56  O         -8.1190    6.7580   26.6050 O.2    87  TYR87      -0.2867
     57  CB       -11.4800    6.8150   26.2590 C.3    87  TYR87       0.0534
     58  CG       -11.0530    7.8340   25.2280 C.ar   87  TYR87      -0.0201
     59  CD1      -10.7140    7.4460   23.9260 C.ar   87  TYR87      -0.0009
     60  CD2      -11.0450    9.1840   25.5380 C.ar   87  TYR87      -0.0009
     61  CE1      -10.3460    8.3900   22.9660 C.ar   87  TYR87       0.0417
     62  CE2      -10.7110   10.1350   24.5900 C.ar   87  TYR87       0.0417
     63  CZ       -10.3540    9.7210   23.3020 C.ar   87  TYR87       0.1957
     64  OH       -10.0020   10.6740   22.3650 O.3    87  TYR87      -0.2866
     65  N         -3.7730    6.7490   18.5160 N.3    96  TRP96      -0.1227
     66  CA        -4.7180    7.5660   17.6960 C.3    96  TRP96       0.1737
     67  C         -4.3060    9.0300   17.6150 C.2    96  TRP96       0.2595
     68  O         -4.2960    9.6460   16.5220 O.2    96  TRP96      -0.2718
     69  CB        -6.1000    7.4600   18.3170 C.3    96  TRP96       0.0564
     70  CG        -7.2820    7.7690   17.4280 C.ar   96  TRP96       0.0003
     71  CD1       -7.3880    7.5800   16.0660 C.ar   96  TRP96       0.0946
     72  CD2       -8.5550    8.2700   17.8640 C.ar   96  TRP96       0.0152
     73  NE1       -8.6440    7.9550   15.6350 N.ar   96  TRP96      -0.2442
     74  CE2       -9.3780    8.3830   16.7140 C.ar   96  TRP96       0.0810
     75  CE3       -9.0700    8.6740   19.1120 C.ar   96  TRP96       0.0012
     76  CZ2      -10.6880    8.8590   16.7750 C.ar   96  TRP96       0.0191
     77  CZ3      -10.3770    9.1270   19.1730 C.ar   96  TRP96       0.0001
     78  CH2      -11.1790    9.2090   18.0010 C.ar   96  TRP96       0.0015
     79  N         -3.9550    9.6110   18.7640 N.am   97  PHE97      -0.1976
     80  CA        -3.4650   11.0100   18.8050 C.3    97  PHE97       0.1639
     81  C         -2.1610   11.2130   18.0740 C.2    97  PHE97       0.2290
     82  O         -1.8980   12.3100   17.5980 O.2    97  PHE97      -0.2864
     83  CB        -3.3320   11.5790   20.2350 C.3    97  PHE97       0.0560
     84  CG        -4.5380   12.3730   20.6770 C.ar   97  PHE97      -0.0200
     85  CD1       -4.7110   13.7000   20.2600 C.ar   97  PHE97      -0.0042
     86  CD2       -5.5100   11.7890   21.4870 C.ar   97  PHE97      -0.0042
     87  CE1       -5.8270   14.4330   20.6630 C.ar   97  PHE97      -0.0003
     88  CE2       -6.6150   12.4970   21.9060 C.ar   97  PHE97      -0.0003
     89  CZ        -6.7890   13.8190   21.4940 C.ar   97  PHE97      -0.0000
     90  N         -3.3480   11.9140   14.7970 N.3   100  GLY100     -0.1225
     91  CA        -3.8080   13.2970   14.8890 C.3   100  GLY100      0.1811
     92  C         -2.7210   14.3580   14.7620 C.2   100  GLY100      0.2280
     93  O         -2.9370   15.4060   14.1630 O.2   100  GLY100     -0.2866
     94  N         -3.8280   16.9000   11.9540 N.3   104  ILE104     -0.1245
     95  CA        -4.5530   17.9990   12.5910 C.3   104  ILE104      0.1561
     96  C         -3.5760   19.0810   13.0670 C.2   104  ILE104      0.2260
     97  O         -2.8450   18.9030   14.0800 O.2   104  ILE104     -0.2867
     98  CB        -5.4040   17.5470   13.8430 C.3   104  ILE104      0.0252
     99  CG1       -6.2400   16.2810   13.5330 C.3   104  ILE104      0.0019
    100  CG2       -6.2470   18.7320   14.3450 C.3   104  ILE104      0.0019
    101  CD1       -6.9950   15.6720   14.7610 C.3   104  ILE104      0.0001
    102  N         -6.6950   22.3670   16.9750 N.3   107  LEU107     -0.1245
    103  CA        -7.8610   21.6440   17.5230 C.3   107  LEU107      0.1561
    104  C         -8.6120   22.4730   18.5650 C.2   107  LEU107      0.2260
    105  O         -8.0030   22.9640   19.5460 O.2   107  LEU107     -0.2867
    106  CB        -7.3900   20.3480   18.1790 C.3   107  LEU107      0.0270
    107  CG        -8.4930   19.3620   18.6410 C.3   107  LEU107      0.0019
    108  CD1       -9.2610   18.7810   17.4300 C.3   107  LEU107      0.0001
    109  CD2       -7.8390   18.2080   19.3570 C.3   107  LEU107      0.0001
@<TRIPOS>BOND
     1    21    22    1
     2    16    15    2
     3    22    25    1
     4    22    23    1
     5    25    26    1
     6    23    24    2
     7    94    95    1
     8    15    14    1
     9    17    18    1
    10    17    14    1
    11    95    96    1
    12    95    98    1
    13    19    18    1
    14    96    97    2
    15    18    20    1
    16    14    13    1
    17    26    27   ar
    18    26    28   ar
    19    99    98    1
    20    99   101    1
    21    27    29   ar
    22    40    38   ar
    23    40    41   ar
    24    98   100    1
    25    42    41    1
    26    28    30   ar
    27    43    44    1
    28    93    92    2
    29    38    36   ar
    30    34    33    2
    31    41    39   ar
    32    44    45    1
    33    92    91    1
    34    90    91    1
    35    29    30   ar
    36    33    32    1
    37     4     3    2
    38    73    71   ar
    39    73    74   ar
    40    36    37   ar
    41    36    35    1
    42    39    37   ar
    43    45    46    2
    44    71    70   ar
    45    35    32    1
    46     3     2    1
    47    68    67    2
    48    32    31    1
    49    74    76   ar
    50    74    72   ar
    51    76    78   ar
    52   102   103    1
    53    70    72   ar
    54    70    69    1
    55   108   107    1
    56   103   106    1
    57   103   104    1
    58    82    81    2
    59    67    66    1
    60    67    79   am
    61    66    69    1
    62    66    65    1
    63     5     2    1
    64     5     6    1
    65     2     1    1
    66    72    75   ar
    67    78    77   ar
    68    81    80    1
    69   106   107    1
    70   104   105    2
    71   107   109    1
    72    79    80    1
    73    80    83    1
    74     6     8   ar
    75     6     7   ar
    76     8    10   ar
    77    75    77   ar
    78    47    48    1
    79     7     9   ar
    80    10    11   ar
    81    52    51    1
    82    83    84    1
    83    48    51    1
    84    48    49    1
    85    85    87   ar
    86    85    84   ar
    87    87    89   ar
    88    84    86   ar
    89     9    11   ar
    90    11    12    1
    91    49    50    2
    92    86    88   ar
    93    89    88   ar
    94    64    63    1
    95    61    63   ar
    96    61    59   ar
    97    63    62   ar
    98    59    58   ar
    99    62    60   ar
   100    58    60   ar
   101    58    57    1
   102    57    54    1
   103    56    55    2
   104    54    55    1
   105    54    53    1
