@<TRIPOS>MOLECULE
tmp/3hfpA00.pdb
 134 132 0 0 0
SMALL
GASTEIGER

@<TRIPOS>ATOM
      1  N          8.2590   -0.3790   10.6110 N.3     2  TRP2       -0.1241
      2  CA         7.5020   -1.3390   11.4280 C.3     2  TRP2        0.1605
      3  C          6.5550   -2.2300   10.6190 C.2     2  TRP2        0.2264
      4  O          5.9810   -1.8020    9.6130 O.2     2  TRP2       -0.2867
      5  CB         6.7320   -0.6180   12.5460 C.3     2  TRP2        0.0550
      6  CG         5.4950    0.1410   12.1120 C.ar    2  TRP2        0.0003
      7  CD1        5.4270    1.4520   11.7220 C.ar    2  TRP2        0.0946
      8  CD2        4.1490   -0.3630   12.0550 C.ar    2  TRP2        0.0152
      9  NE1        4.1320    1.7870   11.4180 N.ar    2  TRP2       -0.2442
     10  CE2        3.3270    0.6940   11.6110 C.ar    2  TRP2        0.0810
     11  CE3        3.5610   -1.6070   12.3330 C.ar    2  TRP2        0.0012
     12  CZ2        1.9470    0.5520   11.4420 C.ar    2  TRP2        0.0191
     13  CZ3        2.1850   -1.7540   12.1540 C.ar    2  TRP2        0.0001
     14  CH2        1.3940   -0.6730   11.7230 C.ar    2  TRP2        0.0015
     15  N         -0.5740   -2.2730    6.1580 N.3    61  HIS61      -0.1241
     16  CA        -0.6680   -3.0890    7.3840 C.3    61  HIS61       0.1621
     17  C         -2.0840   -3.5790    7.6720 C.2    61  HIS61       0.2264
     18  O         -2.2590   -4.6090    8.3220 O.2    61  HIS61      -0.2867
     19  CB        -0.0510   -2.4090    8.6210 C.3    61  HIS61       0.0745
     20  CG        -0.6220   -1.0610    8.9320 C.ar   61  HIS61       0.0817
     21  ND1       -0.0500    0.1090    8.4850 N.ar   61  HIS61      -0.2268
     22  CD2       -1.7020   -0.6970    9.6610 C.ar   61  HIS61       0.1154
     23  CE1       -0.7610    1.1370    8.9130 C.ar   61  HIS61       0.1986
     24  NE2       -1.7700    0.6750    9.6290 N.ar   61  HIS61      -0.2212
     25  N        -13.7130    8.4310   12.8220 N.3    88  ILE88      -0.1231
     26  CA       -12.8130    8.8280   11.7280 C.3    88  ILE88       0.1692
     27  C        -12.5510    7.6680   10.7510 C.2    88  ILE88       0.2591
     28  O        -12.6380    7.8480    9.5430 O.2    88  ILE88      -0.2718
     29  CB       -11.4960    9.5500   12.2320 C.3    88  ILE88       0.0266
     30  CG1      -10.5840    9.9270   11.0580 C.3    88  ILE88       0.0019
     31  CG2      -10.7380    8.7270   13.3050 C.3    88  ILE88       0.0020
     32  CD1       -9.3450   10.7190   11.4780 C.3    88  ILE88       0.0001
     33  N        -12.2590    6.4850   11.2940 N.am   89  GLN89      -0.1979
     34  CA       -12.0740    5.2690   10.4970 C.3    89  GLN89       0.1601
     35  C        -12.3930    3.9970   11.2730 C.2    89  GLN89       0.2287
     36  O        -12.4950    4.0030   12.5120 O.2    89  GLN89      -0.2864
     37  CB       -10.6520    5.1830    9.8820 C.3    89  GLN89       0.0394
     38  CG        -9.4970    5.3260   10.8740 C.3    89  GLN89       0.0908
     39  CD        -8.8750    4.0130   11.3420 C.2    89  GLN89       0.2608
     40  OE1       -9.5440    3.0190   11.5590 O.2    89  GLN89      -0.2717
     41  NE2       -7.5820    4.0260   11.5070 N.am   89  GLN89      -0.0878
     42  N        -11.1030   -0.3780   10.9670 N.3    91  HIS91      -0.1241
     43  CA       -10.2430   -1.3970   10.3770 C.3    91  HIS91       0.1621
     44  C        -10.2300   -2.6380   11.2540 C.2    91  HIS91       0.2264
     45  O        -10.7030   -2.6100   12.3960 O.2    91  HIS91      -0.2867
     46  CB        -8.8120   -0.8840   10.2720 C.3    91  HIS91       0.0745
     47  CG        -8.2030   -0.5780   11.5970 C.ar   91  HIS91       0.0817
     48  ND1       -8.2860    0.6660   12.1760 N.ar   91  HIS91      -0.2268
     49  CD2       -7.5350   -1.3630   12.4740 C.ar   91  HIS91       0.1154
     50  CE1       -7.6920    0.6390   13.3530 C.ar   91  HIS91       0.1986
     51  NE2       -7.2210   -0.5770   13.5570 N.ar   91  HIS91      -0.2212
     52  N        -11.7970   -2.5740   14.8290 N.3   116  HIS116     -0.1241
     53  CA       -11.6110   -1.3240   15.5630 C.3   116  HIS116      0.1621
     54  C        -12.2860   -0.1350   14.8940 C.2   116  HIS116      0.2264
     55  O        -11.9590    0.2440   13.7620 O.2   116  HIS116     -0.2867
     56  CB       -10.1260   -1.0280   15.8250 C.3   116  HIS116      0.0745
     57  CG        -9.4580   -2.0340   16.7180 C.ar  116  HIS116      0.0817
     58  ND1       -8.0920   -2.2350   16.7320 N.ar  116  HIS116     -0.2268
     59  CD2       -9.9750   -2.9250   17.6000 C.ar  116  HIS116      0.1154
     60  CE1       -7.8020   -3.1970   17.5890 C.ar  116  HIS116      0.1986
     61  NE2       -8.9250   -3.6270   18.1280 N.ar  116  HIS116     -0.2212
     62  N        -12.5810    3.6480   15.3190 N.3   118  VAL118     -0.1245
     63  CA       -11.7360    4.6430   15.9630 C.3   118  VAL118      0.1561
     64  C        -12.4440    6.0120   15.9870 C.2   118  VAL118      0.2260
     65  O        -12.9330    6.4830   14.9560 O.2   118  VAL118     -0.2867
     66  CB       -10.3430    4.7220   15.2620 C.3   118  VAL118      0.0252
     67  CG1       -9.3620    5.6320   16.0530 C.3   118  VAL118      0.0019
     68  CG2       -9.7440    3.3210   15.0450 C.3   118  VAL118      0.0019
     69  N         -8.1150   15.1450   14.7990 N.3   127  PHE127     -0.1227
     70  CA        -7.5970   13.8250   15.2110 C.3   127  PHE127      0.1736
     71  C         -6.1790   13.9730   15.7340 C.2   127  PHE127      0.2596
     72  O         -5.8330   13.4050   16.7810 O.2   127  PHE127     -0.2718
     73  CB        -7.6590   12.8100   14.0650 C.3   127  PHE127      0.0547
     74  CG        -7.0610   11.4640   14.4040 C.ar  127  PHE127     -0.0202
     75  CD1       -5.7390   11.1750   14.0780 C.ar  127  PHE127     -0.0042
     76  CD2       -7.8260   10.4850   15.0450 C.ar  127  PHE127     -0.0042
     77  CE1       -5.1760    9.9370   14.3800 C.ar  127  PHE127     -0.0003
     78  CE2       -7.2910    9.2380   15.3430 C.ar  127  PHE127     -0.0003
     79  CZ        -5.9540    8.9620   15.0240 C.ar  127  PHE127     -0.0000
     80  N         -5.3770   14.7480   15.0010 N.am  128  GLY128     -0.1957
     81  CA        -3.9950   15.0430   15.3500 C.3   128  GLY128      0.1869
     82  C         -3.7630   15.6880   16.7040 C.2   128  GLY128      0.2309
     83  O         -2.7480   15.4310   17.3300 O.2   128  GLY128     -0.2863
     84  N         -4.8300   12.8460   19.5630 N.3   131  VAL131     -0.1245
     85  CA        -3.7220   11.8780   19.8090 C.3   131  VAL131      0.1561
     86  C         -2.5650   12.4500   20.6520 C.2   131  VAL131      0.2260
     87  O         -1.5430   11.8060   20.8290 O.2   131  VAL131     -0.2867
     88  CB        -3.1330   11.2310   18.5060 C.3   131  VAL131      0.0252
     89  CG1       -4.2090   10.5380   17.7080 C.3   131  VAL131      0.0019
     90  CG2       -2.3780   12.2480   17.6480 C.3   131  VAL131      0.0019
     91  N         -3.0600    3.2410   21.1840 N.3   194  LEU194     -0.1231
     92  CA        -3.0840    2.6870   19.8350 C.3   194  LEU194      0.1693
     93  C         -2.3220    1.3620   19.8470 C.2   194  LEU194      0.2593
     94  O         -1.3150    1.2280   20.5430 O.2   194  LEU194     -0.2718
     95  CB        -2.4090    3.6390   18.8580 C.3   194  LEU194      0.0284
     96  CG        -2.8460    5.1030   18.8040 C.3   194  LEU194      0.0019
     97  CD1       -1.8240    5.9000   17.9870 C.3   194  LEU194      0.0001
     98  CD2       -4.2570    5.2440   18.2400 C.3   194  LEU194      0.0001
     99  N         -2.7940    0.3780   19.0870 N.am  195  THR195     -0.1939
    100  CA        -2.1210   -0.9100   19.0840 C.3   195  THR195      0.2028
    101  C         -1.0810   -1.0180   17.9670 C.2   195  THR195      0.2643
    102  O         -0.4150   -2.0440   17.8420 O.2   195  THR195     -0.2714
    103  CB        -3.1110   -2.0840   18.9870 C.3   195  THR195      0.1808
    104  OG1       -3.6840   -2.0960   17.6810 O.3   195  THR195     -0.2208
    105  CG2       -4.2100   -1.9880   20.0570 C.3   195  THR195      0.0379
    106  N         -0.9630    0.0300   17.1430 N.am  196  THR196     -0.1937
    107  CA         0.0730    0.0980   16.1100 C.3   196  THR196      0.2013
    108  C          0.9480    1.3150   16.3780 C.2   196  THR196      0.2484
    109  O          0.4920    2.2720   17.0170 O.2   196  THR196     -0.2729
    110  CB        -0.5320    0.1580   14.6910 C.3   196  THR196      0.1807
    111  OG1       -1.3060    1.3570   14.5430 O.3   196  THR196     -0.2208
    112  CG2       -1.4380   -0.9990   14.4710 C.3   196  THR196      0.0379
    113  N          2.2240    1.2870   15.9270 N.am  197  PRO197     -0.2715
    114  CA         2.9880    2.5140   16.0770 C.3   197  PRO197      0.1521
    115  C          2.2680    3.7480   15.5320 C.2   197  PRO197      0.2440
    116  O          1.5320    3.6520   14.5360 O.2   197  PRO197     -0.2731
    117  CB         4.2710    2.2140   15.3130 C.3   197  PRO197      0.0310
    118  CG         4.4570    0.7270   15.5100 C.3   197  PRO197      0.0237
    119  CD         3.0470    0.2090   15.3450 C.3   197  PRO197      0.0939
    120  N          2.4620    4.9110   16.1790 N.am  198  PRO198     -0.2727
    121  CA         3.3480    5.2140   17.3110 C.3   198  PRO198      0.1402
    122  C          2.8800    4.8790   18.7520 C.2   198  PRO198      0.2269
    123  O          3.4750    5.3880   19.7030 O.2   198  PRO198     -0.2865
    124  CB         3.5690    6.7250   17.1550 C.3   198  PRO198      0.0296
    125  CG         2.3220    7.2120   16.5810 C.3   198  PRO198      0.0237
    126  CD         1.7550    6.1210   15.7150 C.3   198  PRO198      0.0939
    127  N          0.4900    5.4870   20.9420 N.3   200  LEU200     -0.1245
    128  CA         0.1460    6.5700   21.8430 C.3   200  LEU200      0.1561
    129  C         -0.9440    6.1810   22.8420 C.2   200  LEU200      0.2260
    130  O         -1.9650    5.5680   22.4930 O.2   200  LEU200     -0.2867
    131  CB        -0.2480    7.8320   21.0430 C.3   200  LEU200      0.0270
    132  CG         0.7770    8.3400   20.0030 C.3   200  LEU200      0.0019
    133  CD1        0.1160    9.1690   18.9120 C.3   200  LEU200      0.0001
    134  CD2        1.9630    9.1100   20.6230 C.3   200  LEU200      0.0001
@<TRIPOS>BOND
     1    15    16    1
     2    16    17    1
     3    16    19    1
     4    17    18    2
     5    21    23   ar
     6    21    20   ar
     7    19    20    1
     8    23    24   ar
     9    20    22   ar
    10    28    27    2
    11     4     3    2
    12    24    22   ar
    13    37    34    1
    14    37    38    1
    15    46    43    1
    16    46    47    1
    17    43    42    1
    18    43    44    1
    19    34    35    1
    20    34    33    1
    21     1     2    1
    22     3     2    1
    23    27    33   am
    24    27    26    1
    25    38    39    1
    26    30    32    1
    27    30    29    1
    28    44    45    2
    29    35    36    2
    30    39    41   am
    31    39    40    2
    32     9    10   ar
    33     9     7   ar
    34     2     5    1
    35    12    10   ar
    36    12    14   ar
    37    47    48   ar
    38    47    49   ar
    39    10     8   ar
    40     7     6   ar
    41    14    13   ar
    42    26    29    1
    43    26    25    1
    44     8     6   ar
    45     8    11   ar
    46     6     5    1
    47    13    11   ar
    48    48    50   ar
    49    29    31    1
    50    49    51   ar
    51    50    51   ar
    52    55    54    2
    53    73    74    1
    54    73    70    1
    55    75    77   ar
    56    75    74   ar
    57    77    79   ar
    58    74    76   ar
    59   112   110    1
    60   116   115    2
    61   111   110    1
    62   110   107    1
    63    69    70    1
    64    52    53    1
    65    54    53    1
    66    65    64    2
    67    80    81    1
    68    80    71   am
    69    79    78   ar
    70    76    78   ar
    71    68    66    1
    72    70    71    1
    73    66    63    1
    74    66    67    1
    75   117   118    1
    76   117   114    1
    77    62    63    1
    78   119   118    1
    79   119   113    1
    80    81    82    1
    81   115   114    1
    82   115   120   am
    83    53    56    1
    84   126   120    1
    85   126   125    1
    86    71    72    2
    87    56    57    1
    88   113   114    1
    89   113   108   am
    90    63    64    1
    91   107   108    1
    92   107   106    1
    93   120   121    1
    94   108   109    2
    95   125   124    1
    96    82    83    2
    97    57    58   ar
    98    57    59   ar
    99    58    60   ar
   100   106   101   am
   101   124   121    1
   102   121   122    1
   103    60    61   ar
   104    59    61   ar
   105    90    88    1
   106   104   103    1
   107    89    88    1
   108   102   101    2
   109   101   100    1
   110    97    96    1
   111    98    96    1
   112    88    85    1
   113   122   123    2
   114    96    95    1
   115    95    92    1
   116   133   132    1
   117   103   100    1
   118   103   105    1
   119   100    99    1
   120    99    93   am
   121    84    85    1
   122    85    86    1
   123    92    93    1
   124    92    91    1
   125    93    94    2
   126   132   134    1
   127   132   131    1
   128    86    87    2
   129   127   128    1
   130   131   128    1
   131   128   129    1
   132   130   129    2
