@<TRIPOS>MOLECULE
tmp/3hfwA00.pdb
 160 154 0 0 0
SMALL
GASTEIGER

@<TRIPOS>ATOM
      1  N         26.2570    5.2080    6.8510 N.3    55  ASP55      -0.1239
      2  CA        26.6280    6.5940    6.5340 C.3    55  ASP55       0.1674
      3  C         27.3280    7.3110    7.6790 C.2    55  ASP55       0.2266
      4  O         28.2230    8.1640    7.4350 O.2    55  ASP55      -0.2867
      5  CB        25.4020    7.3840    6.0490 C.3    55  ASP55       0.1410
      6  CG        24.3120    7.4890    7.0910 C.2    55  ASP55       0.3668
      7  OD1       24.0580    6.4850    7.8120 O.co2  55  ASP55      -0.2456
      8  OD2       23.7600    8.6180    7.2270 O.co2  55  ASP55      -0.2456
      9  N         21.4740    9.6720    5.0130 N.3   100  GLY100     -0.1210
     10  CA        20.4850   10.6890    5.2870 C.3   100  GLY100      0.1956
     11  C         20.3300   11.6340    4.1290 C.2   100  GLY100      0.2612
     12  O         21.2630   11.8340    3.3570 O.2   100  GLY100     -0.2717
     13  N         19.1300   12.2060    4.0150 N.am  101  GLY101     -0.1942
     14  CA        18.7140   12.9880    2.8550 C.3   101  GLY101      0.2014
     15  C         19.4540   14.3040    2.6420 C.2   101  GLY101      0.2639
     16  O         19.9250   14.5810    1.5300 O.2   101  GLY101     -0.2714
     17  N         19.5410   15.1310    3.6780 N.am  102  ALA102     -0.1963
     18  CA        20.3430   16.3720    3.5940 C.3   102  ALA102      0.1728
     19  C         21.8570   16.0680    3.3610 C.2   102  ALA102      0.2616
     20  O         22.5470   16.7350    2.5680 O.2   102  ALA102     -0.2715
     21  CB        20.1710   17.2130    4.8440 C.3   102  ALA102      0.0334
     22  N         22.3260   15.0280    4.0270 N.am  103  SER103     -0.1950
     23  CA        23.7220   14.6210    3.9520 C.3   103  SER103      0.1924
     24  C         24.0940   14.3440    2.5070 C.2   103  SER103      0.2314
     25  O         24.9760   14.9910    1.9610 O.2   103  SER103     -0.2863
     26  CB        23.9550   13.3700    4.8020 C.3   103  SER103      0.2116
     27  OG        23.9430   13.6760    6.1850 O.3   103  SER103     -0.2180
     28  N         14.9650   25.2570    6.1540 N.3   124  SER124     -0.1202
     29  CA        14.0760   24.9110    7.2630 C.3   124  SER124      0.2020
     30  C         14.0320   23.4410    7.6200 C.2   124  SER124      0.2618
     31  O         13.6330   23.1020    8.7480 O.2   124  SER124     -0.2717
     32  CB        12.6300   25.3270    6.9270 C.3   124  SER124      0.2103
     33  OG        12.4990   26.7010    7.0380 O.3   124  SER124     -0.2182
     34  N         14.4450   22.5710    6.6860 N.am  125  HIS125     -0.1975
     35  CA        14.3890   21.1260    6.9000 C.3   125  HIS125      0.1656
     36  C         15.7740   20.4400    7.0010 C.2   125  HIS125      0.2291
     37  O         15.9040   19.2260    6.7790 O.2   125  HIS125     -0.2864
     38  CB        13.4900   20.5590    5.8070 C.3   125  HIS125      0.0771
     39  CG        12.1490   21.2410    5.7850 C.ar  125  HIS125      0.0820
     40  ND1       11.8140   22.2210    4.8720 N.ar  125  HIS125     -0.2267
     41  CD2       11.1160   21.1680    6.6550 C.ar  125  HIS125      0.1154
     42  CE1       10.6010   22.6670    5.1440 C.ar  125  HIS125      0.1986
     43  NE2       10.1600   22.0460    6.2250 N.ar  125  HIS125     -0.2212
     44  N         17.5770   20.0540    9.8130 N.3   127  GLY127     -0.1210
     45  CA        17.7530   19.8170   11.2230 C.3   127  GLY127      0.1956
     46  C         18.1430   18.4060   11.5770 C.2   127  GLY127      0.2612
     47  O         18.2690   18.1030   12.7680 O.2   127  GLY127     -0.2717
     48  N         18.3450   17.5370   10.5770 N.am  128  GLY128     -0.1942
     49  CA        18.7500   16.1370   10.8590 C.3   128  GLY128      0.2014
     50  C         20.0780   15.9520   11.5960 C.2   128  GLY128      0.2639
     51  O         20.8630   16.8930   11.7700 O.2   128  GLY128     -0.2714
     52  N         20.3000   14.7240   12.0640 N.am  129  CYS129     -0.1953
     53  CA        21.5110   14.3300   12.7750 C.3   129  CYS129      0.1843
     54  C         22.7950   14.1270   11.9370 C.2   129  CYS129      0.2626
     55  O         23.8110   13.7760   12.5090 O.2   129  CYS129     -0.2714
     56  CB        21.2700   13.0270   13.5620 C.3   129  CYS129      0.0997
     57  SG        20.9730   11.5650   12.5000 S.3   129  CYS129     -0.0797
     58  N         22.7200   14.2830   10.6180 N.am  130  GLY130     -0.1954
     59  CA        23.8480   13.9970    9.7640 C.3   130  GLY130      0.1869
     60  C         25.0880   14.8330   10.0680 C.2   130  GLY130      0.2309
     61  O         26.1970   14.3600    9.8170 O.2   130  GLY130     -0.2863
     62  N         26.4130   13.3590   13.6510 N.3   133  MET133     -0.1245
     63  CA        26.9570   11.9840   13.6540 C.3   133  MET133      0.1570
     64  C         28.4350   11.9050   13.2320 C.2   133  MET133      0.2261
     65  O         29.0810   10.8710   13.4110 O.2   133  MET133     -0.2867
     66  CB        26.1610   11.1240   12.6840 C.3   133  MET133      0.0387
     67  CG        26.5160   11.3410   11.1950 C.3   133  MET133      0.0595
     68  SD        25.3460   10.5220   10.1060 S.3   133  MET133     -0.1393
     69  CE        25.8320   11.1250    8.4790 C.3   133  MET133      0.0692
     70  N         23.9360   20.7940    6.6690 N.3   163  HIS163     -0.1241
     71  CA        22.8160   21.0680    7.5420 C.3   163  HIS163      0.1621
     72  C         22.7960   22.5220    7.9750 C.2   163  HIS163      0.2264
     73  O         23.2340   22.8340    9.0670 O.2   163  HIS163     -0.2867
     74  CB        22.8960   20.1800    8.7660 C.3   163  HIS163      0.0745
     75  CG        22.6130   18.7410    8.4710 C.ar  163  HIS163      0.0817
     76  ND1       23.4480   17.9710    7.6920 N.ar  163  HIS163     -0.2268
     77  CD2       21.5700   17.9500    8.8000 C.ar  163  HIS163      0.1154
     78  CE1       22.9420   16.7560    7.5800 C.ar  163  HIS163      0.1986
     79  NE2       21.7940   16.7210    8.2260 N.ar  163  HIS163     -0.2212
     80  N         21.0310   24.8070    9.4730 N.3   165  HIS165     -0.1241
     81  CA        19.9210   25.0380   10.3770 C.3   165  HIS165      0.1621
     82  C         20.4840   24.7790   11.7820 C.2   165  HIS165      0.2264
     83  O         21.0970   23.7750   12.0000 O.2   165  HIS165     -0.2867
     84  CB        18.7900   24.0660   10.0720 C.3   165  HIS165      0.0745
     85  CG        17.5700   24.2820   10.9000 C.ar  165  HIS165      0.0817
     86  ND1       17.5950   24.2080   12.2690 N.ar  165  HIS165     -0.2268
     87  CD2       16.2940   24.5730   10.5590 C.ar  165  HIS165      0.1154
     88  CE1       16.3800   24.4540   12.7430 C.ar  165  HIS165      0.1986
     89  NE2       15.5750   24.6890   11.7270 N.ar  165  HIS165     -0.2212
     90  N         19.4750   23.6230   14.5350 N.3   167  THR167     -0.1218
     91  CA        19.2110   22.3360   15.1650 C.3   167  THR167      0.1862
     92  C         20.1990   21.3100   14.5730 C.2   167  THR167      0.2287
     93  O         20.7350   20.4250   15.2790 O.2   167  THR167     -0.2866
     94  CB        17.7380   21.8840   14.9610 C.3   167  THR167      0.1770
     95  OG1       16.8750   22.9180   15.4550 O.3   167  THR167     -0.2211
     96  CG2       17.4680   20.5430   15.6620 C.3   167  THR167      0.0375
     97  N         14.9700   26.4130   19.3600 N.3   222  TYR222     -0.1241
     98  CA        14.5300   25.0010   19.4270 C.3   222  TYR222      0.1605
     99  C         15.6190   24.1350   20.0970 C.2   222  TYR222      0.2264
    100  O         15.3880   23.4880   21.1350 O.2   222  TYR222     -0.2867
    101  CB        14.1570   24.4500   18.0390 C.3   222  TYR222      0.0534
    102  CG        13.7270   23.0170   18.1070 C.ar  222  TYR222     -0.0201
    103  CD1       12.3810   22.6910   18.3150 C.ar  222  TYR222     -0.0009
    104  CD2       14.6400   22.0040   18.0270 C.ar  222  TYR222     -0.0009
    105  CE1       11.9670   21.3720   18.4120 C.ar  222  TYR222      0.0417
    106  CE2       14.2430   20.6730   18.1430 C.ar  222  TYR222      0.0417
    107  CZ        12.8920   20.3770   18.3270 C.ar  222  TYR222      0.1957
    108  OH        12.4920   19.0760   18.4160 O.3   222  TYR222     -0.2866
    109  N         11.9740   15.5360   17.0660 N.3   263  TYR263     -0.1227
    110  CA        11.2860   16.6010   16.2910 C.3   263  TYR263      0.1736
    111  C          9.9470   16.1860   15.6830 C.2   263  TYR263      0.2596
    112  O          8.9480   16.9310   15.7460 O.2   263  TYR263     -0.2718
    113  CB        12.2110   17.0670   15.1760 C.3   263  TYR263      0.0548
    114  CG        11.7040   18.2480   14.4120 C.ar  263  TYR263     -0.0200
    115  CD1       11.2960   18.1260   13.0910 C.ar  263  TYR263     -0.0009
    116  CD2       11.6260   19.4990   15.0190 C.ar  263  TYR263     -0.0009
    117  CE1       10.8200   19.2400   12.3790 C.ar  263  TYR263      0.0417
    118  CE2       11.1720   20.6200   14.3170 C.ar  263  TYR263      0.0417
    119  CZ        10.7630   20.4750   13.0080 C.ar  263  TYR263      0.1957
    120  OH        10.3000   21.5870   12.3480 O.3   263  TYR263     -0.2866
    121  N          9.9300   15.0260   15.0370 N.am  264  SER264     -0.1952
    122  CA         8.7970   14.6240   14.2260 C.3   264  SER264      0.1924
    123  C          8.5020   13.1490   14.3570 C.2   264  SER264      0.2314
    124  O          7.8310   12.5910   13.5050 O.2   264  SER264     -0.2863
    125  CB         9.0800   14.9500   12.7420 C.3   264  SER264      0.2116
    126  OG        10.2280   14.2180   12.2790 O.3   264  SER264     -0.2180
    127  N         10.8700   10.3440   15.1660 N.3   266  TRP266     -0.1241
    128  CA        11.9460    9.3650   15.0680 C.3   266  TRP266      0.1605
    129  C         13.0820    9.8170   15.9590 C.2   266  TRP266      0.2264
    130  O         13.9090   10.6560   15.5980 O.2   266  TRP266     -0.2867
    131  CB        12.3560    9.1990   13.6000 C.3   266  TRP266      0.0550
    132  CG        13.1690    7.9590   13.3050 C.ar  266  TRP266      0.0003
    133  CD1       13.0470    6.7300   13.8790 C.ar  266  TRP266      0.0946
    134  CD2       14.1710    7.8320   12.2930 C.ar  266  TRP266      0.0152
    135  NE1       13.9480    5.8580   13.3150 N.ar  266  TRP266     -0.2442
    136  CE2       14.6550    6.5160   12.3460 C.ar  266  TRP266      0.0810
    137  CE3       14.7260    8.7190   11.3680 C.ar  266  TRP266      0.0012
    138  CZ2       15.6780    6.0580   11.5060 C.ar  266  TRP266      0.0191
    139  CZ3       15.7330    8.2590   10.5240 C.ar  266  TRP266      0.0001
    140  CH2       16.1840    6.9380   10.5940 C.ar  266  TRP266      0.0015
    141  N         16.9770   11.2190   15.4130 N.3   269  SER269     -0.1202
    142  CA        17.2020   11.5530   13.9820 C.3   269  SER269      0.2020
    143  C         17.5210   13.0120   13.7400 C.2   269  SER269      0.2619
    144  O         17.7860   13.3770   12.6050 O.2   269  SER269     -0.2717
    145  CB        16.0070   11.1430   13.1220 C.3   269  SER269      0.2103
    146  OG        14.8500   11.8600   13.4930 O.3   269  SER269     -0.2182
    147  N         17.6180   13.8370   14.7920 N.am  270  SER270     -0.1951
    148  CA        17.9460   15.2800   14.5790 C.3   270  SER270      0.1924
    149  C         19.2570   15.6780   15.2800 C.2   270  SER270      0.2314
    150  O         19.8430   14.9130   16.1030 O.2   270  SER270     -0.2863
    151  CB        16.7920   16.1820   15.0290 C.3   270  SER270      0.2116
    152  OG        15.5400   15.7960   14.4550 O.3   270  SER270     -0.2180
    153  N         16.4810    6.3190   15.7510 N.3   302  ASP302     -0.1239
    154  CA        17.5550    6.3860   14.7700 C.3   302  ASP302      0.1674
    155  C         18.7980    5.8880   15.4720 C.2   302  ASP302      0.2266
    156  O         19.6920    6.6260   15.8640 O.2   302  ASP302     -0.2867
    157  CB        17.6730    7.8180   14.2310 C.3   302  ASP302      0.1410
    158  CG        18.5780    7.9320   13.0300 C.2   302  ASP302      0.3668
    159  OD1       19.2700    6.9560   12.7330 O.co2 302  ASP302     -0.2456
    160  OD2       18.5390    9.0000   12.3570 O.co2 302  ASP302     -0.2456
@<TRIPOS>BOND
     1    16    15    2
     2    25    24    2
     3    24    23    1
     4    20    19    2
     5    15    14    1
     6    15    17   am
     7    14    13    1
     8    12    11    2
     9    19    18    1
    10    19    22   am
    11    18    17    1
    12    18    21    1
    13    23    22    1
    14    23    26    1
    15    13    11   am
    16    11    10    1
    17    26    27    1
    18    40    42   ar
    19    40    39   ar
    20     9    10    1
    21    42    43   ar
    22    39    38    1
    23    39    41   ar
    24    38    35    1
    25     5     2    1
    26     5     6    1
    27    28    29    1
    28    43    41   ar
    29     2     1    1
    30     2     3    1
    31    70    71    1
    32    34    35    1
    33    34    30   am
    34    37    36    2
    35    35    36    1
    36    32    33    1
    37    32    29    1
    38     6     8   ar
    39     6     7   ar
    40    29    30    1
    41     4     3    2
    42    71    72    1
    43    71    74    1
    44    78    76   ar
    45    78    79   ar
    46    30    31    2
    47    76    75   ar
    48    72    73    2
    49    79    77   ar
    50    75    74    1
    51    75    77   ar
    52    69    68    1
    53    80    81    1
    54    59    60    1
    55    59    58    1
    56    44    45    1
    57    61    60    2
    58    84    81    1
    59    84    85    1
    60    68    67    1
    61    81    82    1
    62   139   140   ar
    63   139   137   ar
    64    87    85   ar
    65    87    89   ar
    66    48    49    1
    67    48    46   am
    68   140   138   ar
    69    58    54   am
    70    49    50    1
    71    85    86   ar
    72    67    66    1
    73    45    46    1
    74   137   134   ar
    75   138   136   ar
    76    46    47    2
    77    50    51    2
    78    50    52   am
    79    89    88   ar
    80    82    83    2
    81    54    55    2
    82    54    53    1
    83    52    53    1
    84    86    88   ar
    85   126   125    1
    86   134   136   ar
    87   134   132   ar
    88   136   135   ar
    89   120   119    1
    90   160   158   ar
    91   117   119   ar
    92   117   115   ar
    93    57    56    1
    94   144   143    2
    95    66    63    1
    96   159   158   ar
    97   125   122    1
    98    53    56    1
    99   119   118   ar
   100   158   157    1
   101   115   114   ar
   102   145   146    1
   103   145   142    1
   104    64    65    2
   105    64    63    1
   106   132   131    1
   107   132   133   ar
   108   135   133   ar
   109   124   123    2
   110   131   128    1
   111    62    63    1
   112   143   142    1
   113   143   147   am
   114   142   141    1
   115   122   123    1
   116   122   121    1
   117   157   154    1
   118   118   116   ar
   119   114   116   ar
   120   114   113    1
   121   152   151    1
   122    90    91    1
   123    92    91    1
   124    92    93    2
   125   148   147    1
   126   148   151    1
   127   148   149    1
   128   154   155    1
   129   154   153    1
   130    94    91    1
   131    94    95    1
   132    94    96    1
   133   121   111   am
   134   128   127    1
   135   128   129    1
   136   113   110    1
   137   149   150    2
   138   155   156    2
   139   130   129    2
   140   111   112    2
   141   111   110    1
   142   110   109    1
   143   104   102   ar
   144   104   106   ar
   145   101   102    1
   146   101    98    1
   147   102   103   ar
   148   106   107   ar
   149   103   105   ar
   150   107   105   ar
   151   107   108    1
   152    97    98    1
   153    98    99    1
   154    99   100    2
