@<TRIPOS>MOLECULE
tmp/3hfxA01.pdb
 99 91 0 0 0
SMALL
GASTEIGER

@<TRIPOS>ATOM
      1  N         46.0760   16.6310   32.2130 N.3    87  SER87      -0.1217
      2  CA        44.7900   17.3510   32.2670 C.3    87  SER87       0.1889
      3  C         44.2100   17.7360   30.9020 C.2    87  SER87       0.2288
      4  O         43.0010   17.9410   30.7760 O.2    87  SER87      -0.2866
      5  CB        44.8980   18.5770   33.1750 C.3    87  SER87       0.2089
      6  OG        46.1680   19.1860   33.0400 O.3    87  SER87      -0.2183
      7  N         42.5080   17.4310   27.6410 N.3    89  THR89      -0.1203
      8  CA        41.3690   16.5370   27.4270 C.3    89  THR89       0.1994
      9  C         40.6330   16.8590   26.1360 C.2    89  THR89       0.2618
     10  O         39.6150   16.2370   25.8270 O.2    89  THR89      -0.2717
     11  CB        40.3720   16.5480   28.6500 C.3    89  THR89       0.1784
     12  OG1       39.1610   15.8570   28.3030 O.3    89  THR89      -0.2211
     13  CG2       40.0320   17.9860   29.1250 C.3    89  THR89       0.0376
     14  N         41.1650   17.8270   25.3870 N.am   90  SER90      -0.1951
     15  CA        40.5250   18.3350   24.1690 C.3    90  SER90       0.1924
     16  C         41.1270   17.7380   22.8960 C.2    90  SER90       0.2314
     17  O         42.2910   17.3300   22.8640 O.2    90  SER90      -0.2863
     18  CB        40.5830   19.8640   24.1280 C.3    90  SER90       0.2116
     19  OG        39.7000   20.3780   23.1500 O.3    90  SER90      -0.2180
     20  N         33.1360   26.0710   23.9340 N.3   193  MET193     -0.1245
     21  CA        32.7910   24.6540   24.0350 C.3   193  MET193      0.1570
     22  C         32.1750   24.1900   22.7130 C.2   193  MET193      0.2261
     23  O         32.3790   23.0560   22.2850 O.2   193  MET193     -0.2867
     24  CB        31.8490   24.4120   25.2220 C.3   193  MET193      0.0387
     25  CG        32.5060   24.6600   26.5970 C.3   193  MET193      0.0595
     26  SD        31.4530   24.3320   28.0430 S.3   193  MET193     -0.1393
     27  CE        32.5290   24.8140   29.4080 C.3   193  MET193      0.0692
     28  N         35.3430   23.8580   20.2010 N.3   196  SER196     -0.1217
     29  CA        36.0110   22.5780   20.4330 C.3   196  SER196      0.1889
     30  C         35.2130   21.4890   19.7380 C.2   196  SER196      0.2288
     31  O         35.7400   20.7510   18.9120 O.2   196  SER196     -0.2866
     32  CB        36.1300   22.2780   21.9320 C.3   196  SER196      0.2089
     33  OG        37.2610   22.9240   22.5150 O.3   196  SER196     -0.2183
     34  N         39.3290   30.3960   28.4110 N.3   316  TYR316     -0.1241
     35  CA        39.5180   29.2800   29.3250 C.3   316  TYR316      0.1605
     36  C         40.4600   29.6210   30.4250 C.2   316  TYR316      0.2264
     37  O         41.0910   28.7560   30.9630 O.2   316  TYR316     -0.2867
     38  CB        40.1770   28.1080   28.6300 C.3   316  TYR316      0.0534
     39  CG        39.3780   27.3980   27.5880 C.ar  316  TYR316     -0.0201
     40  CD1       38.2260   26.7360   27.8990 C.ar  316  TYR316     -0.0009
     41  CD2       39.8050   27.3720   26.2900 C.ar  316  TYR316     -0.0009
     42  CE1       37.5210   26.0830   26.9400 C.ar  316  TYR316      0.0417
     43  CE2       39.1090   26.7240   25.3310 C.ar  316  TYR316      0.0417
     44  CZ        37.9700   26.0870   25.6570 C.ar  316  TYR316      0.1957
     45  OH        37.2860   25.4340   24.6780 O.3   316  TYR316     -0.2866
     46  N         38.5500   29.4630   34.2720 N.3   319  GLN319     -0.1231
     47  CA        38.1200   28.0700   34.2460 C.3   319  GLN319      0.1698
     48  C         39.2760   27.1280   34.5630 C.2   319  GLN319      0.2592
     49  O         39.1890   26.3080   35.4770 O.2   319  GLN319     -0.2718
     50  CB        37.5160   27.7210   32.8840 C.3   319  GLN319      0.0381
     51  CG        37.8820   26.3350   32.3800 C.3   319  GLN319      0.0905
     52  CD        36.6760   25.5540   31.8970 C.2   319  GLN319      0.2608
     53  OE1       36.4730   24.4020   32.2820 O.2   319  GLN319     -0.2717
     54  NE2       35.8670   26.1780   31.0480 N.am  319  GLN319     -0.0878
     55  N         40.3590   27.2500   33.8020 N.am  320  MET320     -0.1979
     56  CA        41.5320   26.4070   33.9980 C.3   320  MET320      0.1605
     57  C         42.2220   26.7150   35.3220 C.2   320  MET320      0.2287
     58  O         42.9600   25.8880   35.8560 O.2   320  MET320     -0.2864
     59  CB        42.5170   26.5820   32.8390 C.3   320  MET320      0.0413
     60  CG        42.7510   25.3180   32.0280 C.3   320  MET320      0.0598
     61  SD        43.8000   24.1270   32.8820 S.3   320  MET320     -0.1393
     62  CE        42.6760   22.7430   33.0480 C.3   320  MET320      0.0692
     63  N         40.3910   24.9070   38.3590 N.3   323  PHE323     -0.1241
     64  CA        40.9570   23.5630   38.2640 C.3   323  PHE323      0.1605
     65  C         42.3500   23.4920   38.8800 C.2   323  PHE323      0.2264
     66  O         42.5680   22.7340   39.8280 O.2   323  PHE323     -0.2867
     67  CB        40.9950   23.1030   36.8020 C.3   323  PHE323      0.0534
     68  CG        41.6110   21.7330   36.6020 C.ar  323  PHE323     -0.0203
     69  CD1       40.8210   20.5840   36.6510 C.ar  323  PHE323     -0.0042
     70  CD2       42.9850   21.5940   36.3520 C.ar  323  PHE323     -0.0042
     71  CE1       41.3810   19.3250   36.4540 C.ar  323  PHE323     -0.0003
     72  CE2       43.5570   20.3380   36.1620 C.ar  323  PHE323     -0.0003
     73  CZ        42.7530   19.2020   36.2130 C.ar  323  PHE323     -0.0000
     74  N         34.9060   15.3440   27.0540 N.3   411  LEU411     -0.1245
     75  CA        34.7380   16.7960   26.9540 C.3   411  LEU411      0.1561
     76  C         33.2640   17.1880   27.1110 C.2   411  LEU411      0.2260
     77  O         32.9290   18.0090   27.9640 O.2   411  LEU411     -0.2867
     78  CB        35.2960   17.3220   25.6250 C.3   411  LEU411      0.0270
     79  CG        34.8870   18.7430   25.2160 C.3   411  LEU411      0.0019
     80  CD1       35.9660   19.7500   25.5840 C.3   411  LEU411      0.0001
     81  CD2       34.5470   18.8150   23.7250 C.3   411  LEU411      0.0001
     82  N         32.1990   16.7350   31.0640 N.3   414  ALA414     -0.1231
     83  CA        32.8750   17.5620   32.0730 C.3   414  ALA414      0.1694
     84  C         32.5120   19.0420   31.9680 C.2   414  ALA414      0.2592
     85  O         32.5070   19.7510   32.9750 O.2   414  ALA414     -0.2718
     86  CB        34.3850   17.3760   31.9970 C.3   414  ALA414      0.0304
     87  N         32.2050   19.4980   30.7550 N.am  415  CYS415     -0.1970
     88  CA        31.8820   20.9060   30.5320 C.3   415  CYS415      0.1712
     89  C         30.4050   21.1520   30.2800 C.2   415  CYS415      0.2296
     90  O         30.0020   22.2370   29.8550 O.2   415  CYS415     -0.2864
     91  CB        32.7780   21.5500   29.4560 C.3   415  CYS415      0.0983
     92  SG        32.8550   20.8440   27.7740 S.3   415  CYS415     -0.0798
     93  N         30.3350   21.5250   34.3900 N.3   418  THR418     -0.1218
     94  CA        30.8050   22.8830   34.6690 C.3   418  THR418      0.1862
     95  C         29.7410   23.9010   34.2680 C.2   418  THR418      0.2287
     96  O         29.5980   24.9530   34.8970 O.2   418  THR418     -0.2866
     97  CB        32.1220   23.2050   33.9150 C.3   418  THR418      0.1770
     98  OG1       32.9500   22.0380   33.8540 O.3   418  THR418     -0.2211
     99  CG2       32.8910   24.3310   34.6040 C.3   418  THR418      0.0375
@<TRIPOS>BOND
     1    31    30    2
     2    30    29    1
     3    28    29    1
     4    29    32    1
     5    32    33    1
     6    23    22    2
     7    22    21    1
     8    17    16    2
     9    16    15    1
    10    19    18    1
    11    81    79    1
    12    20    21    1
    13    21    24    1
    14    18    15    1
    15    15    14    1
    16    45    44    1
    17    79    80    1
    18    79    78    1
    19    24    25    1
    20    43    44   ar
    21    43    41   ar
    22    14     9   am
    23    78    75    1
    24    44    42   ar
    25    10     9    2
    26     9     8    1
    27    41    39   ar
    28    25    26    1
    29    42    40   ar
    30    75    74    1
    31    75    76    1
    32    76    77    2
    33     8     7    1
    34     8    11    1
    35    39    40   ar
    36    39    38    1
    37    92    91    1
    38    26    27    1
    39    12    11    1
    40    34    35    1
    41    38    35    1
    42    11    13    1
    43    35    36    1
    44    91    88    1
    45    90    89    2
    46    89    88    1
    47    36    37    2
    48    88    87    1
    49    87    84   am
    50     4     3    2
    51     3     2    1
    52    54    52   am
    53    82    83    1
    54    52    53    2
    55    52    51    1
    56    84    83    1
    57    84    85    2
    58    86    83    1
    59    60    59    1
    60    60    61    1
    61     1     2    1
    62     2     5    1
    63    51    50    1
    64    59    56    1
    65    61    62    1
    66    50    47    1
    67     6     5    1
    68    55    56    1
    69    55    48   am
    70    98    97    1
    71    97    99    1
    72    97    94    1
    73    56    57    1
    74    47    46    1
    75    47    48    1
    76    95    94    1
    77    95    96    2
    78    93    94    1
    79    48    49    2
    80    57    58    2
    81    72    73   ar
    82    72    70   ar
    83    73    71   ar
    84    70    68   ar
    85    71    69   ar
    86    68    69   ar
    87    68    67    1
    88    67    64    1
    89    64    63    1
    90    64    65    1
    91    65    66    2
