@<TRIPOS>MOLECULE
tmp/3hfzB00.pdb
 163 154 0 0 0
SMALL
GASTEIGER

@<TRIPOS>ATOM
      1  N         -3.4870   93.6330   38.3430 N.3   246  VAL246     -0.1245
      2  CA        -3.2780   92.2250   38.0600 C.3   246  VAL246      0.1561
      3  C         -2.7860   92.0090   36.6580 C.2   246  VAL246      0.2260
      4  O         -1.8100   91.3030   36.4570 O.2   246  VAL246     -0.2867
      5  CB        -4.5420   91.3990   38.2320 C.3   246  VAL246      0.0252
      6  CG1       -4.1840   89.9220   38.1940 C.3   246  VAL246      0.0019
      7  CG2       -5.2430   91.7840   39.5060 C.3   246  VAL246      0.0019
      8  N          0.7450   92.9490   35.5360 N.3   249  THR249     -0.1203
      9  CA         1.8180   92.0720   35.9820 C.3   249  THR249      0.1994
     10  C          1.9570   90.9150   35.0290 C.2   249  THR249      0.2617
     11  O          3.0430   90.3610   34.8800 O.2   249  THR249     -0.2717
     12  CB         1.5640   91.5230   37.4100 C.3   249  THR249      0.1784
     13  OG1        0.2590   90.9390   37.4680 O.3   249  THR249     -0.2211
     14  CG2        1.6800   92.6370   38.4490 C.3   249  THR249      0.0376
     15  N          0.8430   90.5340   34.4070 N.am  250  ASN250     -0.1974
     16  CA         0.8470   89.4540   33.4290 C.3   250  ASN250      0.1688
     17  C          1.5360   89.9790   32.1540 C.2   250  ASN250      0.2292
     18  O          2.4620   89.3740   31.6250 O.2   250  ASN250     -0.2864
     19  CB        -0.5840   89.0230   33.1080 C.3   250  ASN250      0.1181
     20  CG        -1.2090   88.1740   34.2030 C.2   250  ASN250      0.2629
     21  OD1       -0.5420   87.3660   34.8320 O.2   250  ASN250     -0.2716
     22  ND2       -2.5110   88.3360   34.4040 N.am  250  ASN250     -0.0877
     23  N          5.0550   90.3020   32.3180 N.3   253  MET253     -0.1245
     24  CA         5.6010   88.9770   32.4540 C.3   253  MET253      0.1570
     25  C          5.9390   88.5400   31.0680 C.2   253  MET253      0.2261
     26  O          7.0990   88.2640   30.7440 O.2   253  MET253     -0.2867
     27  CB         4.5690   88.0260   33.0390 C.3   253  MET253      0.0387
     28  CG         5.1140   86.6480   33.2750 C.3   253  MET253      0.0595
     29  SD         3.8200   85.4770   33.5430 S.3   253  MET253     -0.1393
     30  CE         4.8130   84.0920   33.7540 C.3   253  MET253      0.0692
     31  N          8.1280   86.8220   35.7060 N.3   259  PRO259     -0.2102
     32  CA         6.8810   86.6650   36.4540 C.3   259  PRO259      0.1504
     33  C          6.8970   87.6620   37.6270 C.2   259  PRO259      0.2576
     34  O          7.9600   87.9390   38.1940 O.2   259  PRO259     -0.2718
     35  CB         6.9400   85.2110   36.9140 C.3   259  PRO259      0.0282
     36  CG         7.7730   84.5440   35.8760 C.3   259  PRO259      0.0208
     37  CD         8.8610   85.5470   35.6460 C.3   259  PRO259      0.0893
     38  N          5.7420   88.2240   37.9670 N.am  260  MET260     -0.1966
     39  CA         5.6660   89.1910   39.0520 C.3   260  MET260      0.1736
     40  C          4.2670   89.2070   39.6500 C.2   260  MET260      0.2616
     41  O          3.2730   89.2260   38.9400 O.2   260  MET260     -0.2715
     42  CB         6.0790   90.5940   38.5670 C.3   260  MET260      0.0427
     43  CG         5.2500   91.1950   37.4420 C.3   260  MET260      0.0599
     44  SD         5.6070   92.9420   37.0930 S.3   260  MET260     -0.1393
     45  CE         7.2770   92.8670   36.7670 C.3   260  MET260      0.0692
     46  N          4.1980   89.1890   40.9760 N.am  261  HIS261     -0.1973
     47  CA         2.9210   89.1610   41.6880 C.3   261  HIS261      0.1656
     48  C          2.7280   90.4180   42.4860 C.2   261  HIS261      0.2291
     49  O          3.6640   90.9040   43.1140 O.2   261  HIS261     -0.2864
     50  CB         2.8740   87.9680   42.6560 C.3   261  HIS261      0.0771
     51  CG         1.5010   87.6500   43.1490 C.ar  261  HIS261      0.0820
     52  ND1        0.7380   88.5490   43.8600 N.ar  261  HIS261     -0.2267
     53  CD2        0.7280   86.5530   42.9810 C.ar  261  HIS261      0.1154
     54  CE1       -0.4480   88.0220   44.1020 C.ar  261  HIS261      0.1986
     55  NE2       -0.4800   86.8120   43.5750 N.ar  261  HIS261     -0.2212
     56  N          1.0230   91.7970   45.6570 N.3   263  PHE263     -0.1241
     57  CA         0.4210   91.4120   46.9500 C.3   263  PHE263      0.1605
     58  C         -0.2760   92.6030   47.6100 C.2   263  PHE263      0.2264
     59  O          0.3270   93.6630   47.7510 O.2   263  PHE263     -0.2867
     60  CB         1.5030   90.9060   47.8970 C.3   263  PHE263      0.0534
     61  CG         2.0500   89.5530   47.5470 C.ar  263  PHE263     -0.0203
     62  CD1        1.3040   88.4060   47.7730 C.ar  263  PHE263     -0.0042
     63  CD2        3.3370   89.4220   47.0390 C.ar  263  PHE263     -0.0042
     64  CE1        1.8400   87.1430   47.5000 C.ar  263  PHE263     -0.0003
     65  CE2        3.8780   88.1710   46.7670 C.ar  263  PHE263     -0.0003
     66  CZ         3.1330   87.0330   46.9970 C.ar  263  PHE263     -0.0000
     67  N         -4.3710   80.7400   44.3890 N.3   286  LEU286     -0.1245
     68  CA        -5.2670   81.4950   43.5390 C.3   286  LEU286      0.1561
     69  C         -6.3210   80.7070   42.7930 C.2   286  LEU286      0.2260
     70  O         -7.4000   81.2200   42.5170 O.2   286  LEU286     -0.2867
     71  CB        -4.4480   82.2820   42.5390 C.3   286  LEU286      0.0270
     72  CG        -4.3950   83.7430   42.9170 C.3   286  LEU286      0.0019
     73  CD1       -3.6300   84.5310   41.8440 C.3   286  LEU286      0.0001
     74  CD2       -5.8430   84.2210   43.0830 C.3   286  LEU286      0.0001
     75  N          6.3430   82.6820   49.8830 N.3   300  ILE300     -0.1245
     76  CA         6.3690   84.1190   50.0790 C.3   300  ILE300      0.1561
     77  C          5.4290   84.2970   51.2560 C.2   300  ILE300      0.2260
     78  O          4.2220   84.0360   51.1500 O.2   300  ILE300     -0.2867
     79  CB         5.8240   84.8850   48.8690 C.3   300  ILE300      0.0252
     80  CG1        6.7990   84.7660   47.6980 C.3   300  ILE300      0.0019
     81  CG2        5.6280   86.3350   49.2310 C.3   300  ILE300      0.0019
     82  CD1        8.1700   85.3360   47.9730 C.3   300  ILE300      0.0001
     83  N          1.8290   83.1330   49.3430 N.3   312  GLY312     -0.1210
     84  CA         1.7440   82.4860   48.0540 C.3   312  GLY312      0.1956
     85  C          2.9390   81.5870   47.8180 C.2   312  GLY312      0.2612
     86  O          3.9930   81.8150   48.3990 O.2   312  GLY312     -0.2717
     87  N          2.7770   80.5670   46.9740 N.am  313  LEU313     -0.1965
     88  CA         3.8590   79.6400   46.6350 C.3   313  LEU313      0.1728
     89  C          4.8170   80.3760   45.7080 C.2   313  LEU313      0.2616
     90  O          4.4500   80.7150   44.5860 O.2   313  LEU313     -0.2715
     91  CB         3.2990   78.4200   45.9130 C.3   313  LEU313      0.0311
     92  CG         3.6520   77.0570   46.5050 C.3   313  LEU313      0.0022
     93  CD1        3.2060   75.9580   45.5670 C.3   313  LEU313      0.0001
     94  CD2        5.1420   76.9770   46.7340 C.3   313  LEU313      0.0001
     95  N          6.0430   80.6130   46.1670 N.am  314  ALA314     -0.1963
     96  CA         7.0310   81.3560   45.3820 C.3   314  ALA314      0.1728
     97  C          7.2840   80.8980   43.9380 C.2   314  ALA314      0.2617
     98  O          7.5770   79.7310   43.6820 O.2   314  ALA314     -0.2715
     99  CB         8.3440   81.4040   46.1370 C.3   314  ALA314      0.0334
    100  N          7.1730   81.8430   43.0040 N.am  315  GLY315     -0.1940
    101  CA         7.4170   81.5650   41.5970 C.3   315  GLY315      0.2014
    102  C          6.6770   80.3920   40.9870 C.2   315  GLY315      0.2639
    103  O          7.2600   79.5630   40.2930 O.2   315  GLY315     -0.2714
    104  N          5.3830   80.3300   41.2540 N.am  316  VAL316     -0.1963
    105  CA         4.5310   79.2730   40.7440 C.3   316  VAL316      0.1727
    106  C          3.1200   79.7790   40.8340 C.2   316  VAL316      0.2616
    107  O          2.3750   79.7150   39.8780 O.2   316  VAL316     -0.2715
    108  CB         4.6200   77.9770   41.5800 C.3   316  VAL316      0.0290
    109  CG1        3.4290   77.0740   41.2670 C.3   316  VAL316      0.0023
    110  CG2        5.9140   77.2490   41.2870 C.3   316  VAL316      0.0023
    111  N          2.7490   80.2930   41.9950 N.am  317  MET317     -0.1963
    112  CA         1.3980   80.7930   42.1650 C.3   317  MET317      0.1736
    113  C          1.2440   81.5390   43.4770 C.2   317  MET317      0.2617
    114  O          1.8470   81.1800   44.4880 O.2   317  MET317     -0.2715
    115  CB         0.4140   79.6290   42.0970 C.3   317  MET317      0.0427
    116  CG        -1.0240   80.0460   41.9860 C.3   317  MET317      0.0599
    117  SD        -2.0280   78.6410   41.5630 S.3   317  MET317     -0.1393
    118  CE        -3.5370   79.3760   41.4800 C.3   317  MET317      0.0692
    119  N          0.4320   82.5870   43.4460 N.am  318  GLY318     -0.1955
    120  CA         0.2140   83.3870   44.6280 C.3   318  GLY318      0.1869
    121  C         -0.9660   82.9020   45.4280 C.2   318  GLY318      0.2309
    122  O         -1.6880   81.9990   45.0060 O.2   318  GLY318     -0.2863
    123  N         -4.2720   88.3430   46.8090 N.3   323  GLU323     -0.1245
    124  CA        -4.6980   88.7250   45.4610 C.3   323  GLU323      0.1567
    125  C         -5.3160   90.1110   45.3800 C.2   323  GLU323      0.2260
    126  O         -6.2690   90.3950   46.0870 O.2   323  GLU323     -0.2867
    127  CB        -5.7400   87.7200   44.9590 C.3   323  GLU323      0.0388
    128  CG        -5.3920   87.0150   43.6670 C.3   323  GLU323      0.1160
    129  CD        -5.5100   87.9000   42.4390 C.2   323  GLU323      0.3649
    130  OE1       -6.6350   88.3720   42.1580 O.co2 323  GLU323     -0.2457
    131  OE2       -4.4790   88.1150   41.7550 O.co2 323  GLU323     -0.2457
    132  N          6.2030   91.7030   43.9390 N.3   334  GLU334     -0.1245
    133  CA         7.2690   90.7270   43.8230 C.3   334  GLU334      0.1567
    134  C          7.8670   90.7030   42.4060 C.2   334  GLU334      0.2260
    135  O          7.1470   90.5880   41.4090 O.2   334  GLU334     -0.2867
    136  CB         6.7510   89.3340   44.1350 C.3   334  GLU334      0.0388
    137  CG         7.7540   88.2630   43.7830 C.3   334  GLU334      0.1160
    138  CD         7.1950   86.8710   43.9110 C.2   334  GLU334      0.3649
    139  OE1        7.8580   85.9140   43.4630 O.co2 334  GLU334     -0.2457
    140  OE2        6.0910   86.7230   44.4650 O.co2 334  GLU334     -0.2457
    141  N          2.5480   76.6950   35.3980 N.3   354  THR354     -0.1218
    142  CA         2.0380   78.0260   35.1390 C.3   354  THR354      0.1862
    143  C          3.0120   78.8320   34.3190 C.2   354  THR354      0.2287
    144  O          4.1480   78.4300   34.1000 O.2   354  THR354     -0.2866
    145  CB         1.7810   78.8090   36.4500 C.3   354  THR354      0.1770
    146  OG1        2.9750   78.8220   37.2430 O.3   354  THR354     -0.2211
    147  CG2        0.6570   78.1890   37.2300 C.3   354  THR354      0.0375
    148  N          4.3620   81.3900   35.2660 N.3   356  ALA356     -0.1245
    149  CA         5.4160   81.7170   36.2200 C.3   356  ALA356      0.1562
    150  C          6.3790   80.5590   36.5010 C.2   356  ALA356      0.2260
    151  O          7.5990   80.7200   36.3810 O.2   356  ALA356     -0.2867
    152  CB         4.7980   82.2020   37.4990 C.3   356  ALA356      0.0290
    153  N         10.4880   80.2440   35.4340 N.3   360  PHE360     -0.1241
    154  CA        11.4870   80.0940   36.5020 C.3   360  PHE360      0.1605
    155  C         12.2190   78.7520   36.3760 C.2   360  PHE360      0.2264
    156  O         13.3960   78.6510   36.7450 O.2   360  PHE360     -0.2867
    157  CB        10.8590   80.2610   37.9090 C.3   360  PHE360      0.0534
    158  CG        10.5600   81.7000   38.2810 C.ar  360  PHE360     -0.0203
    159  CD1       11.5560   82.6550   38.2570 C.ar  360  PHE360     -0.0042
    160  CD2        9.2720   82.0950   38.6300 C.ar  360  PHE360     -0.0042
    161  CE1       11.2830   83.9670   38.5640 C.ar  360  PHE360     -0.0003
    162  CE2        8.9890   83.4090   38.9390 C.ar  360  PHE360     -0.0003
    163  CZ         9.9990   84.3460   38.9030 C.ar  360  PHE360     -0.0000
@<TRIPOS>BOND
     1    26    25    2
     2    25    24    1
     3    18    17    2
     4    17    16    1
     5    23    24    1
     6    24    27    1
     7    27    28    1
     8    19    16    1
     9    19    20    1
    10    28    29    1
    11    16    15    1
    12    29    30    1
    13   144   143    2
    14    20    22   am
    15    20    21    2
    16   143   142    1
    17    15    10   am
    18    11    10    2
    19    10     9    1
    20   142   141    1
    21   142   145    1
    22   148   149    1
    23   153   154    1
    24     8     9    1
    25    37    31    1
    26    37    36    1
    27    31    32    1
    28    36    35    1
    29     9    12    1
    30   149   150    1
    31   149   152    1
    32   155   154    1
    33   155   156    2
    34   151   150    2
    35   145   147    1
    36   145   146    1
    37    32    35    1
    38    32    33    1
    39     4     3    2
    40   154   157    1
    41     3     2    1
    42    45    44    1
    43    44    43    1
    44    12    13    1
    45    12    14    1
    46    43    42    1
    47    33    38   am
    48    33    34    2
    49   157   158    1
    50    38    39    1
    51     2     5    1
    52     2     1    1
    53     6     5    1
    54     5     7    1
    55   159   158   ar
    56   159   161   ar
    57   158   160   ar
    58   161   163   ar
    59    42    39    1
    60   160   162   ar
    61   163   162   ar
    62    41    40    2
    63    39    40    1
    64    40    46   am
    65   107   106    2
    66   103   102    2
    67   105   106    1
    68   105   104    1
    69   105   108    1
    70   106   111   am
    71    46    47    1
    72   102   104   am
    73   102   101    1
    74   109   108    1
    75   110   108    1
    76   135   134    2
    77   118   117    1
    78   117   116    1
    79   101   100    1
    80    47    48    1
    81    47    50    1
    82   131   129   ar
    83    73    72    1
    84   116   115    1
    85   111   112    1
    86   115   112    1
    87   130   129   ar
    88   112   113    1
    89   134   133    1
    90   129   128    1
    91    48    49    2
    92    70    69    2
    93    71    72    1
    94    71    68    1
    95    50    51    1
    96    69    68    1
    97    72    74    1
    98    53    51   ar
    99    53    55   ar
   100   100    97   am
   101    51    52   ar
   102   119   113   am
   103   119   120    1
   104   139   138   ar
   105   113   114    2
   106    68    67    1
   107    55    54   ar
   108   128   127    1
   109    98    97    2
   110   137   138    1
   111   137   136    1
   112   133   132    1
   113   133   136    1
   114    52    54   ar
   115   138   140   ar
   116    97    96    1
   117    90    89    2
   118   120   121    1
   119   127   124    1
   120   122   121    2
   121   125   124    1
   122   125   126    2
   123    96    99    1
   124    96    95    1
   125   124   123    1
   126    93    92    1
   127    56    57    1
   128    89    95   am
   129    89    88    1
   130    91    92    1
   131    91    88    1
   132    92    94    1
   133    88    87    1
   134    65    66   ar
   135    65    63   ar
   136    57    58    1
   137    57    60    1
   138    87    85   am
   139    66    64   ar
   140    63    61   ar
   141    64    62   ar
   142    61    62   ar
   143    61    60    1
   144    58    59    2
   145    80    82    1
   146    80    79    1
   147    85    84    1
   148    85    86    2
   149    84    83    1
   150    79    81    1
   151    79    76    1
   152    75    76    1
   153    76    77    1
   154    78    77    2
