@<TRIPOS>MOLECULE
tmp/3hfzA00.pdb
 126 121 0 0 0
SMALL
GASTEIGER

@<TRIPOS>ATOM
      1  N         13.4750   63.8280   26.0300 N.3    65  TRP65      -0.1241
      2  CA        13.4560   62.3690   25.9610 C.3    65  TRP65       0.1605
      3  C         12.7000   61.8620   27.1940 C.2    65  TRP65       0.2264
      4  O         13.0290   62.2460   28.3180 O.2    65  TRP65      -0.2867
      5  CB        14.8900   61.8270   25.9910 C.3    65  TRP65       0.0550
      6  CG        15.7590   62.3820   24.9080 C.ar   65  TRP65       0.0003
      7  CD1       15.9380   61.8680   23.6590 C.ar   65  TRP65       0.0946
      8  CD2       16.4880   63.6190   24.9400 C.ar   65  TRP65       0.0152
      9  NE1       16.7250   62.7080   22.9070 N.ar   65  TRP65      -0.2442
     10  CE2       17.0770   63.7910   23.6660 C.ar   65  TRP65       0.0810
     11  CE3       16.6980   64.6010   25.9210 C.ar   65  TRP65       0.0012
     12  CZ2       17.8580   64.9090   23.3430 C.ar   65  TRP65       0.0191
     13  CZ3       17.4800   65.7160   25.6010 C.ar   65  TRP65       0.0001
     14  CH2       18.0490   65.8580   24.3190 C.ar   65  TRP65       0.0015
     15  N         17.9560   57.4430   22.5110 N.3    94  HIS94      -0.1241
     16  CA        18.4470   57.8000   21.2170 C.3    94  HIS94       0.1621
     17  C         19.6900   56.9760   20.9560 C.2    94  HIS94       0.2264
     18  O         19.9580   56.0340   21.6870 O.2    94  HIS94      -0.2867
     19  CB        18.6630   59.3160   21.1050 C.3    94  HIS94       0.0745
     20  CG        19.4820   59.9180   22.1950 C.ar   94  HIS94       0.0817
     21  ND1       19.6030   61.2830   22.3480 N.ar   94  HIS94      -0.2268
     22  CD2       20.2830   59.3630   23.1320 C.ar   94  HIS94       0.1154
     23  CE1       20.4510   61.5430   23.3270 C.ar   94  HIS94       0.1986
     24  NE2       20.8800   60.3950   23.8190 N.ar   94  HIS94      -0.2212
     25  N         22.7270   58.5170   20.1940 N.3    96  SER96      -0.1217
     26  CA        23.8730   59.3720   20.4910 C.3    96  SER96       0.1889
     27  C         24.9170   58.7010   21.3890 C.2    96  SER96       0.2288
     28  O         26.0770   58.6100   21.0070 O.2    96  SER96      -0.2866
     29  CB        23.4190   60.6890   21.1140 C.3    96  SER96       0.2089
     30  OG        22.5250   61.3810   20.2650 O.3    96  SER96      -0.2183
     31  N         27.9820   57.4930   20.1750 N.3    99  GLN99      -0.1245
     32  CA        28.8510   58.5320   19.6500 C.3    99  GLN99       0.1566
     33  C         29.9960   58.8120   20.6250 C.2    99  GLN99       0.2260
     34  O         31.0450   59.3390   20.2310 O.2    99  GLN99      -0.2867
     35  CB        27.9800   59.7740   19.4180 C.3    99  GLN99       0.0367
     36  CG        28.6450   61.1050   19.3120 C.3    99  GLN99       0.0905
     37  CD        27.6120   62.1820   19.0740 C.2    99  GLN99       0.2608
     38  OE1       27.8340   63.3630   19.3410 O.2    99  GLN99      -0.2717
     39  NE2       26.4630   61.7720   18.5620 N.am   99  GLN99      -0.0878
     40  N         11.3060   55.1760   24.1660 N.3   120  ARG120     -0.1245
     41  CA        10.8090   56.3930   24.7960 C.3   120  ARG120      0.1563
     42  C          9.5000   56.0410   25.4720 C.2   120  ARG120      0.2260
     43  O          8.6910   55.3030   24.9110 O.2   120  ARG120     -0.2867
     44  CB        10.5120   57.4860   23.7660 C.3   120  ARG120      0.0307
     45  CG        11.6280   57.8340   22.8330 C.3   120  ARG120      0.0489
     46  CD        12.7330   58.5710   23.5040 C.3   120  ARG120      0.2205
     47  NE        13.6610   59.0830   22.5020 N.pl3 120  ARG120     -0.0865
     48  CZ        13.3900   60.0930   21.6830 C.cat 120  ARG120      0.5346
     49  NH1       12.2200   60.7050   21.7520 N.pl3 120  ARG120      0.1354
     50  NH2       14.2870   60.4840   20.7900 N.pl3 120  ARG120      0.1354
     51  N         16.6820   54.4920   15.0040 N.3   134  GLN134     -0.1245
     52  CA        17.2710   55.7760   14.6280 C.3   134  GLN134      0.1566
     53  C         18.5710   55.4940   13.8860 C.2   134  GLN134      0.2260
     54  O         18.9940   54.3420   13.7390 O.2   134  GLN134     -0.2867
     55  CB        17.6130   56.6290   15.8530 C.3   134  GLN134      0.0367
     56  CG        16.5600   57.6290   16.3080 C.3   134  GLN134      0.0905
     57  CD        17.0560   58.5550   17.4280 C.2   134  GLN134      0.2608
     58  OE1       16.3260   59.4230   17.8920 O.2   134  GLN134     -0.2717
     59  NE2       18.2980   58.3720   17.8520 N.am  134  GLN134     -0.0878
     60  N         22.5010   57.4060   13.5850 N.3   136  GLU136     -0.1245
     61  CA        23.3470   58.5180   13.9630 C.3   136  GLU136      0.1567
     62  C         24.5370   58.4910   13.0670 C.2   136  GLU136      0.2260
     63  O         24.9630   57.4390   12.6090 O.2   136  GLU136     -0.2867
     64  CB        23.8540   58.3990   15.4150 C.3   136  GLU136      0.0388
     65  CG        22.8260   58.5780   16.5120 C.3   136  GLU136      0.1160
     66  CD        22.8410   59.9450   17.1510 C.2   136  GLU136      0.3649
     67  OE1       23.9370   60.4840   17.3950 O.co2 136  GLU136     -0.2457
     68  OE2       21.7440   60.4720   17.4270 O.co2 136  GLU136     -0.2457
     69  N         20.1030   71.4280   21.1100 N.3   174  PHE174     -0.1241
     70  CA        20.5380   70.0870   21.4820 C.3   174  PHE174      0.1605
     71  C         21.7630   70.3080   22.3590 C.2   174  PHE174      0.2264
     72  O         22.7100   70.9930   21.9570 O.2   174  PHE174     -0.2867
     73  CB        20.9100   69.2470   20.2710 C.3   174  PHE174      0.0534
     74  CG        19.7290   68.7240   19.5210 C.ar  174  PHE174     -0.0203
     75  CD1       18.9450   67.7260   20.0620 C.ar  174  PHE174     -0.0042
     76  CD2       19.3740   69.2630   18.2790 C.ar  174  PHE174     -0.0042
     77  CE1       17.8180   67.2670   19.3860 C.ar  174  PHE174     -0.0003
     78  CE2       18.2540   68.8110   17.6090 C.ar  174  PHE174     -0.0003
     79  CZ        17.4750   67.8130   18.1640 C.ar  174  PHE174     -0.0000
     80  N         24.2120   68.3240   23.1930 N.3   176  PHE176     -0.1227
     81  CA        25.4620   67.7550   22.6670 C.3   176  PHE176      0.1736
     82  C         26.0730   68.4610   21.4480 C.2   176  PHE176      0.2595
     83  O         27.1700   68.0960   21.0150 O.2   176  PHE176     -0.2718
     84  CB        25.2960   66.2600   22.3750 C.3   176  PHE176      0.0547
     85  CG        23.8990   65.8590   22.0290 C.ar  176  PHE176     -0.0202
     86  CD1       22.8530   66.0860   22.9160 C.ar  176  PHE176     -0.0042
     87  CD2       23.6140   65.2730   20.8050 C.ar  176  PHE176     -0.0042
     88  CE1       21.5470   65.7380   22.5830 C.ar  176  PHE176     -0.0003
     89  CE2       22.3150   64.9210   20.4660 C.ar  176  PHE176     -0.0003
     90  CZ        21.2820   65.1550   21.3570 C.ar  176  PHE176     -0.0000
     91  N         25.3860   69.4800   20.9210 N.am  177  VAL177     -0.1980
     92  CA        25.8770   70.2370   19.7640 C.3   177  VAL177      0.1595
     93  C         25.6370   71.7460   19.7830 C.2   177  VAL177      0.2287
     94  O         24.6390   72.2450   20.3120 O.2   177  VAL177     -0.2864
     95  CB        25.2860   69.7150   18.4030 C.3   177  VAL177      0.0276
     96  CG1       25.7470   68.3030   18.1280 C.3   177  VAL177      0.0022
     97  CG2       23.7790   69.7870   18.4170 C.3   177  VAL177      0.0022
     98  N         17.9810   65.8870   13.3490 N.3   198  GLY198     -0.1210
     99  CA        18.6700   67.0130   13.9260 C.3   198  GLY198      0.1956
    100  C         20.1330   66.7360   13.8200 C.2   198  GLY198      0.2611
    101  O         20.5400   65.6120   13.5190 O.2   198  GLY198     -0.2717
    102  N         20.9200   67.7690   14.0640 N.am  199  ALA199     -0.1979
    103  CA        22.3530   67.6360   14.0010 C.3   199  ALA199      0.1597
    104  C         23.0170   68.9470   14.3300 C.2   199  ALA199      0.2287
    105  O         22.3590   69.9200   14.6990 O.2   199  ALA199     -0.2864
    106  CB        22.7600   67.2050   12.6380 C.3   199  ALA199      0.0319
    107  N         27.6650   65.8330   13.8110 N.3   230  ALA230     -0.1231
    108  CA        26.9520   64.5870   13.9740 C.3   230  ALA230      0.1694
    109  C         25.5090   64.9320   13.7420 C.2   230  ALA230      0.2592
    110  O         25.0990   66.0850   13.9200 O.2   230  ALA230     -0.2718
    111  CB        27.1490   64.0410   15.3770 C.3   230  ALA230      0.0304
    112  N         24.7400   63.9290   13.3490 N.am  231  PHE231     -0.1962
    113  CA        23.3340   64.1040   13.0510 C.3   231  PHE231      0.1771
    114  C         22.7030   62.8030   13.4990 C.2   231  PHE231      0.2620
    115  O         23.4030   61.8230   13.7720 O.2   231  PHE231     -0.2715
    116  CB        23.1330   64.3170   11.5100 C.3   231  PHE231      0.0574
    117  CG        23.6560   63.1700   10.6430 C.ar  231  PHE231     -0.0200
    118  CD1       22.9240   61.9940   10.4930 C.ar  231  PHE231     -0.0042
    119  CD2       24.9340   63.2210   10.1000 C.ar  231  PHE231     -0.0042
    120  CE1       23.4600   60.8990    9.8450 C.ar  231  PHE231     -0.0003
    121  CE2       25.4680   62.1190    9.4480 C.ar  231  PHE231     -0.0003
    122  CZ        24.7310   60.9600    9.3260 C.ar  231  PHE231     -0.0000
    123  N         21.3820   62.7950   13.5710 N.am  232  GLY232     -0.1954
    124  CA        20.6740   61.5940   13.9470 C.3   232  GLY232      0.1869
    125  C         19.2950   61.7350   13.3590 C.2   232  GLY232      0.2309
    126  O         18.7230   62.8240   13.4080 O.2   232  GLY232     -0.2863
@<TRIPOS>BOND
     1   122   121   ar
     2   122   120   ar
     3   121   119   ar
     4   120   118   ar
     5   119   117   ar
     6   118   117   ar
     7   117   116    1
     8   116   113    1
     9    63    62    2
    10   106   103    1
    11   113   112    1
    12   113   114    1
    13    62    61    1
    14    98    99    1
    15   112   109   am
    16   125   126    2
    17   125   124    1
    18   114   123   am
    19   114   115    2
    20   101   100    2
    21   123   124    1
    22    60    61    1
    23    54    53    2
    24   109   110    2
    25   109   108    1
    26   107   108    1
    27   100    99    1
    28   100   102   am
    29    53    52    1
    30    61    64    1
    31   108   111    1
    32   103   102    1
    33   103   104    1
    34   104   105    2
    35    52    51    1
    36    52    55    1
    37    64    65    1
    38    55    56    1
    39    56    57    1
    40    65    66    1
    41    66    67   ar
    42    66    68   ar
    43    57    59   am
    44    57    58    2
    45    78    79   ar
    46    78    76   ar
    47    96    95    1
    48    79    77   ar
    49    76    74   ar
    50    95    97    1
    51    95    92    1
    52    39    37   am
    53    37    36    1
    54    37    38    2
    55    36    35    1
    56    77    75   ar
    57    35    32    1
    58    74    75   ar
    59    74    73    1
    60    32    31    1
    61    32    33    1
    62    92    93    1
    63    92    91    1
    64    93    94    2
    65    25    26    1
    66    34    33    2
    67    30    29    1
    68    73    70    1
    69    89    87   ar
    70    89    90   ar
    71    26    29    1
    72    26    27    1
    73    50    48    1
    74    87    85   ar
    75    91    82   am
    76    17    16    1
    77    17    18    2
    78    28    27    2
    79    83    82    2
    80    19    16    1
    81    19    20    1
    82    69    70    1
    83    16    15    1
    84    90    88   ar
    85    82    81    1
    86    70    71    1
    87    48    49    1
    88    48    47    2
    89    72    71    2
    90    85    84    1
    91    85    86   ar
    92    20    21   ar
    93    20    22   ar
    94    21    23   ar
    95    84    81    1
    96    47    46    1
    97    88    86   ar
    98    81    80    1
    99    45    46    1
   100    45    44    1
   101     9     7   ar
   102     9    10   ar
   103    22    24   ar
   104    23    24   ar
   105    12    10   ar
   106    12    14   ar
   107     7     6   ar
   108    10     8   ar
   109    44    41    1
   110    40    41    1
   111    14    13   ar
   112    41    42    1
   113     6     8   ar
   114     6     5    1
   115    43    42    2
   116     8    11   ar
   117    13    11   ar
   118     2     5    1
   119     2     1    1
   120     2     3    1
   121     3     4    2
