@<TRIPOS>MOLECULE
tmp/3hg3A03.pdb
 111 108 0 0 0
SMALL
GASTEIGER

@<TRIPOS>ATOM
      1  N         -3.0720    3.9540   24.1630 N.3   175  LEU175     -0.1245
      2  CA        -2.1560    4.8110   24.9170 C.3   175  LEU175      0.1561
      3  C         -2.3620    6.3010   24.6120 C.2   175  LEU175      0.2260
      4  O         -2.3820    7.1360   25.5200 O.2   175  LEU175     -0.2867
      5  CB        -0.7070    4.3970   24.6270 C.3   175  LEU175      0.0270
      6  CG         0.4640    5.2900   25.0350 C.3   175  LEU175      0.0019
      7  CD1        0.4890    5.4780   26.5370 C.3   175  LEU175      0.0001
      8  CD2        1.7710    4.6850   24.5510 C.3   175  LEU175      0.0001
      9  N         -5.3380    8.2280   26.3380 N.3   178  TRP178     -0.1241
     10  CA        -5.2210    8.4850   27.7650 C.3   178  TRP178      0.1605
     11  C         -5.0370    9.9950   28.0090 C.2   178  TRP178      0.2264
     12  O         -4.3460   10.6570   27.2330 O.2   178  TRP178     -0.2867
     13  CB        -4.0240    7.7040   28.2940 C.3   178  TRP178      0.0550
     14  CG        -4.0260    7.4980   29.7580 C.ar  178  TRP178      0.0003
     15  CD1       -4.5560    6.4410   30.4370 C.ar  178  TRP178      0.0946
     16  CD2       -3.4610    8.3670   30.7400 C.ar  178  TRP178      0.0152
     17  NE1       -4.3610    6.6000   31.7860 N.ar  178  TRP178     -0.2442
     18  CE2       -3.6910    7.7760   31.9990 C.ar  178  TRP178      0.0810
     19  CE3       -2.7850    9.5950   30.6780 C.ar  178  TRP178      0.0012
     20  CZ2       -3.2690    8.3660   33.1890 C.ar  178  TRP178      0.0191
     21  CZ3       -2.3660   10.1820   31.8620 C.ar  178  TRP178      0.0001
     22  CH2       -2.6100    9.5650   33.1030 C.ar  178  TRP178      0.0015
     23  N         -1.3010    0.2270   26.5210 N.3   197  ASN197     -0.1225
     24  CA        -2.2630    1.0680   27.2370 C.3   197  ASN197      0.1785
     25  C         -1.6150    2.2120   27.9970 C.2   197  ASN197      0.2597
     26  O         -2.2350    3.2580   28.2150 O.2   197  ASN197     -0.2718
     27  CB        -3.0610    0.2270   28.2370 C.3   197  ASN197      0.1169
     28  CG        -4.0250   -0.7230   27.5620 C.2   197  ASN197      0.2627
     29  OD1       -4.8790   -0.3030   26.7830 O.2   197  ASN197     -0.2716
     30  ND2       -3.9010   -2.0100   27.8650 N.am  197  ASN197     -0.0877
     31  N         -0.3700    1.9960   28.4130 N.am  198  PHE198     -0.1962
     32  CA         0.2730    2.8620   29.3920 C.3   198  PHE198      0.1771
     33  C          1.6610    3.3290   28.9590 C.2   198  PHE198      0.2619
     34  O          2.2260    2.8170   27.9860 O.2   198  PHE198     -0.2715
     35  CB         0.3260    2.1630   30.7590 C.3   198  PHE198      0.0574
     36  CG        -1.0230    1.7330   31.2680 C.ar  198  PHE198     -0.0200
     37  CD1       -1.2670    0.4000   31.5860 C.ar  198  PHE198     -0.0042
     38  CD2       -2.0550    2.6580   31.4130 C.ar  198  PHE198     -0.0042
     39  CE1       -2.5230   -0.0040   32.0530 C.ar  198  PHE198     -0.0003
     40  CE2       -3.3150    2.2650   31.8720 C.ar  198  PHE198     -0.0003
     41  CZ        -3.5450    0.9300   32.1940 C.ar  198  PHE198     -0.0000
     42  N          2.1900    4.3190   29.6810 N.am  199  ALA199     -0.1963
     43  CA         3.4660    4.9550   29.3390 C.3   199  ALA199      0.1728
     44  C          4.6310    3.9680   29.2730 C.2   199  ALA199      0.2616
     45  O          4.5760    2.8770   29.8540 O.2   199  ALA199     -0.2715
     46  CB         3.7780    6.1190   30.3080 C.3   199  ALA199      0.0334
     47  N          5.6730    4.3640   28.5420 N.am  200  ASP200     -0.1971
     48  CA         6.8610    3.5390   28.3280 C.3   200  ASP200      0.1709
     49  C          7.4580    3.0380   29.6290 C.2   200  ASP200      0.2293
     50  O          7.6050    3.7990   30.5790 O.2   200  ASP200     -0.2864
     51  CB         7.9420    4.3420   27.5960 C.3   200  ASP200      0.1436
     52  CG         7.5660    4.6880   26.1650 C.2   200  ASP200      0.3671
     53  OD1        6.5010    4.2500   25.6740 O.co2 200  ASP200     -0.2456
     54  OD2        8.3560    5.4100   25.5260 O.co2 200  ASP200     -0.2456
     55  N         10.7330    1.8140   31.8030 N.3   202  ASP202     -0.1239
     56  CA        12.1700    2.0470   31.7750 C.3   202  ASP202      0.1674
     57  C         12.8840    1.1170   32.7550 C.2   202  ASP202      0.2266
     58  O         12.2740    0.1850   33.2840 O.2   202  ASP202     -0.2867
     59  CB        12.5180    3.5380   31.9640 C.3   202  ASP202      0.1410
     60  CG        12.2070    4.0670   33.3610 C.2   202  ASP202      0.3668
     61  OD1       11.8830    3.2860   34.2790 O.co2 202  ASP202     -0.2456
     62  OD2       12.3150    5.2950   33.5420 O.co2 202  ASP202     -0.2456
     63  N         13.6320    0.7880   35.8020 N.3   204  SER204     -0.1217
     64  CA        13.3620    1.1720   37.1870 C.3   204  SER204      0.1889
     65  C         12.2020    0.4040   37.7830 C.2   204  SER204      0.2288
     66  O         11.2550    0.0240   37.0810 O.2   204  SER204     -0.2866
     67  CB        13.0700    2.6760   37.2960 C.3   204  SER204      0.2089
     68  OG        11.7460    2.9650   36.8690 O.3   204  SER204     -0.2183
     69  N         10.2470    1.8020   39.9480 N.3   206  LYS206     -0.1231
     70  CA         9.1730    2.7930   39.9210 C.3   206  LYS206      0.1693
     71  C          8.2580    2.6160   38.7050 C.2   206  LYS206      0.2592
     72  O          7.0360    2.6990   38.8350 O.2   206  LYS206     -0.2718
     73  CB         9.7330    4.2150   39.9550 C.3   206  LYS206      0.0285
     74  CG         8.7010    5.2440   40.3970 C.3   206  LYS206      0.0035
     75  CD         9.1690    6.6720   40.1830 C.3   206  LYS206      0.0206
     76  CE         8.1290    7.6590   40.7030 C.3   206  LYS206      0.1093
     77  NZ         8.4030    9.0640   40.2880 N.3   206  LYS206     -0.1314
     78  N          8.8480    2.3690   37.5340 N.am  207  SER207     -0.1952
     79  CA         8.0590    2.2050   36.3130 C.3   207  SER207      0.1924
     80  C          7.2410    0.9170   36.3550 C.2   207  SER207      0.2314
     81  O          6.0790    0.9040   35.9440 O.2   207  SER207     -0.2863
     82  CB         8.9580    2.2340   35.0800 C.3   207  SER207      0.2116
     83  OG         8.2410    1.8260   33.9340 O.3   207  SER207     -0.2180
     84  N          4.3350    1.4320   38.6290 N.3   210  SER210     -0.1202
     85  CA         3.3770    2.3290   37.9830 C.3   210  SER210      0.2020
     86  C          2.5110    1.5830   36.9670 C.2   210  SER210      0.2618
     87  O          1.2980    1.7850   36.9110 O.2   210  SER210     -0.2717
     88  CB         4.0980    3.5040   37.3200 C.3   210  SER210      0.2103
     89  OG         3.1680    4.4000   36.7300 O.3   210  SER210     -0.2182
     90  N          3.1450    0.7190   36.1770 N.am  211  ILE211     -0.1979
     91  CA         2.4440   -0.1230   35.2060 C.3   211  ILE211      0.1595
     92  C          1.4750   -1.0770   35.9050 C.2   211  ILE211      0.2287
     93  O          0.3210   -1.2020   35.4870 O.2   211  ILE211     -0.2864
     94  CB         3.4390   -0.8880   34.2780 C.3   211  ILE211      0.0276
     95  CG1        4.1480    0.1030   33.3410 C.3   211  ILE211      0.0022
     96  CG2        2.7160   -1.9540   33.4510 C.3   211  ILE211      0.0022
     97  CD1        5.3850   -0.4550   32.6490 C.3   211  ILE211      0.0001
     98  N         -1.4620    1.0270   37.4700 N.3   214  TRP214     -0.1241
     99  CA        -2.3870    1.4830   36.4320 C.3   214  TRP214      0.1605
    100  C         -3.1830    0.3350   35.8160 C.2   214  TRP214      0.2264
    101  O         -4.3510    0.5120   35.4670 O.2   214  TRP214     -0.2867
    102  CB        -1.6720    2.3140   35.3640 C.3   214  TRP214      0.0550
    103  CG        -1.5590    3.7250   35.7950 C.ar  214  TRP214      0.0003
    104  CD1       -0.4590    4.3410   36.3120 C.ar  214  TRP214      0.0946
    105  CD2       -2.6110    4.7000   35.8050 C.ar  214  TRP214      0.0152
    106  NE1       -0.7530    5.6470   36.6270 N.ar  214  TRP214     -0.2442
    107  CE2       -2.0680    5.8930   36.3260 C.ar  214  TRP214      0.0810
    108  CE3       -3.9590    4.6810   35.4190 C.ar  214  TRP214      0.0012
    109  CZ2       -2.8260    7.0640   36.4680 C.ar  214  TRP214      0.0191
    110  CZ3       -4.7140    5.8450   35.5590 C.ar  214  TRP214      0.0001
    111  CH2       -4.1450    7.0170   36.0820 C.ar  214  TRP214      0.0015
@<TRIPOS>BOND
     1     1     2    1
     2     8     6    1
     3     3     2    1
     4     3     4    2
     5     5     2    1
     6     5     6    1
     7     6     7    1
     8    54    52   ar
     9    53    52   ar
    10    52    51    1
    11     9    10    1
    12    23    24    1
    13    29    28    2
    14    12    11    2
    15    24    25    1
    16    24    27    1
    17    28    30   am
    18    28    27    1
    19    51    48    1
    20    10    11    1
    21    10    13    1
    22    34    33    2
    23    25    26    2
    24    25    31   am
    25    13    14    1
    26    48    47    1
    27    48    49    1
    28    31    32    1
    29    47    44   am
    30    33    32    1
    31    33    42   am
    32    44    43    1
    33    44    45    2
    34    43    42    1
    35    43    46    1
    36    32    35    1
    37    49    50    2
    38    14    15   ar
    39    14    16   ar
    40    15    17   ar
    41    19    16   ar
    42    19    21   ar
    43    16    18   ar
    44    35    36    1
    45    36    38   ar
    46    36    37   ar
    47    38    40   ar
    48    37    39   ar
    49    56    55    1
    50    56    59    1
    51    56    57    1
    52    17    18   ar
    53    21    22   ar
    54    40    41   ar
    55    59    60    1
    56    18    20   ar
    57    39    41   ar
    58    97    95    1
    59    57    58    2
    60    22    20   ar
    61    95    94    1
    62    60    62   ar
    63    60    61   ar
    64    96    94    1
    65    83    82    1
    66    94    91    1
    67    82    79    1
    68    91    92    1
    69    91    90    1
    70   102   103    1
    71   102    99    1
    72   108   110   ar
    73   108   105   ar
    74   101   100    2
    75    93    92    2
    76   110   111   ar
    77   103   105   ar
    78   103   104   ar
    79    63    64    1
    80   105   107   ar
    81   100    99    1
    82    81    80    2
    83   111   109   ar
    84    90    86   am
    85   104   106   ar
    86    79    80    1
    87    79    78    1
    88   107   109   ar
    89   107   106   ar
    90    99    98    1
    91    89    88    1
    92    68    67    1
    93    87    86    2
    94    86    85    1
    95    66    65    2
    96    64    67    1
    97    64    65    1
    98    88    85    1
    99    78    71   am
   100    85    84    1
   101    71    72    2
   102    71    70    1
   103    70    69    1
   104    70    73    1
   105    73    74    1
   106    75    74    1
   107    75    76    1
   108    77    76    1
