@<TRIPOS>MOLECULE
tmp/3hg3A02.pdb
 140 133 0 0 0
SMALL
GASTEIGER

@<TRIPOS>ATOM
      1  N         14.5220   -1.3490   22.0200 N.3    16  TRP16      -0.1241
      2  CA        14.3160    0.0270   22.4790 C.3    16  TRP16       0.1605
      3  C         14.8260    0.4050   23.8790 C.2    16  TRP16       0.2264
      4  O         15.6470    1.3060   24.0050 O.2    16  TRP16      -0.2867
      5  CB        12.8650    0.4990   22.3180 C.3    16  TRP16       0.0550
      6  CG        12.7800    1.9470   22.6680 C.ar   16  TRP16       0.0003
      7  CD1       12.2560    2.4900   23.8090 C.ar   16  TRP16       0.0946
      8  CD2       13.3160    3.0390   21.9110 C.ar   16  TRP16       0.0152
      9  NE1       12.4060    3.8550   23.7920 N.ar   16  TRP16      -0.2442
     10  CE2       13.0520    4.2200   22.6390 C.ar   16  TRP16       0.0810
     11  CE3       13.9770    3.1360   20.6730 C.ar   16  TRP16       0.0012
     12  CZ2       13.4310    5.4870   22.1770 C.ar   16  TRP16       0.0191
     13  CZ3       14.3500    4.3970   20.2120 C.ar   16  TRP16       0.0001
     14  CH2       14.0780    5.5540   20.9650 C.ar   16  TRP16       0.0015
     15  N         17.8810    2.1100   22.6490 N.3    20  MET20      -0.1245
     16  CA        17.2750    3.4160   22.3350 C.3    20  MET20       0.1570
     17  C         17.5520    3.8940   20.9010 C.2    20  MET20       0.2261
     18  O         17.4170    3.1130   19.9600 O.2    20  MET20      -0.2867
     19  CB        17.6760    4.4670   23.3800 C.3    20  MET20       0.0387
     20  CG        17.3410    4.0660   24.8110 C.3    20  MET20       0.0595
     21  SD        17.6060    5.4020   25.9860 S.3    20  MET20      -0.1393
     22  CE        16.1900    6.4460   25.6310 C.3    20  MET20       0.0692
     23  N         13.0800   -1.5470   16.7190 N.3    61  ASP61      -0.1225
     24  CA        12.2420   -0.4300   17.1490 C.3    61  ASP61       0.1805
     25  C         12.6210    0.8000   16.3050 C.2    61  ASP61       0.2597
     26  O         13.1100    0.6500   15.1810 O.2    61  ASP61      -0.2718
     27  CB        12.4130   -0.1830   18.6570 C.3    61  ASP61       0.1424
     28  CG        11.1950    0.4740   19.2890 C.2    61  ASP61       0.3668
     29  OD1       11.1090    1.7210   19.2720 O.co2  61  ASP61      -0.2456
     30  OD2       10.3290   -0.2560   19.8150 O.co2  61  ASP61      -0.2456
     31  N         12.4040    2.0000   16.8370 N.am   62  ASP62      -0.1974
     32  CA        12.6680    3.2460   16.1100 C.3    62  ASP62       0.1709
     33  C         14.1460    3.3990   15.7300 C.2    62  ASP62       0.2293
     34  O         15.0120    2.7200   16.2880 O.2    62  ASP62      -0.2864
     35  CB        12.2140    4.4400   16.9620 C.3    62  ASP62       0.1436
     36  CG        11.7990    5.6560   16.1330 C.2    62  ASP62       0.3671
     37  OD1       12.1000    5.7240   14.9170 O.co2  62  ASP62      -0.2456
     38  OD2       11.1640    6.5620   16.7170 O.co2  62  ASP62      -0.2456
     39  N          9.4120   -1.4640   12.8370 N.3   103  TYR103     -0.1241
     40  CA         8.7550   -0.3500   13.5090 C.3   103  TYR103      0.1605
     41  C          8.3850    0.7300   12.5010 C.2   103  TYR103      0.2264
     42  O          9.1560    1.0350   11.5890 O.2   103  TYR103     -0.2867
     43  CB         9.7250    0.2210   14.5460 C.3   103  TYR103      0.0534
     44  CG         9.2660    1.4340   15.3370 C.ar  103  TYR103     -0.0201
     45  CD1        8.7660    1.2950   16.6340 C.ar  103  TYR103     -0.0009
     46  CD2        9.3800    2.7220   14.8100 C.ar  103  TYR103     -0.0009
     47  CE1        8.3620    2.4080   17.3740 C.ar  103  TYR103      0.0417
     48  CE2        8.9760    3.8390   15.5420 C.ar  103  TYR103      0.0417
     49  CZ         8.4780    3.6720   16.8240 C.ar  103  TYR103      0.1957
     50  OH         8.0910    4.7740   17.5510 O.3   103  TYR103     -0.2866
     51  N          8.4530    8.7490   16.4940 N.3   111  CYS111     -0.1221
     52  CA         8.7080    9.4650   17.7360 C.3   111  CYS111      0.1808
     53  C         10.1080   10.0830   17.7800 C.2   111  CYS111      0.2601
     54  O         10.2880   11.1670   18.3300 O.2   111  CYS111     -0.2717
     55  CB         8.4570    8.5470   18.9320 C.3   111  CYS111      0.0970
     56  SG         6.7630    7.8740   18.9580 S.3   111  CYS111     -0.0800
     57  N         11.0840    9.4110   17.1690 N.am  112  ALA112     -0.1979
     58  CA        12.4560    9.9280   17.1080 C.3   112  ALA112      0.1597
     59  C         12.7100   10.9060   15.9490 C.2   112  ALA112      0.2287
     60  O         13.8100   11.4470   15.8260 O.2   112  ALA112     -0.2864
     61  CB        13.4580    8.7840   17.0740 C.3   112  ALA112      0.0319
     62  N          5.4760   -3.0800   14.8820 N.3   137  LYS137     -0.1245
     63  CA         5.0990   -2.2280   16.0040 C.3   137  LYS137      0.1561
     64  C          4.8020   -0.8610   15.4030 C.2   137  LYS137      0.2260
     65  O          5.6480   -0.2740   14.7230 O.2   137  LYS137     -0.2867
     66  CB         6.2210   -2.1430   17.0490 C.3   137  LYS137      0.0271
     67  CG         5.9490   -1.1480   18.1780 C.3   137  LYS137      0.0035
     68  CD         7.0710   -1.1350   19.2170 C.3   137  LYS137      0.0206
     69  CE         6.8660   -0.0030   20.2180 C.3   137  LYS137      0.1093
     70  NZ         7.9820    0.0980   21.2140 N.3   137  LYS137     -0.1314
     71  N          3.0310    8.6480   17.5430 N.3   141  CYS141     -0.1235
     72  CA         3.5510   10.0150   17.5990 C.3   141  CYS141      0.1677
     73  C          3.2070   10.8350   16.3630 C.2   141  CYS141      0.2270
     74  O          3.0020   10.2890   15.2750 O.2   141  CYS141     -0.2867
     75  CB         5.0660   10.0170   17.7710 C.3   141  CYS141      0.0956
     76  SG         5.6220    9.5000   19.3860 S.3   141  CYS141     -0.0801
     77  N         -0.1040    1.1700   19.4440 N.3   172  GLU172     -0.1245
     78  CA        -0.0680    2.0460   20.6220 C.3   172  GLU172      0.1567
     79  C         -1.3350    2.8960   20.6990 C.2   172  GLU172      0.2260
     80  O         -1.4120    3.8660   21.4530 O.2   172  GLU172     -0.2867
     81  CB         1.1780    2.9320   20.6050 C.3   172  GLU172      0.0388
     82  CG         2.4730    2.1250   20.5050 C.3   172  GLU172      0.1160
     83  CD         3.6870    2.8540   21.0460 C.2   172  GLU172      0.3649
     84  OE1        4.6440    3.0560   20.2730 O.co2 172  GLU172     -0.2457
     85  OE2        3.6930    3.2130   22.2430 O.co2 172  GLU172     -0.2457
     86  N         -3.0720    3.9540   24.1630 N.3   175  LEU175     -0.1231
     87  CA        -2.1560    4.8110   24.9170 C.3   175  LEU175      0.1693
     88  C         -2.3620    6.3010   24.6120 C.2   175  LEU175      0.2592
     89  O         -2.3820    7.1360   25.5200 O.2   175  LEU175     -0.2718
     90  CB        -0.7070    4.3970   24.6270 C.3   175  LEU175      0.0284
     91  CG         0.4640    5.2900   25.0350 C.3   175  LEU175      0.0019
     92  CD1        0.4890    5.4780   26.5370 C.3   175  LEU175      0.0001
     93  CD2        1.7710    4.6850   24.5510 C.3   175  LEU175      0.0001
     94  N         -2.5240    6.6220   23.3340 N.am  176  TYR176     -0.1976
     95  CA        -2.6860    8.0090   22.9010 C.3   176  TYR176      0.1639
     96  C         -4.0850    8.6010   23.1530 C.2   176  TYR176      0.2290
     97  O         -4.3370    9.7680   22.8490 O.2   176  TYR176     -0.2864
     98  CB        -2.2240    8.1580   21.4450 C.3   176  TYR176      0.0560
     99  CG        -0.7160    8.1380   21.3420 C.ar  176  TYR176     -0.0198
    100  CD1       -0.0150    6.9380   21.2260 C.ar  176  TYR176     -0.0009
    101  CD2        0.0150    9.3200   21.4150 C.ar  176  TYR176     -0.0009
    102  CE1        1.3790    6.9220   21.1630 C.ar  176  TYR176      0.0417
    103  CE2        1.4020    9.3160   21.3490 C.ar  176  TYR176      0.0417
    104  CZ         2.0760    8.1200   21.2230 C.ar  176  TYR176      0.1957
    105  OH         3.4500    8.1320   21.1590 O.3   176  TYR176     -0.2866
    106  N         -0.5930   -1.2440   23.4700 N.3   196  ARG196     -0.1245
    107  CA        -0.0040   -0.5590   24.6170 C.3   196  ARG196      0.1563
    108  C         -1.0460    0.3790   25.2220 C.2   196  ARG196      0.2260
    109  O         -1.6180    1.2100   24.5150 O.2   196  ARG196     -0.2867
    110  CB         1.2240    0.2380   24.1660 C.3   196  ARG196      0.0307
    111  CG         2.4680   -0.6100   23.8320 C.3   196  ARG196      0.0489
    112  CD         3.3320   -0.8510   25.0860 C.3   196  ARG196      0.2205
    113  NE         3.5190    0.4040   25.8140 N.pl3 196  ARG196     -0.0865
    114  CZ         4.4220    1.3310   25.5060 C.cat 196  ARG196      0.5346
    115  NH1        5.2720    1.1360   24.5020 N.pl3 196  ARG196      0.1354
    116  NH2        4.4740    2.4580   26.2090 N.pl3 196  ARG196      0.1354
    117  N          5.6730    4.3640   28.5420 N.3   200  ASP200     -0.1239
    118  CA         6.8610    3.5390   28.3280 C.3   200  ASP200      0.1674
    119  C          7.4580    3.0380   29.6290 C.2   200  ASP200      0.2266
    120  O          7.6050    3.7990   30.5790 O.2   200  ASP200     -0.2867
    121  CB         7.9420    4.3420   27.5960 C.3   200  ASP200      0.1410
    122  CG         7.5660    4.6880   26.1650 C.2   200  ASP200      0.3668
    123  OD1        6.5010    4.2500   25.6740 O.co2 200  ASP200     -0.2456
    124  OD2        8.3560    5.4100   25.5260 O.co2 200  ASP200     -0.2456
    125  N          4.2900   -3.3510   28.0660 N.3   235  ASP235     -0.1225
    126  CA         5.6370   -2.9810   27.6140 C.3   235  ASP235      0.1805
    127  C          6.7160   -4.0090   27.9820 C.2   235  ASP235      0.2597
    128  O          6.4230   -5.0610   28.5720 O.2   235  ASP235     -0.2718
    129  CB         6.0170   -1.5430   28.0340 C.3   235  ASP235      0.1424
    130  CG         6.9010   -0.8390   27.0070 C.2   235  ASP235      0.3668
    131  OD1        7.2920   -1.4740   26.0060 O.co2 235  ASP235     -0.2456
    132  OD2        7.2100    0.3570   27.2010 O.co2 235  ASP235     -0.2456
    133  N          7.9560   -3.6890   27.6160 N.am  236  MET236     -0.1979
    134  CA         9.0700   -4.6390   27.5910 C.3   236  MET236      0.1605
    135  C          9.4800   -5.2310   28.9400 C.2   236  MET236      0.2287
    136  O          9.3580   -4.5900   29.9750 O.2   236  MET236     -0.2864
    137  CB        10.2950   -3.9700   26.9580 C.3   236  MET236      0.0413
    138  CG        10.1550   -3.6890   25.4620 C.3   236  MET236      0.0598
    139  SD        11.3540   -2.4700   24.8760 S.3   236  MET236     -0.1393
    140  CE        10.6140   -0.9580   25.4670 C.3   236  MET236      0.0692
@<TRIPOS>BOND
     1    42    41    2
     2    41    40    1
     3    39    40    1
     4    40    43    1
     5    43    44    1
     6    65    64    2
     7    46    44   ar
     8    46    48   ar
     9    62    63    1
    10    37    36   ar
    11    26    25    2
    12    74    73    2
    13    44    45   ar
    14    64    63    1
    15    48    49   ar
    16    33    32    1
    17    33    34    2
    18    60    59    2
    19    59    58    1
    20    63    66    1
    21    32    31    1
    22    32    35    1
    23    36    38   ar
    24    36    35    1
    25    25    31   am
    26    25    24    1
    27    73    72    1
    28    51    52    1
    29    45    47   ar
    30    23    24    1
    31    49    47   ar
    32    49    50    1
    33    66    67    1
    34    61    58    1
    35    58    57    1
    36    24    27    1
    37    57    53   am
    38    71    72    1
    39    72    75    1
    40    52    53    1
    41    52    55    1
    42    75    76    1
    43    53    54    2
    44    67    68    1
    45    27    28    1
    46    55    56    1
    47    56    76    1
    48    68    69    1
    49    29    28   ar
    50    28    30   ar
    51    77    78    1
    52    18    17    2
    53    13    11   ar
    54    13    14   ar
    55    69    70    1
    56    84    83   ar
    57    82    81    1
    58    82    83    1
    59    81    78    1
    60    78    79    1
    61    11     8   ar
    62    79    80    2
    63    17    16    1
    64    14    12   ar
    65    83    85   ar
    66   105   104    1
    67   102   104   ar
    68   102   100   ar
    69   104   103   ar
    70   100    99   ar
    71    99   101   ar
    72    99    98    1
    73   103   101   ar
    74    98    95    1
    75     8    10   ar
    76     8     6   ar
    77     1     2    1
    78    12    10   ar
    79     5     2    1
    80     5     6    1
    81    16    15    1
    82    16    19    1
    83     2     3    1
    84    10     9   ar
    85     6     7   ar
    86    97    96    2
    87    95    96    1
    88    95    94    1
    89    94    88   am
    90    19    20    1
    91   106   107    1
    92     9     7   ar
    93   111   110    1
    94   111   112    1
    95     3     4    2
    96    86    87    1
    97   110   107    1
    98   115   114    1
    99   109   108    2
   100    93    91    1
   101    88    87    1
   102    88    89    2
   103   107   108    1
   104    90    87    1
   105    90    91    1
   106    20    21    1
   107   139   138    1
   108   139   140    1
   109    91    92    1
   110   112   113    1
   111   138   137    1
   112   114   113    2
   113   114   116    1
   114   124   122   ar
   115    22    21    1
   116   123   122   ar
   117   131   130   ar
   118   122   121    1
   119   137   134    1
   120   130   132   ar
   121   130   129    1
   122   134   133    1
   123   134   135    1
   124   121   118    1
   125   126   127    1
   126   126   129    1
   127   126   125    1
   128   133   127   am
   129   127   128    2
   130   118   117    1
   131   118   119    1
   132   135   136    2
   133   119   120    2
