@<TRIPOS>MOLECULE
tmp/3hg4B03.pdb
 126 119 0 0 0
SMALL
GASTEIGER

@<TRIPOS>ATOM
      1  N         21.0860   59.9630   87.0700 N.3    16  TRP16      -0.1241
      2  CA        20.7850   61.0400   88.0090 C.3    16  TRP16       0.1605
      3  C         19.6630   60.8060   89.0280 C.2    16  TRP16       0.2264
      4  O         19.8770   60.9890   90.2240 O.2    16  TRP16      -0.2867
      5  CB        20.5660   62.3720   87.2940 C.3    16  TRP16       0.0550
      6  CG        20.3950   63.4910   88.2770 C.ar   16  TRP16       0.0003
      7  CD1       19.2410   64.1530   88.5660 C.ar   16  TRP16       0.0946
      8  CD2       21.4060   64.0500   89.1310 C.ar   16  TRP16       0.0152
      9  NE1       19.4690   65.1050   89.5310 N.ar   16  TRP16      -0.2442
     10  CE2       20.7890   65.0630   89.8960 C.ar   16  TRP16       0.0810
     11  CE3       22.7760   63.8040   89.3100 C.ar   16  TRP16       0.0012
     12  CZ2       21.4910   65.8260   90.8320 C.ar   16  TRP16       0.0191
     13  CZ3       23.4720   64.5620   90.2340 C.ar   16  TRP16       0.0001
     14  CH2       22.8290   65.5630   90.9850 C.ar   16  TRP16       0.0015
     15  N         25.6480   61.2510   84.4200 N.3    61  ASP61      -0.1225
     16  CA        25.1480   62.5720   84.7420 C.3    61  ASP61       0.1805
     17  C         26.2140   63.2920   85.5740 C.2    61  ASP61       0.2597
     18  O         27.4090   63.0050   85.4250 O.2    61  ASP61      -0.2718
     19  CB        23.8030   62.4640   85.4660 C.3    61  ASP61       0.1424
     20  CG        22.9270   63.6840   85.2450 C.2    61  ASP61       0.3668
     21  OD1       23.1660   64.7130   85.9160 O.co2  61  ASP61      -0.2456
     22  OD2       22.0030   63.6070   84.4020 O.co2  61  ASP61      -0.2456
     23  N         25.7940   64.2100   86.4420 N.am   62  ASP62      -0.1974
     24  CA        26.7200   65.0240   87.2440 C.3    62  ASP62       0.1709
     25  C         27.5250   64.1820   88.2480 C.2    62  ASP62       0.2293
     26  O         27.1310   63.0620   88.5890 O.2    62  ASP62      -0.2864
     27  CB        25.9470   66.1410   87.9670 C.3    62  ASP62       0.1436
     28  CG        26.8270   67.3360   88.3530 C.2    62  ASP62       0.3671
     29  OD1       28.0740   67.2580   88.2640 O.co2  62  ASP62      -0.2456
     30  OD2       26.2610   68.3760   88.7530 O.co2  62  ASP62      -0.2456
     31  N         28.2250   64.3270   80.9490 N.3   103  TYR103     -0.1241
     32  CA        27.5510   65.5190   81.4450 C.3   103  TYR103      0.1605
     33  C         28.5420   66.6720   81.6380 C.2   103  TYR103      0.2264
     34  O         29.6660   66.4610   82.0900 O.2   103  TYR103     -0.2867
     35  CB        26.8360   65.1720   82.7590 C.3   103  TYR103      0.0534
     36  CG        26.3320   66.3390   83.5840 C.ar  103  TYR103     -0.0201
     37  CD1       24.9660   66.6150   83.6770 C.ar  103  TYR103     -0.0009
     38  CD2       27.2180   67.1490   84.2990 C.ar  103  TYR103     -0.0009
     39  CE1       24.4990   67.6780   84.4430 C.ar  103  TYR103      0.0417
     40  CE2       26.7670   68.2160   85.0530 C.ar  103  TYR103      0.0417
     41  CZ        25.4080   68.4700   85.1320 C.ar  103  TYR103      0.1957
     42  OH        24.9710   69.5290   85.8930 O.3   103  TYR103     -0.2866
     43  N         25.8500   71.8890   88.3360 N.3   111  CYS111     -0.1221
     44  CA        24.8550   72.0830   89.3870 C.3   111  CYS111      0.1808
     45  C         25.3130   71.5860   90.7640 C.2   111  CYS111      0.2601
     46  O         25.0000   72.2120   91.7800 O.2   111  CYS111     -0.2717
     47  CB        23.5170   71.4740   88.9820 C.3   111  CYS111      0.0970
     48  SG        22.7870   72.2760   87.5260 S.3   111  CYS111     -0.0800
     49  N         26.0730   70.4850   90.7800 N.am  112  ALA112     -0.1979
     50  CA        26.6070   69.9060   92.0170 C.3   112  ALA112      0.1597
     51  C         27.8890   70.5740   92.5190 C.2   112  ALA112      0.2287
     52  O         28.3510   70.2760   93.6210 O.2   112  ALA112     -0.2864
     53  CB        26.8240   68.4100   91.8500 C.3   112  ALA112      0.0319
     54  N         25.0580   65.6620   77.8220 N.3   137  LYS137     -0.1245
     55  CA        24.0130   66.3920   78.5220 C.3   137  LYS137      0.1561
     56  C         24.6410   67.6610   79.0910 C.2   137  LYS137      0.2260
     57  O         25.6210   67.5950   79.8320 O.2   137  LYS137     -0.2867
     58  CB        23.4110   65.5340   79.6420 C.3   137  LYS137      0.0271
     59  CG        22.2430   66.1950   80.3540 C.3   137  LYS137      0.0035
     60  CD        21.7140   65.3520   81.4870 C.3   137  LYS137      0.0206
     61  CE        20.7410   66.1450   82.3310 C.3   137  LYS137      0.1093
     62  NZ        20.2140   65.3290   83.4530 N.3   137  LYS137     -0.1314
     63  N         24.1470   71.0490   81.1890 N.3   139  ASP139     -0.1239
     64  CA        23.2780   71.7030   82.1770 C.3   139  ASP139      0.1674
     65  C         23.4950   73.2210   82.2510 C.2   139  ASP139      0.2266
     66  O         24.4740   73.7370   81.7110 O.2   139  ASP139     -0.2867
     67  CB        23.4600   71.0510   83.5530 C.3   139  ASP139      0.1410
     68  CG        22.1650   70.9920   84.3570 C.2   139  ASP139      0.3668
     69  OD1       21.2450   71.8080   84.1120 O.co2 139  ASP139     -0.2456
     70  OD2       22.0740   70.1220   85.2510 O.co2 139  ASP139     -0.2456
     71  N         19.7020   71.7080   78.5460 N.3   172  GLU172     -0.1245
     72  CA        18.7750   72.2160   79.5720 C.3   172  GLU172      0.1567
     73  C         18.4660   73.7040   79.3550 C.2   172  GLU172      0.2260
     74  O         17.9210   74.3770   80.2290 O.2   172  GLU172     -0.2867
     75  CB        19.3120   71.9570   80.9870 C.3   172  GLU172      0.0388
     76  CG        19.0190   70.5510   81.5310 C.3   172  GLU172      0.1160
     77  CD        19.7520   69.4690   80.7580 C.2   172  GLU172      0.3649
     78  OE1       19.0810   68.6660   80.0660 O.co2 172  GLU172     -0.2457
     79  OE2       21.0030   69.4390   80.8130 O.co2 172  GLU172     -0.2457
     80  N         14.8210   75.3890   80.0340 N.3   175  LEU175     -0.1231
     81  CA        14.5510   75.3660   81.4760 C.3   175  LEU175      0.1693
     82  C         15.2510   76.4980   82.2420 C.2   175  LEU175      0.2592
     83  O         14.6490   77.1300   83.1140 O.2   175  LEU175     -0.2718
     84  CB        14.9360   73.9950   82.0760 C.3   175  LEU175      0.0284
     85  CG        14.9780   73.8470   83.6100 C.3   175  LEU175      0.0019
     86  CD1       13.6040   74.0710   84.2620 C.3   175  LEU175      0.0001
     87  CD2       15.5560   72.5070   84.0260 C.3   175  LEU175      0.0001
     88  N         16.5130   76.7570   81.9150 N.am  176  TYR176     -0.1976
     89  CA        17.2770   77.8030   82.6010 C.3   176  TYR176      0.1639
     90  C         17.0630   79.1890   82.0030 C.2   176  TYR176      0.2290
     91  O         17.6080   80.1780   82.4940 O.2   176  TYR176     -0.2864
     92  CB        18.7580   77.4320   82.6690 C.3   176  TYR176      0.0560
     93  CG        19.0040   76.3190   83.6560 C.ar  176  TYR176     -0.0198
     94  CD1       19.3000   76.6000   84.9920 C.ar  176  TYR176     -0.0009
     95  CD2       18.9030   74.9800   83.2640 C.ar  176  TYR176     -0.0009
     96  CE1       19.5080   75.5790   85.9070 C.ar  176  TYR176      0.0417
     97  CE2       19.1100   73.9520   84.1700 C.ar  176  TYR176      0.0417
     98  CZ        19.4110   74.2560   85.4870 C.ar  176  TYR176      0.1957
     99  OH        19.6100   73.2440   86.3820 O.3   176  TYR176     -0.2866
    100  N         15.4880   69.9400   77.7990 N.3   196  ARG196     -0.1245
    101  CA        14.6630   69.8700   79.0060 C.3   196  ARG196      0.1563
    102  C         13.8720   71.1670   79.1700 C.2   196  ARG196      0.2260
    103  O         14.4460   72.2680   79.1870 O.2   196  ARG196     -0.2867
    104  CB        15.5380   69.5970   80.2380 C.3   196  ARG196      0.0307
    105  CG        15.9370   68.1190   80.4210 C.3   196  ARG196      0.0489
    106  CD        14.9210   67.3460   81.2690 C.3   196  ARG196      0.2205
    107  NE        14.6020   68.1020   82.4720 N.pl3 196  ARG196     -0.0865
    108  CZ        15.3520   68.1310   83.5700 C.cat 196  ARG196      0.5346
    109  NH1       16.4690   67.4080   83.6550 N.pl3 196  ARG196      0.1354
    110  NH2       14.9810   68.8840   84.5930 N.pl3 196  ARG196      0.1354
    111  N         13.3560   69.1880   87.2970 N.3   200  ASP200     -0.1239
    112  CA        13.7660   67.7890   87.4760 C.3   200  ASP200      0.1674
    113  C         12.6400   66.8840   87.9810 C.2   200  ASP200      0.2266
    114  O         11.9210   67.2200   88.9180 O.2   200  ASP200     -0.2867
    115  CB        14.9280   67.6860   88.4670 C.3   200  ASP200      0.1410
    116  CG        16.1550   68.4740   88.0440 C.2   200  ASP200      0.3668
    117  OD1       16.1410   69.1220   86.9740 O.co2 200  ASP200     -0.2456
    118  OD2       17.1480   68.4380   88.7970 O.co2 200  ASP200     -0.2456
    119  N         13.6380   62.0130   82.8500 N.3   236  MET236     -0.1245
    120  CA        13.8560   60.5700   82.9160 C.3   236  MET236      0.1570
    121  C         12.6040   59.7460   83.2290 C.2   236  MET236      0.2261
    122  O         11.6770   60.2180   83.8930 O.2   236  MET236     -0.2867
    123  CB        14.9420   60.2570   83.9560 C.3   236  MET236      0.0387
    124  CG        16.3300   60.7990   83.6200 C.3   236  MET236      0.0595
    125  SD        17.3740   60.9530   85.0870 S.3   236  MET236     -0.1393
    126  CE        16.8410   62.5190   85.7630 C.3   236  MET236      0.0692
@<TRIPOS>BOND
     1   100   101    1
     2    54    55    1
     3    55    56    1
     4    55    58    1
     5    71    72    1
     6   101   102    1
     7   101   104    1
     8    56    57    2
     9   102   103    2
    10    73    72    1
    11    73    74    2
    12    72    75    1
    13    58    59    1
    14    80    81    1
    15    78    77   ar
    16   104   105    1
    17    59    60    1
    18   105   106    1
    19    77    79   ar
    20    77    76    1
    21    31    32    1
    22    75    76    1
    23    63    64    1
    24   106   107    1
    25    32    33    1
    26    32    35    1
    27    81    84    1
    28    81    82    1
    29    60    61    1
    30    33    34    2
    31    66    65    2
    32    88    82   am
    33    88    89    1
    34    90    91    2
    35    90    89    1
    36    84    85    1
    37    64    65    1
    38    64    67    1
    39    82    83    2
    40    61    62    1
    41   107   108    2
    42    89    92    1
    43    92    93    1
    44    35    36    1
    45   119   120    1
    46   120   121    1
    47   120   123    1
    48   121   122    2
    49    95    93   ar
    50    95    97   ar
    51    67    68    1
    52   108   109    1
    53   108   110    1
    54    36    37   ar
    55    36    38   ar
    56    85    87    1
    57    85    86    1
    58   124   123    1
    59   124   125    1
    60    93    94   ar
    61    37    39   ar
    62    69    68   ar
    63    97    98   ar
    64    38    40   ar
    65    68    70   ar
    66    22    20   ar
    67    15    16    1
    68    39    41   ar
    69    16    19    1
    70    16    17    1
    71    94    96   ar
    72    40    41   ar
    73   125   126    1
    74    41    42    1
    75    20    19    1
    76    20    21   ar
    77    18    17    2
    78    98    96   ar
    79    98    99    1
    80    17    23   am
    81    23    24    1
    82   117   116   ar
    83     1     2    1
    84    24    27    1
    85    24    25    1
    86     5     2    1
    87     5     6    1
    88   111   112    1
    89   112   113    1
    90   112   115    1
    91    48    47    1
    92    27    28    1
    93   113   114    2
    94     2     3    1
    95   116   115    1
    96   116   118   ar
    97    25    26    2
    98    29    28   ar
    99     6     7   ar
   100     6     8   ar
   101    43    44    1
   102    28    30   ar
   103     7     9   ar
   104    47    44    1
   105     3     4    2
   106     8    11   ar
   107     8    10   ar
   108    11    13   ar
   109    44    45    1
   110     9    10   ar
   111    10    12   ar
   112    13    14   ar
   113    45    49   am
   114    45    46    2
   115    49    50    1
   116    12    14   ar
   117    53    50    1
   118    50    51    1
   119    51    52    2
