@<TRIPOS>MOLECULE
tmp/3hg4B00.pdb
 82 80 0 0 0
SMALL
GASTEIGER

@<TRIPOS>ATOM
      1  N         27.0930   74.7040   81.2590 N.3   106  VAL106     -0.1231
      2  CA        27.3560   75.9270   80.5010 C.3   106  VAL106      0.1692
      3  C         28.0280   77.0090   81.3550 C.2   106  VAL106      0.2593
      4  O         28.7400   77.8690   80.8330 O.2   106  VAL106     -0.2718
      5  CB        26.0510   76.4590   79.8150 C.3   106  VAL106      0.0266
      6  CG1       25.0380   76.9550   80.8420 C.3   106  VAL106      0.0020
      7  CG2       26.3640   77.5440   78.7910 C.3   106  VAL106      0.0020
      8  N         27.8130   76.9370   82.6680 N.am  107  GLY107     -0.1942
      9  CA        28.3150   77.9390   83.6000 C.3   107  GLY107      0.2014
     10  C         29.7390   77.7080   84.0690 C.2   107  GLY107      0.2638
     11  O         30.5170   77.0020   83.4180 O.2   107  GLY107     -0.2714
     12  N         30.0750   78.3210   85.2010 N.am  108  ASN108     -0.1972
     13  CA        31.3890   78.1600   85.8180 C.3   108  ASN108      0.1688
     14  C         31.4880   76.9370   86.7160 C.2   108  ASN108      0.2292
     15  O         32.5890   76.4870   87.0330 O.2   108  ASN108     -0.2864
     16  CB        31.7780   79.4210   86.5910 C.3   108  ASN108      0.1181
     17  CG        32.2640   80.5270   85.6810 C.2   108  ASN108      0.2629
     18  OD1       33.1830   80.3290   84.8810 O.2   108  ASN108     -0.2716
     19  ND2       31.6420   81.7000   85.7930 N.am  108  ASN108     -0.0877
     20  N         32.3500   76.9160   80.8360 N.3   118  PHE118     -0.1241
     21  CA        32.5470   78.2820   80.3530 C.3   118  PHE118      0.1605
     22  C         34.0400   78.5890   80.2830 C.2   118  PHE118      0.2264
     23  O         34.7770   78.3110   81.2300 O.2   118  PHE118     -0.2867
     24  CB        31.8360   79.3050   81.2440 C.3   118  PHE118      0.0534
     25  CG        32.1790   80.7360   80.9110 C.ar  118  PHE118     -0.0203
     26  CD1       31.5470   81.3900   79.8560 C.ar  118  PHE118     -0.0042
     27  CD2       33.1520   81.4230   81.6380 C.ar  118  PHE118     -0.0042
     28  CE1       31.8690   82.7080   79.5360 C.ar  118  PHE118     -0.0003
     29  CE2       33.4780   82.7390   81.3260 C.ar  118  PHE118     -0.0003
     30  CZ        32.8360   83.3830   80.2740 C.ar  118  PHE118     -0.0000
     31  N         34.8150   75.6660   76.2360 N.3   121  TYR121     -0.1241
     32  CA        33.8600   74.9620   75.3710 C.3   121  TYR121      0.1605
     33  C         34.5190   74.0660   74.3250 C.2   121  TYR121      0.2264
     34  O         34.0990   72.9300   74.1310 O.2   121  TYR121     -0.2867
     35  CB        32.8800   75.9310   74.6960 C.3   121  TYR121      0.0534
     36  CG        31.9920   76.6910   75.6580 C.ar  121  TYR121     -0.0201
     37  CD1       31.2590   76.0240   76.6430 C.ar  121  TYR121     -0.0009
     38  CD2       31.8780   78.0800   75.5790 C.ar  121  TYR121     -0.0009
     39  CE1       30.4430   76.7210   77.5290 C.ar  121  TYR121      0.0417
     40  CE2       31.0620   78.7850   76.4590 C.ar  121  TYR121      0.0417
     41  CZ        30.3470   78.0990   77.4290 C.ar  121  TYR121      0.1957
     42  OH        29.5390   78.7910   78.2980 O.3   121  TYR121     -0.2866
     43  N         24.8020   77.9790   87.4140 N.3   142  TYR142     -0.1227
     44  CA        25.8490   78.9770   87.6160 C.3   142  TYR142      0.1736
     45  C         26.1280   79.7590   86.3280 C.2   142  TYR142      0.2596
     46  O         27.2680   79.8770   85.8700 O.2   142  TYR142     -0.2718
     47  CB        27.0980   78.3330   88.2540 C.3   142  TYR142      0.0548
     48  CG        26.7870   77.7140   89.6070 C.ar  142  TYR142     -0.0200
     49  CD1       26.7150   78.5060   90.7570 C.ar  142  TYR142     -0.0009
     50  CD2       26.5260   76.3430   89.7320 C.ar  142  TYR142     -0.0009
     51  CE1       26.4060   77.9550   91.9940 C.ar  142  TYR142      0.0417
     52  CE2       26.2140   75.7770   90.9680 C.ar  142  TYR142      0.0417
     53  CZ        26.1560   76.5900   92.0950 C.ar  142  TYR142      0.1957
     54  OH        25.8490   76.0460   93.3250 O.3   142  TYR142     -0.2866
     55  N         25.0400   80.2780   85.7580 N.am  143  CYS143     -0.1956
     56  CA        25.0620   81.1410   84.5800 C.3   143  CYS143      0.1843
     57  C         23.8540   82.0860   84.6380 C.2   143  CYS143      0.2625
     58  O         22.8330   81.8640   83.9740 O.2   143  CYS143     -0.2714
     59  CB        25.0390   80.2980   83.3000 C.3   143  CYS143      0.0997
     60  SG        25.3020   81.2400   81.7830 S.3   143  CYS143     -0.0797
     61  N         23.9780   83.1380   85.4450 N.am  144  ASP144     -0.1957
     62  CA        22.8730   84.0750   85.7130 C.3   144  ASP144      0.1840
     63  C         22.6980   85.1950   84.6740 C.2   144  ASP144      0.2622
     64  O         22.0190   86.1900   84.9420 O.2   144  ASP144     -0.2715
     65  CB        23.0290   84.6880   87.1140 C.3   144  ASP144      0.1450
     66  CG        22.8150   83.6710   88.2310 C.2   144  ASP144      0.3671
     67  OD1       21.9610   82.7750   88.0720 O.co2 144  ASP144     -0.2456
     68  OD2       23.4960   83.7780   89.2750 O.co2 144  ASP144     -0.2456
     69  N         23.3120   85.0240   83.5020 N.am  145  SER145     -0.1950
     70  CA        23.2280   85.9800   82.3960 C.3   145  SER145      0.1924
     71  C         22.6080   85.3350   81.1540 C.2   145  SER145      0.2314
     72  O         23.1800   84.4080   80.5680 O.2   145  SER145     -0.2863
     73  CB        24.6160   86.5370   82.0700 C.3   145  SER145      0.2116
     74  OG        24.6170   87.2380   80.8380 O.3   145  SER145     -0.2180
     75  N         25.0340   84.9290   78.1740 N.3   148  ASN148     -0.1240
     76  CA        26.0130   83.8550   78.3480 C.3   148  ASN148      0.1653
     77  C         25.3990   82.4670   78.1790 C.2   148  ASN148      0.2266
     78  O         26.0330   81.5660   77.6240 O.2   148  ASN148     -0.2867
     79  CB        26.7020   83.9660   79.7110 C.3   148  ASN148      0.1155
     80  CG        27.5820   85.2060   79.8350 C.2   148  ASN148      0.2627
     81  OD1       27.9600   85.5940   80.9410 O.2   148  ASN148     -0.2716
     82  ND2       27.9170   85.8260   78.7050 N.am  148  ASN148     -0.0877
@<TRIPOS>BOND
     1    34    33    2
     2    33    32    1
     3    35    32    1
     4    35    36    1
     5    32    31    1
     6    38    36   ar
     7    38    40   ar
     8    36    37   ar
     9    40    41   ar
    10    37    39   ar
    11    41    39   ar
    12    41    42    1
    13    78    77    2
    14    75    76    1
    15    77    76    1
    16    76    79    1
    17    82    80   am
    18     7     5    1
    19    28    26   ar
    20    28    30   ar
    21    79    80    1
    22     5     2    1
    23     5     6    1
    24    80    81    2
    25    26    25   ar
    26    30    29   ar
    27    22    21    1
    28    22    23    2
    29    21    20    1
    30    21    24    1
    31     2     1    1
    32     2     3    1
    33    72    71    2
    34     4     3    2
    35    74    73    1
    36    25    24    1
    37    25    27   ar
    38    71    70    1
    39    29    27   ar
    40     3     8   am
    41    60    59    1
    42    73    70    1
    43    70    69    1
    44     8     9    1
    45    59    56    1
    46    11    10    2
    47    69    63   am
    48     9    10    1
    49    58    57    2
    50    10    12   am
    51    56    57    1
    52    56    55    1
    53    57    61   am
    54    63    64    2
    55    63    62    1
    56    18    17    2
    57    12    13    1
    58    61    62    1
    59    17    19   am
    60    17    16    1
    61    62    65    1
    62    55    45   am
    63    13    16    1
    64    13    14    1
    65    46    45    2
    66    45    44    1
    67    14    15    2
    68    65    66    1
    69    43    44    1
    70    44    47    1
    71    67    66   ar
    72    66    68   ar
    73    47    48    1
    74    48    50   ar
    75    48    49   ar
    76    50    52   ar
    77    49    51   ar
    78    52    53   ar
    79    51    53   ar
    80    53    54    1
