@<TRIPOS>MOLECULE
tmp/3hg4B01.pdb
 84 80 0 0 0
SMALL
GASTEIGER

@<TRIPOS>ATOM
      1  N         18.4950   69.6370   65.8530 N.3     1  LEU1       -0.1231
      2  CA        19.9140   69.7190   65.3980 C.3     1  LEU1        0.1693
      3  C         20.1520   68.8210   64.1840 C.2     1  LEU1        0.2592
      4  O         19.8600   67.6210   64.2160 O.2     1  LEU1       -0.2718
      5  CB        20.8630   69.3560   66.5480 C.3     1  LEU1        0.0284
      6  CG        22.3830   69.4000   66.3460 C.3     1  LEU1        0.0019
      7  CD1       22.8470   70.7680   65.8390 C.3     1  LEU1        0.0001
      8  CD2       23.0900   69.0310   67.6440 C.3     1  LEU1        0.0001
      9  N         20.6900   69.4100   63.1230 N.am    2  ASP2       -0.1960
     10  CA        20.8910   68.7150   61.8540 C.3     2  ASP2        0.1840
     11  C         22.2490   68.0040   61.8080 C.2     2  ASP2        0.2622
     12  O         23.0720   68.2690   60.9300 O.2     2  ASP2       -0.2715
     13  CB        20.7450   69.7050   60.6840 C.3     2  ASP2        0.1450
     14  CG        20.5070   69.0130   59.3390 C.2     2  ASP2        0.3671
     15  OD1       19.9510   67.8910   59.3130 O.co2   2  ASP2       -0.2456
     16  OD2       20.8650   69.6080   58.3010 O.co2   2  ASP2       -0.2456
     17  N         22.4720   67.1020   62.7600 N.am    3  ASN3       -0.1958
     18  CA        23.6960   66.3050   62.7980 C.3     3  ASN3        0.1819
     19  C         23.4690   64.8490   62.3850 C.2     3  ASN3        0.2621
     20  O         24.3800   64.0260   62.4590 O.2     3  ASN3       -0.2715
     21  CB        24.3760   66.3990   64.1760 C.3     3  ASN3        0.1195
     22  CG        23.4710   65.9560   65.3290 C.2     3  ASN3        0.2630
     23  OD1       22.3190   65.5640   65.1310 O.2     3  ASN3       -0.2716
     24  ND2       24.0060   66.0140   66.5450 N.am    3  ASN3       -0.0877
     25  N         22.2480   64.5500   61.9440 N.am    4  GLY4       -0.1954
     26  CA        21.8630   63.2000   61.5280 C.3     4  GLY4        0.1869
     27  C         21.4950   62.2780   62.6800 C.2     4  GLY4        0.2309
     28  O         21.1730   61.1060   62.4700 O.2     4  GLY4       -0.2863
     29  N         16.9650   60.9210   65.1130 N.3     7  ARG7       -0.1245
     30  CA        15.9000   60.9370   64.1120 C.3     7  ARG7        0.1563
     31  C         14.6130   60.3900   64.7370 C.2     7  ARG7        0.2260
     32  O         13.5040   60.7230   64.3060 O.2     7  ARG7       -0.2867
     33  CB        16.2950   60.1410   62.8640 C.3     7  ARG7        0.0307
     34  CG        17.5830   60.6200   62.1610 C.3     7  ARG7        0.0489
     35  CD        17.6670   62.1480   62.0130 C.3     7  ARG7        0.2205
     36  NE        16.6830   62.6830   61.0710 N.pl3   7  ARG7       -0.0865
     37  CZ        16.4900   63.9790   60.8330 C.cat   7  ARG7        0.5346
     38  NH1       17.2140   64.8920   61.4710 N.pl3   7  ARG7        0.1354
     39  NH2       15.5740   64.3660   59.9500 N.pl3   7  ARG7        0.1354
     40  N         31.2000   70.8780   69.4260 N.3   160  LEU160     -0.1231
     41  CA        31.0530   69.4340   69.2610 C.3   160  LEU160      0.1693
     42  C         31.0730   69.0470   67.7850 C.2   160  LEU160      0.2592
     43  O         31.7060   68.0590   67.4080 O.2   160  LEU160     -0.2718
     44  CB        29.7620   68.9320   69.9240 C.3   160  LEU160      0.0284
     45  CG        29.6460   68.9770   71.4490 C.3   160  LEU160      0.0019
     46  CD1       28.1870   68.8490   71.8660 C.3   160  LEU160      0.0001
     47  CD2       30.5030   67.8990   72.1210 C.3   160  LEU160      0.0001
     48  N         30.3820   69.8360   66.9610 N.am  161  ASN161     -0.1974
     49  CA        30.3640   69.6530   65.5100 C.3   161  ASN161      0.1688
     50  C         31.7720   69.5670   64.9210 C.2   161  ASN161      0.2292
     51  O         32.0720   68.6550   64.1460 O.2   161  ASN161     -0.2864
     52  CB        29.5740   70.7940   64.8530 C.3   161  ASN161      0.1181
     53  CG        29.4040   70.6150   63.3490 C.2   161  ASN161      0.2629
     54  OD1       30.3080   70.9190   62.5650 O.2   161  ASN161     -0.2716
     55  ND2       28.2160   70.1510   62.9460 N.am  161  ASN161     -0.0877
     56  N         34.1370   66.4610   64.5200 N.3   164  GLY164     -0.1210
     57  CA        33.8670   65.4710   63.4800 C.3   164  GLY164      0.1956
     58  C         33.1400   64.2320   63.9740 C.2   164  GLY164      0.2612
     59  O         32.6500   63.4340   63.1730 O.2   164  GLY164     -0.2717
     60  N         33.0660   64.0740   65.2960 N.am  165  ARG165     -0.1965
     61  CA        32.4430   62.9050   65.9050 C.3   165  ARG165      0.1729
     62  C         30.9600   63.1400   66.1340 C.2   165  ARG165      0.2617
     63  O         30.5550   64.2270   66.5400 O.2   165  ARG165     -0.2715
     64  CB        33.1360   62.5500   67.2270 C.3   165  ARG165      0.0348
     65  CG        32.5820   61.3010   67.9130 C.3   165  ARG165      0.0492
     66  CD        33.3720   60.9370   69.1600 C.3   165  ARG165      0.2205
     67  NE        32.9080   59.6770   69.7350 N.pl3 165  ARG165     -0.0865
     68  CZ        33.3410   58.4720   69.3670 C.cat 165  ARG165      0.5346
     69  NH1       34.2640   58.3410   68.4160 N.pl3 165  ARG165      0.1354
     70  NH2       32.8440   57.3910   69.9510 N.pl3 165  ARG165      0.1354
     71  N         30.1600   62.1130   65.8660 N.am  166  SER166     -0.1936
     72  CA        28.7250   62.1580   66.1150 C.3   166  SER166      0.2055
     73  C         28.4450   62.1080   67.6100 C.2   166  SER166      0.2642
     74  O         28.7020   61.0960   68.2690 O.2   166  SER166     -0.2714
     75  CB        28.0170   61.0080   65.4040 C.3   166  SER166      0.2130
     76  OG        28.1630   61.1290   64.0020 O.3   166  SER166     -0.2179
     77  N         27.9370   63.2190   68.1370 N.am  167  ILE167     -0.1977
     78  CA        27.5930   63.3350   69.5490 C.3   167  ILE167      0.1596
     79  C         26.1720   63.8920   69.6950 C.2   167  ILE167      0.2287
     80  O         25.8580   64.9650   69.1780 O.2   167  ILE167     -0.2864
     81  CB        28.6340   64.1990   70.3240 C.3   167  ILE167      0.0276
     82  CG1       30.0240   63.5500   70.2410 C.3   167  ILE167      0.0022
     83  CG2       28.2190   64.3780   71.7830 C.3   167  ILE167      0.0022
     84  CD1       31.1990   64.4720   70.5570 C.3   167  ILE167      0.0001
@<TRIPOS>BOND
     1    16    14   ar
     2    15    14   ar
     3    14    13    1
     4    39    37    1
     5    13    10    1
     6    37    36    2
     7    37    38    1
     8    12    11    2
     9    36    35    1
    10    26    25    1
    11    26    27    1
    12    11    10    1
    13    11    17   am
    14    10     9    1
    15    25    19   am
    16    35    34    1
    17    34    33    1
    18    19    20    2
    19    19    18    1
    20    28    27    2
    21    54    53    2
    22    17    18    1
    23    18    21    1
    24    33    30    1
    25    55    53   am
    26     9     3   am
    27    59    58    2
    28    53    52    1
    29    57    58    1
    30    57    56    1
    31    58    60   am
    32    76    75    1
    33    30    31    1
    34    30    29    1
    35    51    50    2
    36    21    22    1
    37     3     4    2
    38     3     2    1
    39    32    31    2
    40    52    49    1
    41    50    49    1
    42    23    22    2
    43    60    61    1
    44    22    24   am
    45     2     1    1
    46     2     5    1
    47    75    72    1
    48    49    48    1
    49     7     6    1
    50    71    72    1
    51    71    62   am
    52    61    62    1
    53    61    64    1
    54    72    73    1
    55    62    63    2
    56     6     5    1
    57     6     8    1
    58    48    42   am
    59    64    65    1
    60    43    42    2
    61    73    77   am
    62    73    74    2
    63    42    41    1
    64    65    66    1
    65    77    78    1
    66    69    68    1
    67    66    67    1
    68    80    79    2
    69    41    40    1
    70    41    44    1
    71    68    67    2
    72    68    70    1
    73    78    79    1
    74    78    81    1
    75    44    45    1
    76    82    81    1
    77    82    84    1
    78    81    83    1
    79    45    46    1
    80    45    47    1
