@<TRIPOS>MOLECULE
tmp/3hgiA01.pdb
 138 133 0 0 0
SMALL
GASTEIGER

@<TRIPOS>ATOM
      1  N          1.4090   -4.7260   27.6190 N.3    55  LEU55      -0.1245
      2  CA         0.6180   -4.0590   26.5840 C.3    55  LEU55       0.1561
      3  C          0.0730   -2.6860   26.9980 C.2    55  LEU55       0.2260
      4  O          0.2500   -1.7030   26.2860 O.2    55  LEU55      -0.2867
      5  CB        -0.4980   -4.9950   26.0940 C.3    55  LEU55       0.0270
      6  CG        -1.3970   -4.4180   24.9970 C.3    55  LEU55       0.0019
      7  CD1       -0.6270   -4.3410   23.6910 C.3    55  LEU55       0.0001
      8  CD2       -2.6650   -5.2770   24.8190 C.3    55  LEU55       0.0001
      9  N          2.8620    0.0030   27.8620 N.3    58  ASP58      -0.1225
     10  CA         3.6060    0.4770   26.6800 C.3    58  ASP58       0.1805
     11  C          2.7390    1.3010   25.6770 C.2    58  ASP58       0.2597
     12  O          3.2750    2.2030   24.9830 O.2    58  ASP58      -0.2718
     13  CB         4.2840   -0.6590   25.9550 C.3    58  ASP58       0.1424
     14  CG         5.3910   -1.3420   26.7960 C.2    58  ASP58       0.3668
     15  OD1        5.6880   -0.9420   27.9550 O.co2  58  ASP58      -0.2456
     16  OD2        5.9490   -2.3020   26.2750 O.co2  58  ASP58      -0.2456
     17  N          1.4220    1.0190   25.6240 N.am   59  VAL59      -0.1980
     18  CA         0.5340    1.8420   24.7860 C.3    59  VAL59       0.1595
     19  C          0.2760    3.2310   25.4070 C.2    59  VAL59       0.2287
     20  O          0.4280    4.2230   24.7320 O.2    59  VAL59      -0.2864
     21  CB        -0.8110    1.1660   24.4460 C.3    59  VAL59       0.0276
     22  CG1       -1.7880    2.1760   23.7200 C.3    59  VAL59       0.0022
     23  CG2       -0.5520   -0.0260   23.5430 C.3    59  VAL59       0.0022
     24  N          9.2960    4.6020   21.7960 N.3    80  ILE80      -0.1245
     25  CA         9.1040    3.5420   22.7670 C.3    80  ILE80       0.1561
     26  C          9.6190    2.1950   22.1980 C.2    80  ILE80       0.2260
     27  O          9.4800    1.9560   20.9990 O.2    80  ILE80      -0.2867
     28  CB         7.5840    3.4300   23.1120 C.3    80  ILE80       0.0252
     29  CG1        6.7240    2.9490   21.8960 C.3    80  ILE80       0.0019
     30  CG2        7.0960    4.7450   23.7060 C.3    80  ILE80       0.0019
     31  CD1        5.2460    2.7260   22.2120 C.3    80  ILE80       0.0001
     32  N          8.0980   -0.8090   23.2410 N.3    82  GLY82      -0.1210
     33  CA         6.9710   -1.6600   23.0570 C.3    82  GLY82       0.1940
     34  C          7.3250   -3.0240   23.6590 C.2    82  GLY82       0.2454
     35  O          8.4880   -3.2380   24.1090 O.2    82  GLY82      -0.2732
     36  N          6.3580   -3.9440   23.6740 N.am   83  PRO83      -0.2717
     37  CA         6.5640   -5.1810   24.4280 C.3    83  PRO83       0.1535
     38  C          7.1580   -6.3620   23.6700 C.2    83  PRO83       0.2598
     39  O          7.1990   -7.4900   24.2400 O.2    83  PRO83      -0.2715
     40  CB         5.1430   -5.4950   24.9400 C.3    83  PRO83       0.0310
     41  CG         4.2700   -5.0040   23.8970 C.3    83  PRO83       0.0237
     42  CD         4.9860   -3.8980   23.1170 C.3    83  PRO83       0.0939
     43  N          7.7290   -6.1310   22.4820 N.am   84  TYR84      -0.1974
     44  CA         8.1120   -7.2630   21.6060 C.3    84  TYR84       0.1639
     45  C          9.6050   -7.4480   21.2480 C.2    84  TYR84       0.2290
     46  O          9.9740   -8.2980   20.4210 O.2    84  TYR84      -0.2864
     47  CB         7.2370   -7.3110   20.3380 C.3    84  TYR84       0.0560
     48  CG         5.7450   -7.3460   20.5790 C.ar   84  TYR84      -0.0198
     49  CD1        4.8990   -6.4330   19.9440 C.ar   84  TYR84      -0.0009
     50  CD2        5.1660   -8.2800   21.4480 C.ar   84  TYR84      -0.0009
     51  CE1        3.5100   -6.4570   20.1570 C.ar   84  TYR84       0.0417
     52  CE2        3.7810   -8.3090   21.6570 C.ar   84  TYR84       0.0417
     53  CZ         2.9630   -7.3980   20.9920 C.ar   84  TYR84       0.1957
     54  OH         1.5810   -7.4080   21.1830 O.3    84  TYR84      -0.2866
     55  N          4.1010  -10.6350   15.3910 N.3   140  TYR140     -0.1241
     56  CA         5.5290  -10.6120   15.7480 C.3   140  TYR140      0.1605
     57  C          5.9880  -12.0270   16.1380 C.2   140  TYR140      0.2264
     58  O          5.3130  -12.6980   16.9170 O.2   140  TYR140     -0.2867
     59  CB         5.7940   -9.6480   16.9390 C.3   140  TYR140      0.0534
     60  CG         5.7850   -8.1480   16.6160 C.ar  140  TYR140     -0.0201
     61  CD1        4.5920   -7.4450   16.4880 C.ar  140  TYR140     -0.0009
     62  CD2        6.9730   -7.4370   16.4690 C.ar  140  TYR140     -0.0009
     63  CE1        4.5860   -6.0660   16.1850 C.ar  140  TYR140      0.0417
     64  CE2        6.9700   -6.0670   16.2040 C.ar  140  TYR140      0.0417
     65  CZ         5.7720   -5.3940   16.0610 C.ar  140  TYR140      0.1957
     66  OH         5.8110   -4.0460   15.7800 O.3   140  TYR140     -0.2866
     67  N         -1.2510   -2.1440   11.9170 N.3   174  TYR174     -0.1241
     68  CA        -1.9150   -3.2790   12.5580 C.3   174  TYR174      0.1605
     69  C         -2.7320   -2.8110   13.7680 C.2   174  TYR174      0.2264
     70  O         -2.5860   -1.6490   14.2430 O.2   174  TYR174     -0.2867
     71  CB        -0.9130   -4.3720   12.9440 C.3   174  TYR174      0.0534
     72  CG         0.1360   -3.9390   13.9390 C.ar  174  TYR174     -0.0201
     73  CD1        1.4810   -3.9070   13.5810 C.ar  174  TYR174     -0.0009
     74  CD2       -0.2060   -3.5760   15.2490 C.ar  174  TYR174     -0.0009
     75  CE1        2.4440   -3.5390   14.4920 C.ar  174  TYR174      0.0417
     76  CE2        0.7730   -3.1690   16.1840 C.ar  174  TYR174      0.0417
     77  CZ         2.0890   -3.1460   15.7870 C.ar  174  TYR174      0.1957
     78  OH         3.1140   -2.7560   16.6520 O.3   174  TYR174     -0.2866
     79  N         -3.5440   -3.3880   17.7570 N.3   176  ILE176     -0.1231
     80  CA        -3.0820   -4.0670   18.9630 C.3   176  ILE176      0.1678
     81  C         -4.1440   -5.1290   19.3770 C.2   176  ILE176      0.2434
     82  O         -5.2900   -5.0690   18.9160 O.2   176  ILE176     -0.2733
     83  CB        -2.7370   -3.0520   20.1340 C.3   176  ILE176      0.0265
     84  CG1       -3.9980   -2.5050   20.7980 C.3   176  ILE176      0.0019
     85  CG2       -1.7690   -1.9240   19.6490 C.3   176  ILE176      0.0020
     86  CD1       -3.7180   -1.7470   22.1630 C.3   176  ILE176      0.0001
     87  N         -3.7540   -6.1210   20.2210 N.am  177  PRO177     -0.2729
     88  CA        -4.6790   -7.1460   20.7010 C.3   177  PRO177      0.1401
     89  C         -5.9320   -6.5290   21.3300 C.2   177  PRO177      0.2269
     90  O         -5.8150   -5.7310   22.2590 O.2   177  PRO177     -0.2865
     91  CB        -3.8780   -7.9030   21.7990 C.3   177  PRO177      0.0296
     92  CG        -2.4410   -7.5720   21.5550 C.3   177  PRO177      0.0237
     93  CD        -2.3880   -6.2620   20.7730 C.3   177  PRO177      0.0939
     94  N         -1.9480    0.9750   15.3160 N.3   195  ARG195     -0.1245
     95  CA        -0.6790    1.6840   15.1570 C.3   195  ARG195      0.1563
     96  C         -0.3610    1.8010   13.6820 C.2   195  ARG195      0.2260
     97  O         -0.6410    0.8610   12.9080 O.2   195  ARG195     -0.2867
     98  CB         0.5300    0.9650   15.8050 C.3   195  ARG195      0.0307
     99  CG         0.3510    0.5110   17.2520 C.3   195  ARG195      0.0489
    100  CD         1.6700    0.6760   17.9850 C.3   195  ARG195      0.2205
    101  NE         2.1830    2.0460   17.7810 N.pl3 195  ARG195     -0.0865
    102  CZ         3.4500    2.3560   17.5020 C.cat 195  ARG195      0.5346
    103  NH1        4.3520    1.3900   17.4060 N.pl3 195  ARG195      0.1354
    104  NH2        3.8370    3.6420   17.2960 N.pl3 195  ARG195      0.1354
    105  N          5.4050    0.5440   10.8740 N.3   198  HIS198     -0.1241
    106  CA         6.6750    0.9530   11.4880 C.3   198  HIS198      0.1621
    107  C          7.7090   -0.1520   11.5650 C.2   198  HIS198      0.2264
    108  O          7.3530   -1.3320   11.6080 O.2   198  HIS198     -0.2867
    109  CB         6.4000    1.5450   12.8940 C.3   198  HIS198      0.0745
    110  CG         5.8330    0.5620   13.8690 C.ar  198  HIS198      0.0817
    111  ND1        4.4800    0.2920   13.9660 N.ar  198  HIS198     -0.2268
    112  CD2        6.4550   -0.3220   14.6920 C.ar  198  HIS198      0.1154
    113  CE1        4.2960   -0.6680   14.8580 C.ar  198  HIS198      0.1986
    114  NE2        5.4750   -1.0450   15.3140 N.ar  198  HIS198     -0.2212
    115  N         10.9040   -1.2800   14.1950 N.3   200  HIS200     -0.1241
    116  CA        11.5360   -1.1060   15.5350 C.3   200  HIS200      0.1621
    117  C         13.0690   -1.2910   15.4140 C.2   200  HIS200      0.2264
    118  O         13.4930   -2.2400   14.7540 O.2   200  HIS200     -0.2867
    119  CB        11.0360   -2.1970   16.4670 C.3   200  HIS200      0.0745
    120  CG         9.6280   -2.0400   16.9600 C.ar  200  HIS200      0.0817
    121  ND1        9.3060   -1.2660   18.0470 N.ar  200  HIS200     -0.2268
    122  CD2        8.4730   -2.6500   16.5780 C.ar  200  HIS200      0.1154
    123  CE1        8.0150   -1.3820   18.3140 C.ar  200  HIS200      0.1986
    124  NE2        7.4960   -2.2540   17.4630 N.ar  200  HIS200     -0.2212
    125  N         11.8600    4.0130   16.4580 N.3   214  GLN214     -0.1245
    126  CA        10.9150    3.4600   15.4780 C.3   214  GLN214      0.1566
    127  C         10.9320    4.3540   14.2660 C.2   214  GLN214      0.2260
    128  O         11.1790    5.5800   14.4050 O.2   214  GLN214     -0.2867
    129  CB         9.4800    3.4600   16.0390 C.3   214  GLN214      0.0367
    130  CG         9.2650    2.3610   17.0900 C.3   214  GLN214      0.0905
    131  CD         7.8550    2.2810   17.5810 C.2   214  GLN214      0.2608
    132  OE1        6.9220    2.2210   16.7720 O.2   214  GLN214     -0.2717
    133  NE2        7.6760    2.2500   18.9150 N.am  214  GLN214     -0.0878
    134  N         -0.6710    4.6310   20.5610 N.3   228  ALA228     -0.1245
    135  CA         0.4580    4.6070   21.5270 C.3   228  ALA228      0.1562
    136  C          1.1250    5.9720   21.6460 C.2   228  ALA228      0.2260
    137  O          2.0780    6.1470   22.4480 O.2   228  ALA228     -0.2867
    138  CB         1.4990    3.5510   21.1510 C.3   228  ALA228      0.0290
@<TRIPOS>BOND
     1   105   106    1
     2   106   107    1
     3   106   109    1
     4   107   108    2
     5    67    68    1
     6    68    71    1
     7    68    69    1
     8   109   110    1
     9    97    96    2
    10    71    72    1
    11    73    72   ar
    12    73    75   ar
    13    96    95    1
    14    69    70    2
    15   110   111   ar
    16   110   112   ar
    17    72    74   ar
    18   111   113   ar
    19   115   116    1
    20   127   128    2
    21   127   126    1
    22    75    77   ar
    23   112   114   ar
    24   118   117    2
    25   113   114   ar
    26    95    94    1
    27    95    98    1
    28    74    76   ar
    29    55    56    1
    30   117   116    1
    31   126   129    1
    32   126   125    1
    33   116   119    1
    34    56    57    1
    35    56    59    1
    36    66    65    1
    37    77    76   ar
    38    77    78    1
    39    98    99    1
    40   129   130    1
    41    65    63   ar
    42    65    64   ar
    43    57    58    2
    44    63    61   ar
    45    64    62   ar
    46   119   120    1
    47    62    60   ar
    48    61    60   ar
    49   122   120   ar
    50   122   124   ar
    51    60    59    1
    52   132   131    2
    53   120   121   ar
    54   130   131    1
    55    99   100    1
    56   104   102    1
    57   103   102    1
    58   124   123   ar
    59   102   101    2
    60   131   133   am
    61    79    80    1
    62   101   100    1
    63   121   123   ar
    64    82    81    2
    65    80    81    1
    66    80    83    1
    67    81    87   am
    68    85    83    1
    69    49    51   ar
    70    49    48   ar
    71    83    84    1
    72    51    53   ar
    73    87    88    1
    74    87    93    1
    75    47    48    1
    76    47    44    1
    77    46    45    2
    78   134   135    1
    79    48    50   ar
    80    88    89    1
    81    88    91    1
    82    93    92    1
    83    84    86    1
    84    53    54    1
    85    53    52   ar
    86    27    26    2
    87   138   135    1
    88    45    44    1
    89    89    90    2
    90    50    52   ar
    91   135   136    1
    92    92    91    1
    93    44    43    1
    94   136   137    2
    95    24    25    1
    96    29    31    1
    97    29    28    1
    98    26    25    1
    99    43    38   am
   100    25    28    1
   101    33    32    1
   102    33    34    1
   103    28    30    1
   104    42    36    1
   105    42    41    1
   106    23    21    1
   107    34    36   am
   108    34    35    2
   109    38    39    2
   110    38    37    1
   111    36    37    1
   112     7     6    1
   113    22    21    1
   114    41    40    1
   115    37    40    1
   116    21    18    1
   117    20    19    2
   118    18    19    1
   119    18    17    1
   120     8     6    1
   121    12    11    2
   122     6     5    1
   123    17    11   am
   124    11    10    1
   125    13    10    1
   126    13    14    1
   127     5     2    1
   128    16    14   ar
   129     4     3    2
   130     2     3    1
   131     2     1    1
   132    10     9    1
   133    14    15   ar
