@<TRIPOS>MOLECULE
tmp/3hgiA00.pdb
 118 111 0 0 0
SMALL
GASTEIGER

@<TRIPOS>ATOM
      1  N         15.0590   -9.9410   38.4390 N.3     2  ARG2       -0.1231
      2  CA        13.9770   -8.9640   38.6260 C.3     2  ARG2        0.1694
      3  C         14.5320   -7.5560   38.4970 C.2     2  ARG2        0.2592
      4  O         15.6650   -7.2840   38.9100 O.2     2  ARG2       -0.2718
      5  CB        13.2610   -9.1500   39.9690 C.3     2  ARG2        0.0321
      6  CG        12.3580  -10.3940   40.0380 C.3     2  ARG2        0.0489
      7  CD        11.7300  -10.5550   41.4140 C.3     2  ARG2        0.2205
      8  NE        10.9400   -9.3810   41.7660 N.pl3   2  ARG2       -0.0865
      9  CZ         9.6360   -9.2340   41.5300 C.cat   2  ARG2        0.5346
     10  NH1        8.9210  -10.1950   40.9490 N.pl3   2  ARG2        0.1354
     11  NH2        9.0470   -8.1100   41.8850 N.pl3   2  ARG2        0.1354
     12  N         13.7320   -6.6640   37.9180 N.am    3  ALA3       -0.1966
     13  CA        14.1560   -5.2870   37.6900 C.3     3  ALA3        0.1728
     14  C         14.4960   -4.5880   39.0190 C.2     3  ALA3        0.2617
     15  O         13.9280   -4.9050   40.0550 O.2     3  ALA3       -0.2715
     16  CB        13.0690   -4.5320   36.9370 C.3     3  ALA3        0.0334
     17  N         15.4130   -3.6360   38.9720 N.am    4  THR4       -0.1937
     18  CA        15.8320   -2.8820   40.1530 C.3     4  THR4        0.2028
     19  C         16.1130   -1.4350   39.7750 C.2     4  THR4        0.2642
     20  O         16.4260   -1.1300   38.6280 O.2     4  THR4       -0.2714
     21  CB        17.0800   -3.5160   40.8370 C.3     4  THR4        0.1808
     22  OG1       17.2420   -2.9670   42.1520 O.3     4  THR4       -0.2208
     23  CG2       18.3620   -3.2840   40.0170 C.3     4  THR4        0.0379
     24  N         15.9690   -0.5330   40.7310 N.am    5  ALA5       -0.1977
     25  CA        16.4120    0.8440   40.5320 C.3     5  ALA5        0.1597
     26  C         16.9630    1.4060   41.8390 C.2     5  ALA5        0.2287
     27  O         16.7200    0.8670   42.9260 O.2     5  ALA5       -0.2864
     28  CB        15.2610    1.7260   39.9850 C.3     5  ALA5        0.0319
     29  N         16.2320    4.4800   43.6660 N.3     7  THR7       -0.1218
     30  CA        15.3150    5.5480   43.8610 C.3     7  THR7        0.1862
     31  C         15.3280    5.5110   45.3660 C.2     7  THR7        0.2287
     32  O         15.1650    4.4350   45.9760 O.2     7  THR7       -0.2866
     33  CB        13.9480    5.1270   43.2940 C.3     7  THR7        0.1770
     34  OG1       14.0960    4.8740   41.8940 O.3     7  THR7       -0.2211
     35  CG2       12.8660    6.1870   43.5390 C.3     7  THR7        0.0375
     36  N         10.8310    8.3420   45.9920 N.3    12  LEU12      -0.1245
     37  CA         9.6130    7.5410   45.8070 C.3    12  LEU12       0.1561
     38  C          8.4400    8.1580   46.5780 C.2    12  LEU12       0.2260
     39  O          7.3080    8.2100   46.0630 O.2    12  LEU12      -0.2867
     40  CB         9.8270    6.0730   46.2220 C.3    12  LEU12       0.0270
     41  CG         8.5700    5.1660   46.0950 C.3    12  LEU12       0.0019
     42  CD1        8.0260    5.1000   44.6320 C.3    12  LEU12       0.0001
     43  CD2        8.8290    3.7460   46.6400 C.3    12  LEU12       0.0001
     44  N          7.2430   11.0840   44.3430 N.3    15  ILE15      -0.1231
     45  CA         6.5310   10.5210   43.1750 C.3    15  ILE15       0.1692
     46  C          5.1430    9.9790   43.5500 C.2    15  ILE15       0.2591
     47  O          4.1350   10.3580   42.9420 O.2    15  ILE15      -0.2718
     48  CB         7.3560    9.4310   42.4070 C.3    15  ILE15       0.0266
     49  CG1        8.6650   10.0150   41.8140 C.3    15  ILE15       0.0019
     50  CG2        6.5180    8.8120   41.2840 C.3    15  ILE15       0.0020
     51  CD1        9.7180    8.9380   41.4610 C.3    15  ILE15       0.0001
     52  N          5.0980    9.1290   44.5700 N.am   16  ALA16      -0.1980
     53  CA         3.8450    8.4750   44.9740 C.3    16  ALA16       0.1597
     54  C          2.8120    9.5020   45.3870 C.2    16  ALA16       0.2287
     55  O          1.6710    9.4570   44.9280 O.2    16  ALA16      -0.2864
     56  CB         4.0740    7.4690   46.0840 C.3    16  ALA16       0.0319
     57  N          1.3790   11.1760   42.3410 N.3    19  ALA19      -0.1231
     58  CA         0.6650   10.2860   41.4520 C.3    19  ALA19       0.1694
     59  C         -0.6560    9.9090   42.1000 C.2    19  ALA19       0.2591
     60  O         -1.7030   10.0580   41.4750 O.2    19  ALA19      -0.2718
     61  CB         1.4860    9.0730   41.0940 C.3    19  ALA19       0.0304
     62  N         -0.6170    9.4790   43.3640 N.am   20  LEU20      -0.1980
     63  CA        -1.8760    9.2290   44.0820 C.3    20  LEU20       0.1596
     64  C         -2.7910   10.4570   44.1530 C.2    20  LEU20       0.2287
     65  O         -3.9740   10.3440   43.8820 O.2    20  LEU20      -0.2864
     66  CB        -1.6240    8.5950   45.4500 C.3    20  LEU20       0.0297
     67  CG        -1.1540    7.1440   45.2820 C.3    20  LEU20       0.0022
     68  CD1       -0.7760    6.5780   46.6150 C.3    20  LEU20       0.0001
     69  CD2       -2.2330    6.2790   44.5760 C.3    20  LEU20       0.0001
     70  N         -4.6160   11.1480   40.7100 N.3    23  LEU23      -0.1245
     71  CA        -5.7130   10.1980   40.5260 C.3    23  LEU23       0.1561
     72  C         -6.9360   10.5290   41.3980 C.2    23  LEU23       0.2260
     73  O         -8.0860   10.5220   40.9330 O.2    23  LEU23      -0.2867
     74  CB        -5.2310    8.7520   40.7930 C.3    23  LEU23       0.0270
     75  CG        -4.1870    8.2140   39.7850 C.3    23  LEU23       0.0019
     76  CD1       -3.6470    6.8220   40.1950 C.3    23  LEU23       0.0001
     77  CD2       -4.7220    8.2630   38.3160 C.3    23  LEU23       0.0001
     78  N        -13.8800   -0.3370   37.6510 N.3    40  PHE40      -0.1241
     79  CA       -12.4400   -0.0620   37.6200 C.3    40  PHE40       0.1605
     80  C        -11.6140   -1.1170   38.4010 C.2    40  PHE40       0.2264
     81  O        -10.5950   -1.5510   37.8750 O.2    40  PHE40      -0.2867
     82  CB       -12.1310    1.3780   38.0810 C.3    40  PHE40       0.0534
     83  CG       -10.6430    1.7410   38.1570 C.ar   40  PHE40      -0.0203
     84  CD1      -10.1170    2.2420   39.3550 C.ar   40  PHE40      -0.0042
     85  CD2       -9.7900    1.6570   37.0440 C.ar   40  PHE40      -0.0042
     86  CE1       -8.7610    2.6130   39.4760 C.ar   40  PHE40      -0.0003
     87  CE2       -8.4340    2.0460   37.1490 C.ar   40  PHE40      -0.0003
     88  CZ        -7.9230    2.5390   38.3570 C.ar   40  PHE40      -0.0000
     89  N         -8.8400   -3.6740   36.5290 N.3    44  LEU44      -0.1245
     90  CA        -7.4200   -3.8260   36.9450 C.3    44  LEU44       0.1561
     91  C         -7.0360   -5.3000   37.1780 C.2    44  LEU44       0.2260
     92  O         -5.9660   -5.7620   36.7170 O.2    44  LEU44      -0.2867
     93  CB        -7.1380   -2.9960   38.2250 C.3    44  LEU44       0.0270
     94  CG        -7.0390   -1.4840   37.9890 C.3    44  LEU44       0.0019
     95  CD1       -7.2520   -0.7360   39.3070 C.3    44  LEU44       0.0001
     96  CD2       -5.7250   -1.0780   37.2940 C.3    44  LEU44       0.0001
     97  N         -0.2900   -6.2130   31.3280 N.3    53  TRP53      -0.1241
     98  CA         0.4140   -5.0330   31.8700 C.3    53  TRP53       0.1605
     99  C          1.4590   -4.4410   30.9070 C.2    53  TRP53       0.2264
    100  O          1.4390   -3.2190   30.6610 O.2    53  TRP53      -0.2867
    101  CB         0.9300   -5.2490   33.3130 C.3    53  TRP53       0.0550
    102  CG        -0.2060   -5.0640   34.3380 C.ar   53  TRP53       0.0003
    103  CD1       -0.7420   -6.0250   35.1840 C.ar   53  TRP53       0.0946
    104  CD2       -0.9680   -3.8690   34.5550 C.ar   53  TRP53       0.0152
    105  NE1       -1.7700   -5.4750   35.9120 N.ar   53  TRP53      -0.2442
    106  CE2       -1.9430   -4.1650   35.5310 C.ar   53  TRP53       0.0810
    107  CE3       -0.9270   -2.5670   34.0030 C.ar   53  TRP53       0.0012
    108  CZ2       -2.8470   -3.2090   35.9870 C.ar   53  TRP53       0.0191
    109  CZ3       -1.8270   -1.6320   34.4440 C.ar   53  TRP53       0.0001
    110  CH2       -2.7730   -1.9460   35.4300 C.ar   53  TRP53       0.0015
    111  N          1.4840    4.7180   28.5920 N.3    61  ILE61      -0.1245
    112  CA         2.4560    5.3060   29.5430 C.3    61  ILE61       0.1561
    113  C          3.8810    5.4360   28.9540 C.2    61  ILE61       0.2260
    114  O          4.5920    6.4150   29.2720 O.2    61  ILE61      -0.2867
    115  CB         2.5460    4.4580   30.8670 C.3    61  ILE61       0.0252
    116  CG1        1.1870    4.3900   31.5780 C.3    61  ILE61       0.0019
    117  CG2        3.5670    4.9960   31.8590 C.3    61  ILE61       0.0019
    118  CD1        0.7050    5.7240   32.1710 C.3    61  ILE61       0.0001
@<TRIPOS>BOND
     1   111   112    1
     2   113   114    2
     3   113   112    1
     4   112   115    1
     5   100    99    2
     6   115   116    1
     7   115   117    1
     8    99    98    1
     9    97    98    1
    10   116   118    1
    11    98   101    1
    12   101   102    1
    13   107   109   ar
    14   107   104   ar
    15   102   104   ar
    16   102   103   ar
    17   109   110   ar
    18   104   106   ar
    19   103   105   ar
    20   110   108   ar
    21   106   105   ar
    22   106   108   ar
    23    89    90    1
    24    92    91    2
    25    16    13    1
    26    90    91    1
    27    90    93    1
    28    85    87   ar
    29    85    83   ar
    30    87    88   ar
    31    96    94    1
    32    79    78    1
    33    79    82    1
    34    79    80    1
    35    13    12    1
    36    13    14    1
    37    81    80    2
    38    12     3   am
    39    94    93    1
    40    94    95    1
    41    82    83    1
    42    83    84   ar
    43    77    75    1
    44    88    86   ar
    45     1     2    1
    46     3     2    1
    47     3     4    2
    48     2     5    1
    49    20    19    2
    50    17    14   am
    51    17    18    1
    52    14    15    2
    53    84    86   ar
    54    19    18    1
    55    19    24   am
    56    75    76    1
    57    75    74    1
    58     5     6    1
    59    28    25    1
    60    23    21    1
    61     6     7    1
    62    18    21    1
    63    71    70    1
    64    71    74    1
    65    71    72    1
    66    25    24    1
    67    25    26    1
    68    21    22    1
    69    73    72    2
    70    10     9    1
    71    61    58    1
    72    50    48    1
    73     7     8    1
    74    58    59    1
    75    58    57    1
    76    51    49    1
    77    60    59    2
    78     9     8    2
    79     9    11    1
    80    49    48    1
    81    26    27    2
    82    34    33    1
    83    59    62   am
    84    48    45    1
    85    47    46    2
    86    45    46    1
    87    45    44    1
    88    33    35    1
    89    33    30    1
    90    62    63    1
    91    46    52   am
    92    29    30    1
    93    30    31    1
    94    65    64    2
    95    63    64    1
    96    63    66    1
    97    52    53    1
    98    69    67    1
    99    42    41    1
   100    55    54    2
   101    53    54    1
   102    53    56    1
   103    67    66    1
   104    67    68    1
   105    31    32    2
   106    37    36    1
   107    37    40    1
   108    37    38    1
   109    39    38    2
   110    41    40    1
   111    41    43    1
