@<TRIPOS>MOLECULE
tmp/3hgjD01.pdb
 94 91 0 0 0
SMALL
GASTEIGER

@<TRIPOS>ATOM
      1  N        -27.7030  -25.1370   22.1660 N.3    22  PRO22      -0.2102
      2  CA       -26.9200  -24.2620   21.2880 C.3    22  PRO22       0.1504
      3  C        -26.3260  -23.0380   21.9850 C.2    22  PRO22       0.2576
      4  O        -27.0320  -22.2620   22.6090 O.2    22  PRO22      -0.2718
      5  CB       -27.9610  -23.7970   20.2480 C.3    22  PRO22       0.0282
      6  CG       -29.2410  -23.9790   20.9210 C.3    22  PRO22       0.0208
      7  CD       -29.0960  -25.2220   21.7070 C.3    22  PRO22       0.0893
      8  N        -25.0280  -22.8400   21.8520 N.am   23  MET23      -0.1966
      9  CA       -24.4110  -21.7290   22.5360 C.3    23  MET23       0.1736
     10  C        -23.3610  -21.1040   21.6210 C.2    23  MET23       0.2616
     11  O        -22.2650  -21.6520   21.4490 O.2    23  MET23      -0.2715
     12  CB       -23.7710  -22.2070   23.8470 C.3    23  MET23       0.0427
     13  CG       -24.7910  -22.4670   24.9720 C.3    23  MET23       0.0599
     14  SD       -24.0620  -23.0260   26.5230 S.3    23  MET23      -0.1393
     15  CE       -23.2170  -24.5580   26.0460 C.3    23  MET23       0.0692
     16  N        -23.7210  -19.9890   20.9980 N.am   24  CYS24      -0.1968
     17  CA       -22.7770  -19.2310   20.2040 C.3    24  CYS24       0.1712
     18  C        -21.4230  -19.1350   20.9070 C.2    24  CYS24       0.2296
     19  O        -21.3180  -18.7030   22.0750 O.2    24  CYS24      -0.2864
     20  CB       -23.3090  -17.8260   19.8920 C.3    24  CYS24       0.0983
     21  SG       -24.7290  -17.7850   18.7450 S.3    24  CYS24      -0.0798
     22  N        -18.8680  -17.4000   18.9460 N.3    26  TYR26      -0.1241
     23  CA       -18.2360  -16.1940   18.3270 C.3    26  TYR26       0.1605
     24  C        -16.7690  -16.4010   17.9340 C.2    26  TYR26       0.2264
     25  O        -15.9250  -15.5500   18.2380 O.2    26  TYR26      -0.2867
     26  CB       -18.3470  -14.9790   19.2790 C.3    26  TYR26       0.0534
     27  CG       -19.7610  -14.7460   19.7250 C.ar   26  TYR26      -0.0201
     28  CD1      -20.6300  -13.9860   18.9540 C.ar   26  TYR26      -0.0009
     29  CD2      -20.2660  -15.3800   20.8620 C.ar   26  TYR26      -0.0009
     30  CE1      -21.9500  -13.8150   19.3240 C.ar   26  TYR26       0.0417
     31  CE2      -21.5670  -15.2120   21.2390 C.ar   26  TYR26       0.0417
     32  CZ       -22.4110  -14.4210   20.4730 C.ar   26  TYR26       0.1957
     33  OH       -23.7290  -14.2640   20.8460 O.3    26  TYR26      -0.2866
     34  N        -26.3100  -21.3540   17.0420 N.3    57  ALA57      -0.1245
     35  CA       -26.9760  -20.6410   15.9630 C.3    57  ALA57       0.1562
     36  C        -26.0560  -20.4690   14.7500 C.2    57  ALA57       0.2260
     37  O        -24.9470  -19.9590   14.8710 O.2    57  ALA57      -0.2867
     38  CB       -27.4800  -19.2880   16.4710 C.3    57  ALA57       0.0290
     39  N        -25.5490  -12.9480   14.1810 N.3    66  ILE66      -0.1245
     40  CA       -25.3080  -12.0830   15.3300 C.3    66  ILE66       0.1561
     41  C        -23.9670  -11.3700   15.1890 C.2    66  ILE66       0.2260
     42  O        -23.9100  -10.1490   15.0740 O.2    66  ILE66      -0.2867
     43  CB       -25.4150  -12.8410   16.6870 C.3    66  ILE66       0.0252
     44  CG1      -26.8230  -13.4490   16.8360 C.3    66  ILE66       0.0019
     45  CG2      -25.1290  -11.8810   17.8710 C.3    66  ILE66       0.0019
     46  CD1      -26.9390  -14.5360   17.9700 C.3    66  ILE66       0.0001
     47  N        -28.4210  -25.7400   14.9930 N.3    99  GLN99      -0.1245
     48  CA       -29.4690  -24.7550   15.0550 C.3    99  GLN99       0.1566
     49  C        -29.3280  -23.7530   13.8980 C.2    99  GLN99       0.2260
     50  O        -28.3150  -23.0470   13.7950 O.2    99  GLN99      -0.2867
     51  CB       -29.4540  -24.0160   16.4070 C.3    99  GLN99       0.0367
     52  CG       -30.6430  -23.0900   16.5910 C.3    99  GLN99       0.0905
     53  CD       -30.5160  -22.2170   17.8190 C.2    99  GLN99       0.2608
     54  OE1      -29.5420  -21.4890   17.9610 O.2    99  GLN99      -0.2717
     55  NE2      -31.4450  -22.3800   18.7730 N.am   99  GLN99      -0.0878
     56  N        -19.5320  -10.3590   22.3830 N.3   112  PRO112     -0.2116
     57  CA       -19.8010   -9.9630   23.7570 C.3   112  PRO112      0.1372
     58  C        -18.5800   -9.3990   24.4660 C.2   112  PRO112      0.2244
     59  O        -18.6960   -8.3750   25.1400 O.2   112  PRO112     -0.2868
     60  CB       -20.2380  -11.2840   24.4070 C.3   112  PRO112      0.0268
     61  CG       -21.0070  -11.9690   23.3210 C.3   112  PRO112      0.0207
     62  CD       -20.3010  -11.5680   22.0030 C.3   112  PRO112      0.0892
     63  N        -34.3940  -21.8460   14.8240 N.3   171  HIS171     -0.1241
     64  CA       -34.3590  -20.8600   15.9080 C.3   171  HIS171      0.1621
     65  C        -35.4650  -19.8400   15.6870 C.2   171  HIS171      0.2264
     66  O        -35.3110  -18.9340   14.8500 O.2   171  HIS171     -0.2867
     67  CB       -33.0390  -20.0900   15.8270 C.3   171  HIS171      0.0745
     68  CG       -32.6620  -19.3830   17.0870 C.ar  171  HIS171      0.0817
     69  ND1      -33.5920  -18.9280   17.9990 N.ar  171  HIS171     -0.2268
     70  CD2      -31.4460  -19.0760   17.6010 C.ar  171  HIS171      0.1154
     71  CE1      -32.9630  -18.3600   19.0160 C.ar  171  HIS171      0.1986
     72  NE2      -31.6600  -18.4470   18.8050 N.ar  171  HIS171     -0.2212
     73  N        -36.0140  -15.8370   21.2030 N.3   174  HIS174     -0.1241
     74  CA       -35.0220  -14.8670   21.6700 C.3   174  HIS174      0.1621
     75  C        -34.9610  -13.5320   20.9070 C.2   174  HIS174      0.2264
     76  O        -33.9110  -12.8790   20.8590 O.2   174  HIS174     -0.2867
     77  CB       -33.6100  -15.4680   21.7510 C.3   174  HIS174      0.0745
     78  CG       -33.5220  -16.7180   22.5700 C.ar  174  HIS174      0.0817
     79  ND1      -32.4630  -17.6020   22.4720 N.ar  174  HIS174     -0.2268
     80  CD2      -34.3650  -17.2410   23.4900 C.ar  174  HIS174      0.1154
     81  CE1      -32.6570  -18.6080   23.3050 C.ar  174  HIS174      0.1986
     82  NE2      -33.8140  -18.4260   23.9140 N.ar  174  HIS174     -0.2212
     83  N        -34.9240  -12.9310   17.8150 N.3   176  TYR176     -0.1241
     84  CA       -34.3900  -12.9870   16.4740 C.3   176  TYR176      0.1605
     85  C        -35.5330  -13.0870   15.4580 C.2   176  TYR176      0.2264
     86  O        -36.6690  -12.8570   15.8110 O.2   176  TYR176     -0.2867
     87  CB       -33.3200  -14.0670   16.3480 C.3   176  TYR176      0.0534
     88  CG       -32.2030  -13.8650   17.3540 C.ar  176  TYR176     -0.0201
     89  CD1      -31.3830  -12.7470   17.2930 C.ar  176  TYR176     -0.0009
     90  CD2      -32.0020  -14.7680   18.4040 C.ar  176  TYR176     -0.0009
     91  CE1      -30.3510  -12.5430   18.2180 C.ar  176  TYR176      0.0417
     92  CE2      -30.9430  -14.5890   19.3340 C.ar  176  TYR176      0.0417
     93  CZ       -30.1460  -13.4670   19.2390 C.ar  176  TYR176      0.1957
     94  OH       -29.1660  -13.2410   20.1840 O.3   176  TYR176     -0.2866
@<TRIPOS>BOND
     1    50    49    2
     2    49    48    1
     3    39    40    1
     4    36    37    2
     5    36    35    1
     6    63    64    1
     7    66    65    2
     8    47    48    1
     9    48    51    1
    10    42    41    2
    11    41    40    1
    12    40    43    1
    13    85    86    2
    14    85    84    1
    15    65    64    1
    16    67    64    1
    17    67    68    1
    18    35    38    1
    19    35    34    1
    20    87    84    1
    21    87    88    1
    22    51    52    1
    23    84    83    1
    24    52    53    1
    25    43    44    1
    26    43    45    1
    27    44    46    1
    28    68    70   ar
    29    68    69   ar
    30    89    88   ar
    31    89    91   ar
    32    88    90   ar
    33    70    72   ar
    34    53    54    2
    35    53    55   am
    36    24    25    2
    37    24    23    1
    38    69    71   ar
    39    91    93   ar
    40    23    22    1
    41    23    26    1
    42    90    92   ar
    43    21    20    1
    44    72    71   ar
    45    28    30   ar
    46    28    27   ar
    47    93    92   ar
    48    93    94    1
    49    26    27    1
    50    30    32   ar
    51    27    29   ar
    52    20    17    1
    53    17    18    1
    54    17    16    1
    55     5     6    1
    56     5     2    1
    57    32    33    1
    58    32    31   ar
    59    76    75    2
    60    29    31   ar
    61    75    74    1
    62    18    19    2
    63     6     7    1
    64    16    10   am
    65    73    74    1
    66     2     3    1
    67     2     1    1
    68    11    10    2
    69    10     9    1
    70    74    77    1
    71     7     1    1
    72    77    78    1
    73     8     3   am
    74     8     9    1
    75     3     4    2
    76    62    56    1
    77    62    61    1
    78    56    57    1
    79    79    78   ar
    80    79    81   ar
    81     9    12    1
    82    78    80   ar
    83    81    82   ar
    84    61    60    1
    85    80    82   ar
    86    57    60    1
    87    57    58    1
    88    12    13    1
    89    58    59    2
    90    13    14    1
    91    15    14    1
