@<TRIPOS>MOLECULE
tmp/3hgmB00.pdb
 165 156 0 0 0
SMALL
GASTEIGER

@<TRIPOS>ATOM
      1  N         29.5600   15.8800   -9.5230 N.3     8  PRO8       -0.2102
      2  CA        30.4990   15.2700  -10.4680 C.3     8  PRO8        0.1504
      3  C         29.7800   14.2600  -11.3560 C.2     8  PRO8        0.2576
      4  O         29.1170   13.3520  -10.8390 O.2     8  PRO8       -0.2718
      5  CB        31.5170   14.5520   -9.5660 C.3     8  PRO8        0.0282
      6  CG        31.1810   14.9090   -8.1670 C.3     8  PRO8        0.0208
      7  CD        29.7950   15.4470   -8.1400 C.3     8  PRO8        0.0893
      8  N         29.8960   14.4240  -12.6720 N.am    9  VAL9       -0.1966
      9  CA        29.2300   13.5420  -13.6300 C.3     9  VAL9        0.1727
     10  C         30.2340   12.9120  -14.5930 C.2     9  VAL9        0.2616
     11  O         31.2050   13.5610  -14.9940 O.2     9  VAL9       -0.2715
     12  CB        28.1480   14.2970  -14.4340 C.3     9  VAL9        0.0290
     13  CG1       27.0240   14.7480  -13.5060 C.3     9  VAL9        0.0023
     14  CG2       28.7370   15.4880  -15.1950 C.3     9  VAL9        0.0023
     15  N         29.9810   11.6530  -14.9600 N.am   10  ASP10      -0.1971
     16  CA        30.8810   10.8670  -15.8220 C.3    10  ASP10       0.1709
     17  C         30.1840   10.2470  -17.0460 C.2    10  ASP10       0.2293
     18  O         30.7700    9.4200  -17.7430 O.2    10  ASP10      -0.2864
     19  CB        31.5540    9.7620  -14.9940 C.3    10  ASP10       0.1436
     20  CG        30.5590    8.7560  -14.4300 C.2    10  ASP10       0.3671
     21  OD1       29.3420    8.9800  -14.5590 O.co2  10  ASP10      -0.2456
     22  OD2       30.9950    7.7460  -13.8510 O.co2  10  ASP10      -0.2456
     23  N         27.5220    8.3580  -16.8290 N.3    12  SER12      -0.1217
     24  CA        26.8880    7.1090  -16.4140 C.3    12  SER12       0.1889
     25  C         25.4500    7.3340  -15.9700 C.2    12  SER12       0.2288
     26  O         25.0540    8.4530  -15.6410 O.2    12  SER12      -0.2866
     27  CB        27.6680    6.4620  -15.2670 C.3    12  SER12       0.2089
     28  OG        27.4930    7.1710  -14.0500 O.3    12  SER12      -0.2183
     29  N         25.4430    8.6390  -12.4750 N.3    15  ALA15      -0.1245
     30  CA        25.6520   10.0850  -12.4230 C.3    15  ALA15       0.1562
     31  C         24.3770   10.8600  -12.7540 C.2    15  ALA15       0.2260
     32  O         24.1660   11.9520  -12.2360 O.2    15  ALA15      -0.2867
     33  CB        26.7750   10.4980  -13.3690 C.3    15  ALA15       0.0290
     34  N         22.4090   10.8670   -9.6300 N.3    18  ALA18      -0.1245
     35  CA        23.0280   11.8540   -8.7430 C.3    18  ALA18       0.1562
     36  C         22.5880   13.2740   -9.1070 C.2    18  ALA18       0.2260
     37  O         22.2480   14.0600   -8.2290 O.2    18  ALA18      -0.2867
     38  CB        24.5710   11.7510   -8.7830 C.3    18  ALA18       0.0290
     39  N         30.6150   19.1220  -12.7530 N.3    36  LEU36      -0.1231
     40  CA        32.0130   18.8690  -13.0970 C.3    36  LEU36       0.1693
     41  C         32.1810   17.4970  -13.7350 C.2    36  LEU36       0.2592
     42  O         31.7460   16.4910  -13.1780 O.2    36  LEU36      -0.2718
     43  CB        32.9040   18.9580  -11.8480 C.3    36  LEU36       0.0284
     44  CG        34.3720   18.5470  -12.0630 C.3    36  LEU36       0.0019
     45  CD1       35.0550   19.5240  -12.9880 C.3    36  LEU36       0.0001
     46  CD2       35.1460   18.4220  -10.7490 C.3    36  LEU36       0.0001
     47  N         32.8290   17.4670  -14.8950 N.am   37  CYS37      -0.1956
     48  CA        33.2510   16.2220  -15.5190 C.3    37  CYS37       0.1843
     49  C         34.7680   16.2580  -15.6650 C.2    37  CYS37       0.2625
     50  O         35.3150   17.1820  -16.2670 O.2    37  CYS37      -0.2714
     51  CB        32.6030   16.0420  -16.8910 C.3    37  CYS37       0.0997
     52  SG        32.9990   14.4520  -17.6460 S.3    37  CYS37      -0.0797
     53  N         35.4260   15.2510  -15.0990 N.am   38  VAL38      -0.1977
     54  CA        36.8780   15.1500  -15.1230 C.3    38  VAL38       0.1596
     55  C         37.2850   14.1740  -16.2150 C.2    38  VAL38       0.2287
     56  O         36.7170   13.0910  -16.3190 O.2    38  VAL38      -0.2864
     57  CB        37.4300   14.6520  -13.7670 C.3    38  VAL38       0.0276
     58  CG1       38.9570   14.6550  -13.7700 C.3    38  VAL38       0.0022
     59  CG2       36.9070   15.5160  -12.6290 C.3    38  VAL38       0.0022
     60  N         40.6060   12.0410  -17.7570 N.3    40  LYS40      -0.1245
     61  CA        41.9700   11.6120  -17.4960 C.3    40  LYS40       0.1561
     62  C         42.7810   11.9570  -18.7310 C.2    40  LYS40       0.2260
     63  O         42.4640   11.5060  -19.8300 O.2    40  LYS40      -0.2867
     64  CB        42.0260   10.1140  -17.1870 C.3    40  LYS40       0.0271
     65  CG        41.4130    9.7520  -15.8400 C.3    40  LYS40       0.0035
     66  CD        41.4170    8.2480  -15.5710 C.3    40  LYS40       0.0206
     67  CE        40.9110    7.9540  -14.1570 C.3    40  LYS40       0.1093
     68  NZ        40.6470    6.5130  -13.8810 N.3    40  LYS40      -0.1314
     69  N         40.2160   11.7200  -11.2710 N.3    98  PRO98      -0.2116
     70  CA        38.8670   12.1770  -10.9140 C.3    98  PRO98       0.1372
     71  C         38.6480   12.4470   -9.4210 C.2    98  PRO98       0.2244
     72  O         38.2060   13.5380   -9.0690 O.2    98  PRO98      -0.2868
     73  CB        37.9770   11.0350  -11.4050 C.3    98  PRO98       0.0268
     74  CG        38.7280   10.4710  -12.5550 C.3    98  PRO98       0.0207
     75  CD        40.1680   10.5070  -12.1050 C.3    98  PRO98       0.0892
     76  N         37.9570   16.1790   -8.0760 N.3   102  ILE102     -0.1245
     77  CA        36.6400   16.4780   -7.4990 C.3   102  ILE102      0.1561
     78  C         36.7550   17.0610   -6.0860 C.2   102  ILE102      0.2260
     79  O         36.1550   18.0850   -5.7950 O.2   102  ILE102     -0.2867
     80  CB        35.7480   15.2190   -7.4660 C.3   102  ILE102      0.0252
     81  CG1       35.3350   14.8270   -8.8830 C.3   102  ILE102      0.0019
     82  CG2       34.5080   15.4510   -6.5830 C.3   102  ILE102      0.0019
     83  CD1       34.8260   13.4010   -9.0000 C.3   102  ILE102      0.0001
     84  N         27.0860   12.5830   -5.6790 N.3   116  ILE116     -0.1231
     85  CA        27.8600   11.6890   -6.5300 C.3   116  ILE116      0.1692
     86  C         27.1030   10.3730   -6.6690 C.2   116  ILE116      0.2592
     87  O         26.3610    9.9840   -5.7670 O.2   116  ILE116     -0.2718
     88  CB        29.2760   11.4720   -5.9170 C.3   116  ILE116      0.0266
     89  CG1       30.2430   10.8750   -6.9380 C.3   116  ILE116      0.0019
     90  CG2       29.2130   10.6040   -4.6520 C.3   116  ILE116      0.0020
     91  CD1       31.7090   11.1860   -6.6360 C.3   116  ILE116      0.0001
     92  N         27.2450    9.7130   -7.8140 N.am  117  GLY117     -0.1957
     93  CA        26.6550    8.3900   -7.9990 C.3   117  GLY117      0.1869
     94  C         27.3550    7.3610   -7.1230 C.2   117  GLY117      0.2309
     95  O         28.5510    7.4920   -6.8380 O.2   117  GLY117     -0.2863
     96  N         27.6140    4.3400   -8.1850 N.3   119  GLN119     -0.1231
     97  CA        28.3300    3.6790   -9.2720 C.3   119  GLN119      0.1698
     98  C         28.4190    4.5920  -10.4940 C.2   119  GLN119      0.2593
     99  O         27.7580    5.6320  -10.5610 O.2   119  GLN119     -0.2718
    100  CB        27.6330    2.3680   -9.6360 C.3   119  GLN119      0.0381
    101  CG        27.7570    1.3090   -8.5550 C.3   119  GLN119      0.0905
    102  CD        27.2240   -0.0430   -8.9800 C.2   119  GLN119      0.2608
    103  OE1       26.3770   -0.1430   -9.8700 O.2   119  GLN119     -0.2717
    104  NE2       27.7150   -1.0950   -8.3380 N.am  119  GLN119     -0.0878
    105  N         29.2490    4.1890  -11.4520 N.am  120  GLY120     -0.1942
    106  CA        29.5600    5.0000  -12.6230 C.3   120  GLY120      0.2014
    107  C         29.5350    4.1930  -13.9090 C.2   120  GLY120      0.2640
    108  O         28.6560    3.3560  -14.1010 O.2   120  GLY120     -0.2714
    109  N         30.4990    4.4520  -14.7910 N.am  121  THR121     -0.1936
    110  CA        30.5410    3.8180  -16.1150 C.3   121  THR121      0.2028
    111  C         30.7630    2.3090  -16.0300 C.2   121  THR121      0.2642
    112  O         30.4030    1.5690  -16.9490 O.2   121  THR121     -0.2714
    113  CB        31.6390    4.4340  -17.0220 C.3   121  THR121      0.1808
    114  OG1       32.9270    4.2410  -16.4280 O.3   121  THR121     -0.2208
    115  CG2       31.3990    5.9200  -17.2310 C.3   121  THR121      0.0379
    116  N         31.3580    1.8550  -14.9310 N.am  122  ASN122     -0.1957
    117  CA        31.5030    0.4250  -14.6690 C.3   122  ASN122      0.1819
    118  C         30.3680   -0.1380  -13.8020 C.2   122  ASN122      0.2621
    119  O         30.4980   -1.2190  -13.2290 O.2   122  ASN122     -0.2715
    120  CB        32.8650    0.1420  -14.0230 C.3   122  ASN122      0.1195
    121  CG        34.0270    0.4920  -14.9380 C.2   122  ASN122      0.2630
    122  OD1       33.9750    0.2540  -16.1430 O.2   122  ASN122     -0.2716
    123  ND2       35.0820    1.0660  -14.3670 N.am  122  ASN122     -0.0877
    124  N         29.2470    0.5800  -13.7350 N.am  123  GLY123     -0.1954
    125  CA        28.1250    0.1970  -12.8840 C.3   123  GLY123      0.1869
    126  C         27.4100   -1.0580  -13.3420 C.2   123  GLY123      0.2309
    127  O         27.3950   -1.3820  -14.5330 O.2   123  GLY123     -0.2863
    128  N         28.5510   -2.8720   -5.0450 N.3   128  LEU128     -0.1231
    129  CA        29.8990   -2.3620   -4.8030 C.3   128  LEU128      0.1693
    130  C         29.9170   -0.8410   -4.9690 C.2   128  LEU128      0.2592
    131  O         29.4580   -0.3170   -5.9830 O.2   128  LEU128     -0.2718
    132  CB        30.9260   -3.0340   -5.7320 C.3   128  LEU128      0.0284
    133  CG        30.8530   -2.8730   -7.2600 C.3   128  LEU128      0.0019
    134  CD1       31.5390   -1.5950   -7.7390 C.3   128  LEU128      0.0001
    135  CD2       31.4850   -4.0840   -7.9470 C.3   128  LEU128      0.0001
    136  N         30.4250   -0.1440   -3.9570 N.am  129  LEU129     -0.1966
    137  CA        30.6110    1.2950   -4.0280 C.3   129  LEU129      0.1728
    138  C         31.7160    1.5760   -5.0380 C.2   129  LEU129      0.2617
    139  O         32.7720    0.9410   -5.0020 O.2   129  LEU129     -0.2715
    140  CB        30.9880    1.8530   -2.6540 C.3   129  LEU129      0.0311
    141  CG        31.0710    3.3720   -2.4800 C.3   129  LEU129      0.0022
    142  CD1       29.7390    4.0350   -2.7740 C.3   129  LEU129      0.0001
    143  CD2       31.5270    3.7130   -1.0720 C.3   129  LEU129      0.0001
    144  N         31.4630    2.5070   -5.9500 N.am  130  GLY130     -0.1940
    145  CA        32.4540    2.8850   -6.9470 C.3   130  GLY130      0.2014
    146  C         33.7020    3.4460   -6.2920 C.2   130  GLY130      0.2640
    147  O         33.6450    4.0060   -5.1920 O.2   130  GLY130     -0.2714
    148  N         34.8330    3.2970   -6.9670 N.am  131  SER131     -0.1935
    149  CA        36.1150    3.7250   -6.4070 C.3   131  SER131      0.2055
    150  C         36.2160    5.2440   -6.2510 C.2   131  SER131      0.2643
    151  O         36.8010    5.7250   -5.2840 O.2   131  SER131     -0.2714
    152  CB        37.2720    3.1990   -7.2600 C.3   131  SER131      0.2130
    153  OG        37.1220    3.5610   -8.6190 O.3   131  SER131     -0.2179
    154  N         35.6440    5.9960   -7.1900 N.am  132  VAL132     -0.1963
    155  CA        35.6640    7.4590   -7.1080 C.3   132  VAL132      0.1727
    156  C         34.7120    7.9290   -5.9970 C.2   132  VAL132      0.2616
    157  O         35.0560    8.7980   -5.1950 O.2   132  VAL132     -0.2715
    158  CB        35.3100    8.1260   -8.4610 C.3   132  VAL132      0.0290
    159  CG1       35.3270    9.6570   -8.3390 C.3   132  VAL132      0.0023
    160  CG2       36.2710    7.6730   -9.5530 C.3   132  VAL132      0.0023
    161  N         33.5190    7.3410   -5.9570 N.am  133  ALA133     -0.1977
    162  CA        32.5750    7.5860   -4.8770 C.3   133  ALA133      0.1597
    163  C         33.2070    7.3230   -3.5040 C.2   133  ALA133      0.2287
    164  O         33.0870    8.1440   -2.5960 O.2   133  ALA133     -0.2864
    165  CB        31.3320    6.7290   -5.0610 C.3   133  ALA133      0.0319
@<TRIPOS>BOND
     1    63    62    2
     2    62    61    1
     3    60    61    1
     4    18    17    2
     5    52    51    1
     6    61    64    1
     7   115   113    1
     8    64    65    1
     9    17    16    1
    10   113   114    1
    11   113   110    1
    12   112   111    2
    13    51    48    1
    14    23    24    1
    15    24    25    1
    16    24    27    1
    17    56    55    2
    18    50    49    2
    19    55    54    1
    20   122   121    2
    21   110   111    1
    22   110   109    1
    23   111   116   am
    24    25    26    2
    25    65    66    1
    26    16    19    1
    27    16    15    1
    28    49    48    1
    29    49    53   am
    30    66    67    1
    31    48    47    1
    32    27    28    1
    33    14    12    1
    34    54    53    1
    35    54    57    1
    36    19    20    1
    37    11    10    2
    38    15    10   am
    39   121   123   am
    40   121   120    1
    41   116   117    1
    42    47    41   am
    43   109   107   am
    44   117   120    1
    45   117   118    1
    46    10     9    1
    47    21    20   ar
    48   127   126    2
    49    12     9    1
    50    12    13    1
    51    20    22   ar
    52    67    68    1
    53   108   107    2
    54   107   106    1
    55   118   124   am
    56   118   119    2
    57    58    57    1
    58    57    59    1
    59   124   125    1
    60    41    42    2
    61    41    40    1
    62     9     8    1
    63    33    30    1
    64   126   125    1
    65    40    39    1
    66    40    43    1
    67    45    44    1
    68    31    30    1
    69    31    32    2
    70     8     3   am
    71   106   105    1
    72    74    75    1
    73    74    73    1
    74    29    30    1
    75    75    69    1
    76    44    43    1
    77    44    46    1
    78   105    98   am
    79    73    70    1
    80     3     4    2
    81     3     2    1
    82    69    70    1
    83    70    71    1
    84    99    98    2
    85    98    97    1
    86     2     5    1
    87     2     1    1
    88   103   102    2
    89   100    97    1
    90   100   101    1
    91    34    35    1
    92     5     6    1
    93   160   158    1
    94     1     7    1
    95    71    72    2
    96    97    96    1
    97    36    35    1
    98    36    37    2
    99    83    81    1
   100   102   101    1
   101   102   104   am
   102    81    80    1
   103    38    35    1
   104   153   152    1
   105   158   159    1
   106   158   155    1
   107     6     7    1
   108    76    77    1
   109    93    92    1
   110    93    94    1
   111   135   133    1
   112    92    86   am
   113   134   133    1
   114    77    80    1
   115    77    78    1
   116    80    82    1
   117   133   132    1
   118   152   149    1
   119   154   155    1
   120   154   150   am
   121    94    95    2
   122   155   156    1
   123   148   149    1
   124   148   146   am
   125   145   146    1
   126   145   144    1
   127    89    91    1
   128    89    88    1
   129    86    85    1
   130    86    87    2
   131    85    88    1
   132    85    84    1
   133   149   150    1
   134   146   147    2
   135   150   151    2
   136    78    79    2
   137   156   161   am
   138   156   157    2
   139   131   130    2
   140   161   162    1
   141   144   138   am
   142    88    90    1
   143   132   129    1
   144   165   162    1
   145   128   129    1
   146   138   139    2
   147   138   137    1
   148   130   129    1
   149   130   136   am
   150   162   163    1
   151   137   136    1
   152   137   140    1
   153   163   164    2
   154   142   141    1
   155   140   141    1
   156   141   143    1
