@<TRIPOS>MOLECULE
tmp/3hgpA00.pdb
 141 136 0 0 0
SMALL
GASTEIGER

@<TRIPOS>ATOM
      1  N          0.9270    3.1910   -5.1370 N.3    29  THR29      -0.1203
      2  CA         1.8640    4.2100   -4.6870 C.3    29  THR29       0.1994
      3  C          2.5010    3.8850   -3.3340 C.2    29  THR29       0.2618
      4  O          3.6570    4.2620   -3.1040 O.2    29  THR29      -0.2717
      5  CB         1.1970    5.5940   -4.6630 C.3    29  THR29       0.1784
      6  OG1        2.1400    6.6110   -4.3760 O.3    29  THR29      -0.2211
      7  CG2        0.0630    5.7600   -3.6750 C.3    29  THR29       0.0376
      8  N          1.7580    3.2410   -2.4170 N.am   30  CYS30      -0.1969
      9  CA         2.2650    3.0440   -1.0590 C.3    30  CYS30       0.1712
     10  C          1.6430    1.7650   -0.4850 C.2    30  CYS30       0.2296
     11  O          0.6410    1.2760   -0.9800 O.2    30  CYS30      -0.2864
     12  CB         1.8830    4.2020   -0.1430 C.3    30  CYS30       0.0983
     13  SG         2.9340    5.6710   -0.3650 S.3    30  CYS30      -0.0798
     14  N          3.3090   11.0560    4.1890 N.3    45  HIS45      -0.1241
     15  CA         3.8090   11.5370    2.9120 C.3    45  HIS45       0.1621
     16  C          3.1350   10.8430    1.7380 C.2    45  HIS45       0.2264
     17  O          3.1960   11.3190    0.6120 O.2    45  HIS45      -0.2867
     18  CB         5.3170   11.4420    2.8200 C.3    45  HIS45       0.0745
     19  CG         5.9000   10.0830    2.6270 C.ar   45  HIS45       0.0817
     20  ND1        6.4990    9.3580    3.6440 N.ar   45  HIS45      -0.2268
     21  CD2        6.0100    9.3190    1.5180 C.ar   45  HIS45       0.1154
     22  CE1        6.9620    8.2190    3.1480 C.ar   45  HIS45       0.1986
     23  NE2        6.6570    8.1740    1.8700 N.ar   45  HIS45      -0.2212
     24  N          6.6940   16.9880    2.9130 N.3    86  ASP86      -0.1239
     25  CA         7.9570   16.7270    2.2150 C.3    86  ASP86       0.1674
     26  C          9.0930   16.7690    3.2170 C.2    86  ASP86       0.2266
     27  O         10.2490   17.0430    2.7910 O.2    86  ASP86      -0.2867
     28  CB         8.1690   17.6220    1.0150 C.3    86  ASP86       0.1410
     29  CG         7.2430   17.4770   -0.1290 C.2    86  ASP86       0.3668
     30  OD1        6.9030   18.4610   -0.8560 O.co2  86  ASP86      -0.2456
     31  OD2        6.7170   16.3270   -0.2840 O.co2  86  ASP86      -0.2456
     32  N         10.4600   14.1980    5.8530 N.3    88  VAL88      -0.1231
     33  CA        10.4390   12.9020    6.5510 C.3    88  VAL88       0.1692
     34  C         11.2840   12.9430    7.8050 C.2    88  VAL88       0.2591
     35  O         10.9560   12.2880    8.8220 O.2    88  VAL88      -0.2718
     36  CB        10.8580   11.7360    5.6750 C.3    88  VAL88       0.0266
     37  CG1        9.8090   11.4430    4.6250 C.3    88  VAL88       0.0020
     38  CG2       12.2460   11.9110    5.0500 C.3    88  VAL88       0.0020
     39  N         12.4130   13.6800    7.8230 N.am   89  ALA89      -0.1980
     40  CA        13.2860   13.5960    8.9750 C.3    89  ALA89       0.1597
     41  C         12.7280   14.2850   10.2080 C.2    89  ALA89       0.2287
     42  O         13.1880   14.0060   11.3230 O.2    89  ALA89      -0.2864
     43  CB        14.6810   14.1730    8.6370 C.3    89  ALA89       0.0319
     44  N         22.7080    7.0300   11.0030 N.3   164  TRP164     -0.1241
     45  CA        21.8790    8.1860   10.5470 C.3   164  TRP164      0.1605
     46  C         22.1250    9.4720   11.3360 C.2   164  TRP164      0.2264
     47  O         21.5480   10.5060   10.9860 O.2   164  TRP164     -0.2867
     48  CB        20.4560    7.7940   10.6220 C.3   164  TRP164      0.0550
     49  CG        19.9010    6.9910    9.4870 C.ar  164  TRP164      0.0003
     50  CD1       19.6130    5.6660    9.4040 C.ar  164  TRP164      0.0946
     51  CD2       19.5640    7.5430    8.2010 C.ar  164  TRP164      0.0152
     52  NE1       19.1180    5.3560    8.1800 N.ar  164  TRP164     -0.2442
     53  CE2       19.0510    6.5040    7.4310 C.ar  164  TRP164      0.0810
     54  CE3       19.6100    8.8370    7.6500 C.ar  164  TRP164      0.0012
     55  CZ2       18.5740    6.7010    6.1410 C.ar  164  TRP164      0.0191
     56  CZ3       19.1400    9.0520    6.3710 C.ar  164  TRP164      0.0001
     57  CH2       18.6120    7.9920    5.6160 C.ar  164  TRP164      0.0015
     58  N         19.4930   12.6700   12.1040 N.3   167  THR167     -0.1218
     59  CA        18.3090   12.4900   11.2940 C.3   167  THR167      0.1862
     60  C         17.2640   11.6550   11.9480 C.2   167  THR167      0.2287
     61  O         16.0380   11.8560   11.7680 O.2   167  THR167     -0.2866
     62  CB        18.7280   11.8360    9.9460 C.3   167  THR167      0.1770
     63  OG1       19.5860   12.7760    9.2560 O.3   167  THR167     -0.2211
     64  CG2       17.5650   11.4890    9.0890 C.3   167  THR167      0.0375
     65  N         13.7130   -1.2630    2.2740 N.3   183  GLY183     -0.1210
     66  CA        12.5840   -0.6830    1.5760 C.3   183  GLY183      0.1956
     67  C         13.0480    0.1300    0.3730 C.2   183  GLY183      0.2612
     68  O         14.2230    0.5030    0.2380 O.2   183  GLY183     -0.2717
     69  N         12.0950    0.4440   -0.5070 N.am  184  CYS184     -0.1956
     70  CA        12.3720    1.2790   -1.6580 C.3   184  CYS184      0.1843
     71  C         11.0390    1.8490   -2.1520 C.2   184  CYS184      0.2625
     72  O          9.9810    1.4490   -1.6370 O.2   184  CYS184     -0.2714
     73  CB        13.1680    0.4970   -2.7080 C.3   184  CYS184      0.0997
     74  SG        14.2000    1.4450   -3.8560 S.3   184  CYS184     -0.0797
     75  N         11.0440    2.7740   -3.1100 N.am  185  GLN185     -0.1963
     76  CA         9.8470    3.5510   -3.3890 C.3   185  GLN185      0.1733
     77  C          8.6520    2.6450   -3.7420 C.2   185  GLN185      0.2616
     78  O          8.7000    1.8040   -4.6510 O.2   185  GLN185     -0.2715
     79  CB        10.0460    4.5620   -4.5210 C.3   185  GLN185      0.0408
     80  CG        10.8720    5.7970   -4.1640 C.3   185  GLN185      0.0908
     81  CD        12.3520    5.6090   -4.2810 C.2   185  GLN185      0.2608
     82  OE1       12.8920    4.4830   -4.3640 O.2   185  GLN185     -0.2717
     83  NE2       13.0820    6.7070   -4.3420 N.am  185  GLN185     -0.0878
     84  N          7.5590    2.8960   -3.0410 N.am  186  GLY186     -0.1955
     85  CA         6.3620    2.1180   -3.0970 C.3   186  GLY186      0.1869
     86  C          6.1190    1.2590   -1.8930 C.2   186  GLY186      0.2309
     87  O          5.0120    0.7610   -1.6830 O.2   186  GLY186     -0.2863
     88  N          6.7340    2.6320    1.1920 N.3   188  SER188     -0.1217
     89  CA         6.3040    3.6760    2.0690 C.3   188  SER188      0.1889
     90  C          4.8960    3.4080    2.5830 C.2   188  SER188      0.2288
     91  O          4.0080    3.0920    1.8190 O.2   188  SER188     -0.2866
     92  CB         6.1790    5.0030    1.3020 C.3   188  SER188      0.2089
     93  OG         7.4330    5.6580    1.0320 O.3   188  SER188     -0.2183
     94  N          6.6810    2.2740    7.1400 N.3   206  THR206     -0.1203
     95  CA         7.8600    2.5870    6.3370 C.3   206  THR206      0.1994
     96  C          7.8650    4.0460    5.9370 C.2   206  THR206      0.2619
     97  O          6.8620    4.5610    5.4090 O.2   206  THR206     -0.2717
     98  CB         7.8600    1.6620    5.0960 C.3   206  THR206      0.1784
     99  OG1        7.7850    0.3190    5.5780 O.3   206  THR206     -0.2211
    100  CG2        9.1580    1.8440    4.2960 C.3   206  THR206      0.0376
    101  N          8.9850    4.7260    6.1540 N.am  207  SER207     -0.1937
    102  CA         9.0620    6.1590    5.9090 C.3   207  SER207      0.2055
    103  C         10.1080    6.5530    4.8690 C.2   207  SER207      0.2643
    104  O          9.7310    7.1370    3.8370 O.2   207  SER207     -0.2714
    105  CB         9.2300    6.9150    7.2390 C.3   207  SER207      0.2130
    106  OG         9.2640    8.3120    7.0510 O.3   207  SER207     -0.2179
    107  N         11.4090    6.3170    5.1150 N.am  208  PHE208     -0.1959
    108  CA        12.4140    6.8710    4.1870 C.3   208  PHE208      0.1771
    109  C         13.7010    6.0440    4.1970 C.2   208  PHE208      0.2619
    110  O         13.9510    5.2040    5.0380 O.2   208  PHE208     -0.2715
    111  CB        12.6690    8.3650    4.5260 C.3   208  PHE208      0.0574
    112  CG        13.3470    8.6830    5.8410 C.ar  208  PHE208     -0.0200
    113  CD1       12.6030    8.8520    6.9900 C.ar  208  PHE208     -0.0042
    114  CD2       14.7260    8.8350    5.9060 C.ar  208  PHE208     -0.0042
    115  CE1       13.1980    9.2090    8.1650 C.ar  208  PHE208     -0.0003
    116  CE2       15.3150    9.1730    7.1130 C.ar  208  PHE208     -0.0003
    117  CZ        14.5690    9.3550    8.2560 C.ar  208  PHE208     -0.0000
    118  N         14.5080    6.3990    3.1690 N.am  209  VAL209     -0.1963
    119  CA        15.7990    5.8200    2.9170 C.3   209  VAL209      0.1727
    120  C         16.8110    6.9620    2.6530 C.2   209  VAL209      0.2617
    121  O         16.4920    8.1290    2.5400 O.2   209  VAL209     -0.2715
    122  CB        15.7760    4.7910    1.7730 C.3   209  VAL209      0.0290
    123  CG1       14.8810    3.6170    2.1230 C.3   209  VAL209      0.0023
    124  CG2       15.4080    5.4530    0.4310 C.3   209  VAL209      0.0023
    125  N         18.0790    6.5290    2.4940 N.am  210  SER210     -0.1936
    126  CA        19.2030    7.3890    2.2100 C.3   210  SER210      0.2055
    127  C         19.0820    8.1140    0.8890 C.2   210  SER210      0.2642
    128  O         18.5650    7.6220   -0.0930 O.2   210  SER210     -0.2714
    129  CB        20.4610    6.4800    2.1760 C.3   210  SER210      0.2130
    130  OG        21.6000    7.0720    1.6420 O.3   210  SER210     -0.2179
    131  N         19.7250    9.3040    0.8720 N.am  211  ARG211     -0.1977
    132  CA        19.9280   10.0210   -0.3730 C.3   211  ARG211      0.1597
    133  C         20.8710    9.2870   -1.2970 C.2   211  ARG211      0.2287
    134  O         20.9270    9.7070   -2.4990 O.2   211  ARG211     -0.2864
    135  CB        20.4090   11.4500   -0.1320 C.3   211  ARG211      0.0334
    136  CG        19.4200   12.2860    0.7100 C.3   211  ARG211      0.0492
    137  CD        19.7080   13.7870    0.5790 C.3   211  ARG211      0.2205
    138  NE        18.8920   14.6530    1.4290 N.pl3 211  ARG211     -0.0865
    139  CZ        17.6550   14.9580    1.1820 C.cat 211  ARG211      0.5346
    140  NH1       17.0540   14.4690    0.0870 N.pl3 211  ARG211      0.1354
    141  NH2       17.0470   15.7410    1.9760 N.pl3 211  ARG211      0.1354
@<TRIPOS>BOND
     1     1     2    1
     2     2     5    1
     3     2     3    1
     4     5     6    1
     5     5     7    1
     6    78    77    2
     7    79    80    1
     8    79    76    1
     9    82    81    2
    10    83    81   am
    11    81    80    1
    12    74    73    1
    13    77    76    1
    14    77    84   am
    15    76    75    1
    16     3     4    2
    17     3     8   am
    18    75    71   am
    19    85    84    1
    20    85    86    1
    21    73    70    1
    22   134   133    2
    23     8     9    1
    24    71    70    1
    25    71    72    2
    26    86    87    2
    27    70    69    1
    28   133   132    1
    29     9    10    1
    30     9    12    1
    31    11    10    2
    32    30    29   ar
    33    69    67   am
    34   132   135    1
    35   132   131    1
    36    13    12    1
    37    31    29   ar
    38   135   136    1
    39    29    28    1
    40   128   127    2
    41   140   139    1
    42    68    67    2
    43    67    66    1
    44   124   122    1
    45   137   136    1
    46   137   138    1
    47    17    16    2
    48   131   127   am
    49   127   126    1
    50    28    25    1
    51    93    92    1
    52   139   138    2
    53   139   141    1
    54    88    89    1
    55    92    89    1
    56    21    23   ar
    57    21    19   ar
    58    66    65    1
    59   130   129    1
    60    16    15    1
    61   122   123    1
    62   122   119    1
    63    91    90    2
    64    23    22   ar
    65    89    90    1
    66   129   126    1
    67   126   125    1
    68    25    24    1
    69    25    26    1
    70   125   120   am
    71   121   120    2
    72    19    18    1
    73    19    20   ar
    74   120   119    1
    75    27    26    2
    76    18    15    1
    77    15    14    1
    78   119   118    1
    79    22    20   ar
    80   118   109   am
    81   104   103    2
    82   108   109    1
    83   108   111    1
    84   108   107    1
    85   109   110    2
    86   100    98    1
    87   111   112    1
    88    37    36    1
    89   103   107   am
    90   103   102    1
    91    38    36    1
    92    98    99    1
    93    98    95    1
    94    97    96    2
    95    57    55   ar
    96    57    56   ar
    97    36    33    1
    98   112   114   ar
    99   112   113   ar
   100    32    33    1
   101   114   116   ar
   102   102   101    1
   103   102   105    1
   104    96   101   am
   105    96    95    1
   106    55    53   ar
   107    95    94    1
   108    56    54   ar
   109    33    34    1
   110   113   115   ar
   111   106   105    1
   112   116   117   ar
   113    53    52   ar
   114    53    51   ar
   115    54    51   ar
   116    34    39   am
   117    34    35    2
   118    39    40    1
   119   115   117   ar
   120    52    50   ar
   121    51    49   ar
   122    43    40    1
   123    40    41    1
   124    64    62    1
   125    63    62    1
   126    50    49   ar
   127    49    48    1
   128    62    59    1
   129    41    42    2
   130    45    48    1
   131    45    44    1
   132    45    46    1
   133    47    46    2
   134    59    60    1
   135    59    58    1
   136    61    60    2
