@<TRIPOS>MOLECULE
tmp/3hgrB01.pdb
 112 109 0 0 0
SMALL
GASTEIGER

@<TRIPOS>ATOM
      1  N         31.7110   64.0810   50.2800 N.3    28  THR28      -0.1218
      2  CA        32.2210   63.7130   51.5860 C.3    28  THR28       0.1862
      3  C         31.0600   63.1520   52.3980 C.2    28  THR28       0.2287
      4  O         30.0760   63.8490   52.6620 O.2    28  THR28      -0.2866
      5  CB        32.8110   64.9260   52.2870 C.3    28  THR28       0.1770
      6  OG1       34.0420   65.2770   51.6400 O.3    28  THR28      -0.2211
      7  CG2       33.0500   64.6370   53.7750 C.3    28  THR28       0.0375
      8  N         31.8250   61.0680   55.2740 N.3    30  GLN30      -0.1245
      9  CA        32.3700   60.7940   56.6040 C.3    30  GLN30       0.1566
     10  C         32.0620   59.3910   57.1470 C.2    30  GLN30       0.2260
     11  O         31.7240   59.2160   58.3260 O.2    30  GLN30      -0.2867
     12  CB        31.8840   61.8600   57.5890 C.3    30  GLN30       0.0367
     13  CG        32.2740   63.2770   57.1830 C.3    30  GLN30       0.0905
     14  CD        32.1370   64.2760   58.3130 C.2    30  GLN30       0.2608
     15  OE1       32.9710   64.3270   59.2230 O.2    30  GLN30      -0.2717
     16  NE2       31.0750   65.0710   58.2690 N.am   30  GLN30      -0.0878
     17  N         36.1880   63.8320   48.4940 N.3    59  ALA59      -0.1245
     18  CA        37.4690   64.4620   48.8080 C.3    59  ALA59       0.1562
     19  C         38.3150   63.5090   49.6510 C.2    59  ALA59       0.2260
     20  O         37.9030   63.0880   50.7290 O.2    59  ALA59      -0.2867
     21  CB        37.2480   65.7670   49.5600 C.3    59  ALA59       0.0290
     22  N         38.1300   66.8520   59.2600 N.3    69  TYR69      -0.1241
     23  CA        36.8440   66.1960   59.4710 C.3    69  TYR69       0.1605
     24  C         37.0560   64.7500   59.8930 C.2    69  TYR69       0.2264
     25  O         38.0480   64.1290   59.5130 O.2    69  TYR69      -0.2867
     26  CB        36.0340   66.1910   58.1730 C.3    69  TYR69       0.0534
     27  CG        35.7530   67.5500   57.5780 C.ar   69  TYR69      -0.0201
     28  CD1       34.5720   68.2320   57.8730 C.ar   69  TYR69      -0.0009
     29  CD2       36.6440   68.1320   56.6750 C.ar   69  TYR69      -0.0009
     30  CE1       34.2830   69.4560   57.2750 C.ar   69  TYR69       0.0417
     31  CE2       36.3630   69.3530   56.0720 C.ar   69  TYR69       0.0417
     32  CZ        35.1820   70.0050   56.3730 C.ar   69  TYR69       0.1957
     33  OH        34.8830   71.1880   55.7440 O.3    69  TYR69      -0.2866
     34  N         39.3910   62.4930   43.9680 N.3   101  GLN101     -0.1245
     35  CA        39.6020   63.9040   44.2800 C.3   101  GLN101      0.1566
     36  C         40.5950   63.9990   45.4360 C.2   101  GLN101      0.2260
     37  O         40.3020   63.5420   46.5470 O.2   101  GLN101     -0.2867
     38  CB        38.2980   64.6030   44.6810 C.3   101  GLN101      0.0367
     39  CG        38.5000   66.0960   44.9330 C.3   101  GLN101      0.0905
     40  CD        37.2310   66.8130   45.3880 C.2   101  GLN101      0.2608
     41  OE1       36.6930   66.5400   46.4690 O.2   101  GLN101     -0.2717
     42  NE2       36.7510   67.7430   44.5630 N.am  101  GLN101     -0.0878
     43  N         42.6220   66.0590   48.1990 N.3   103  TRP103     -0.1241
     44  CA        42.3150   67.2150   49.0310 C.3   103  TRP103      0.1605
     45  C         43.1940   67.4860   50.2490 C.2   103  TRP103      0.2264
     46  O         43.7990   66.5840   50.8160 O.2   103  TRP103     -0.2867
     47  CB        40.8660   66.9730   49.4640 C.3   103  TRP103      0.0550
     48  CG        40.1830   67.8180   50.4820 C.ar  103  TRP103      0.0003
     49  CD1       39.9840   69.1690   50.4310 C.ar  103  TRP103      0.0946
     50  CD2       39.3160   67.3300   51.5250 C.ar  103  TRP103      0.0152
     51  NE1       39.0280   69.5480   51.3510 N.ar  103  TRP103     -0.2442
     52  CE2       38.6000   68.4380   52.0330 C.ar  103  TRP103      0.0810
     53  CE3       39.0640   66.0530   52.0650 C.ar  103  TRP103      0.0012
     54  CZ2       37.6360   68.3120   53.0580 C.ar  103  TRP103      0.0191
     55  CZ3       38.1020   65.9240   53.0860 C.ar  103  TRP103      0.0001
     56  CH2       37.4000   67.0510   53.5670 C.ar  103  TRP103      0.0015
     57  N         41.5970   69.3450   44.1680 N.3   178  HIS178     -0.1241
     58  CA        40.5350   70.1120   44.8190 C.3   178  HIS178      0.1621
     59  C         40.8850   71.5750   44.9950 C.2   178  HIS178      0.2264
     60  O         41.4220   71.9700   46.0250 O.2   178  HIS178     -0.2867
     61  CB        40.2030   69.5020   46.1770 C.3   178  HIS178      0.0745
     62  CG        38.8810   69.9390   46.7300 C.ar  178  HIS178      0.0817
     63  ND1       38.3720   71.2050   46.5320 N.ar  178  HIS178     -0.2268
     64  CD2       37.9790   69.2890   47.5070 C.ar  178  HIS178      0.1154
     65  CE1       37.2160   71.3170   47.1640 C.ar  178  HIS178      0.1986
     66  NE2       36.9560   70.1680   47.7650 N.ar  178  HIS178     -0.2212
     67  N         36.0280   75.4980   47.3580 N.3   181  HIS181     -0.1241
     68  CA        35.3740   75.5800   48.6670 C.3   181  HIS181      0.1621
     69  C         36.1810   76.0310   49.8550 C.2   181  HIS181      0.2264
     70  O         35.9950   75.5410   50.9630 O.2   181  HIS181     -0.2867
     71  CB        34.7390   74.2350   48.9670 C.3   181  HIS181      0.0745
     72  CG        33.7960   73.7860   47.9020 C.ar  181  HIS181      0.0817
     73  ND1       33.5590   72.4600   47.6260 N.ar  181  HIS181     -0.2268
     74  CD2       33.0180   74.4940   47.0480 C.ar  181  HIS181      0.1154
     75  CE1       32.6730   72.3670   46.6490 C.ar  181  HIS181      0.1986
     76  NE2       32.3290   73.5880   46.2820 N.ar  181  HIS181     -0.2212
     77  N         39.2070   75.4580   50.6240 N.3   183  TYR183     -0.1241
     78  CA        40.2010   74.5650   51.1890 C.3   183  TYR183      0.1605
     79  C         41.6120   75.0560   50.8690 C.2   183  TYR183      0.2264
     80  O         41.7540   76.1700   50.3500 O.2   183  TYR183     -0.2867
     81  CB        39.9020   73.1310   50.7750 C.3   183  TYR183      0.0534
     82  CG        38.6340   72.6710   51.4650 C.ar  183  TYR183     -0.0201
     83  CD1       38.5100   72.7540   52.8650 C.ar  183  TYR183     -0.0009
     84  CD2       37.5220   72.2620   50.7400 C.ar  183  TYR183     -0.0009
     85  CE1       37.2980   72.4550   53.5170 C.ar  183  TYR183      0.0417
     86  CE2       36.3080   71.9590   51.3880 C.ar  183  TYR183      0.0417
     87  CZ        36.2010   72.0660   52.7710 C.ar  183  TYR183      0.1957
     88  OH        34.9840   71.8470   53.3890 O.3   183  TYR183     -0.2866
     89  N         32.2110   79.8760   50.6920 N.3   237  TYR237     -0.1241
     90  CA        32.2640   78.8490   51.7210 C.3   237  TYR237      0.1605
     91  C         33.6140   78.9180   52.4550 C.2   237  TYR237      0.2264
     92  O         34.6690   79.0760   51.8320 O.2   237  TYR237     -0.2867
     93  CB        32.0720   77.4850   51.0460 C.3   237  TYR237      0.0534
     94  CG        31.8050   76.3080   51.9620 C.ar  237  TYR237     -0.0201
     95  CD1       32.6890   75.2220   52.0100 C.ar  237  TYR237     -0.0009
     96  CD2       30.6300   76.2320   52.7160 C.ar  237  TYR237     -0.0009
     97  CE1       32.4050   74.0820   52.7790 C.ar  237  TYR237      0.0417
     98  CE2       30.3370   75.0950   53.4870 C.ar  237  TYR237      0.0417
     99  CZ        31.2270   74.0260   53.5080 C.ar  237  TYR237      0.1957
    100  OH        30.9230   72.8910   54.2250 O.3   237  TYR237     -0.2866
    101  N         26.0010   63.2330   56.3240 N.3   339  TYR339     -0.1241
    102  CA        27.2490   63.0930   57.0790 C.3   339  TYR339      0.1605
    103  C         27.2510   62.1350   58.2650 C.2   339  TYR339      0.2264
    104  O         28.2600   62.0290   58.9680 O.2   339  TYR339     -0.2867
    105  CB        27.6890   64.4740   57.5740 C.3   339  TYR339      0.0534
    106  CG        27.7530   65.4980   56.4720 C.ar  339  TYR339     -0.0201
    107  CD1       28.7610   65.4440   55.5100 C.ar  339  TYR339     -0.0009
    108  CD2       26.7980   66.5040   56.3710 C.ar  339  TYR339     -0.0009
    109  CE1       28.8200   66.3640   54.4790 C.ar  339  TYR339      0.0417
    110  CE2       26.8450   67.4300   55.3410 C.ar  339  TYR339      0.0417
    111  CZ        27.8620   67.3530   54.3980 C.ar  339  TYR339      0.1957
    112  OH        27.9300   68.2580   53.3660 O.3   339  TYR339     -0.2866
@<TRIPOS>BOND
     1    34    35    1
     2    57    58    1
     3    35    38    1
     4    35    36    1
     5    42    40   am
     6    38    39    1
     7    58    59    1
     8    58    61    1
     9    39    40    1
    10    59    60    2
    11    40    41    2
    12    36    37    2
    13    61    62    1
    14    76    75   ar
    15    76    74   ar
    16    63    62   ar
    17    63    65   ar
    18    75    73   ar
    19    62    64   ar
    20    74    72   ar
    21    65    66   ar
    22    67    68    1
    23    64    66   ar
    24    73    72   ar
    25    72    71    1
    26    43    44    1
    27    17    18    1
    28    68    71    1
    29    68    69    1
    30    18    21    1
    31    18    19    1
    32    44    47    1
    33    44    45    1
    34    47    48    1
    35    19    20    2
    36    69    70    2
    37    45    46    2
    38     1     2    1
    39    80    79    2
    40    49    48   ar
    41    49    51   ar
    42    48    50   ar
    43    77    78    1
    44    89    90    1
    45    84    86   ar
    46    84    82   ar
    47    81    78    1
    48    81    82    1
    49    79    78    1
    50    93    90    1
    51    93    94    1
    52    51    52   ar
    53    86    87   ar
    54    82    83   ar
    55    50    52   ar
    56    50    53   ar
    57     2     5    1
    58     2     3    1
    59     6     5    1
    60    90    91    1
    61    92    91    2
    62    94    95   ar
    63    94    96   ar
    64    95    97   ar
    65    52    54   ar
    66    53    55   ar
    67     5     7    1
    68     3     4    2
    69    96    98   ar
    70    87    88    1
    71    87    85   ar
    72    97    99   ar
    73    83    85   ar
    74    54    56   ar
    75    55    56   ar
    76   112   111    1
    77    98    99   ar
    78    99   100    1
    79   111   109   ar
    80   111   110   ar
    81   109   107   ar
    82     8     9    1
    83   110   108   ar
    84   107   106   ar
    85    33    32    1
    86    31    32   ar
    87    31    29   ar
    88   101   102    1
    89   108   106   ar
    90    32    30   ar
    91   106   105    1
    92     9    10    1
    93     9    12    1
    94    29    27   ar
    95   102   105    1
    96   102   103    1
    97    10    11    2
    98    13    12    1
    99    13    14    1
   100    30    28   ar
   101    27    28   ar
   102    27    26    1
   103    26    23    1
   104   103   104    2
   105    16    14   am
   106    14    15    2
   107    22    23    1
   108    23    24    1
   109    25    24    2
