@<TRIPOS>MOLECULE
tmp/3hgsA01.pdb
 106 104 0 0 0
SMALL
GASTEIGER

@<TRIPOS>ATOM
      1  N         11.7500   -6.2960   36.9110 N.3    24  THR24      -0.1218
      2  CA        12.4240   -7.5620   37.1690 C.3    24  THR24       0.1862
      3  C         11.3770   -8.5530   37.6950 C.2    24  THR24       0.2287
      4  O         10.7280   -8.2800   38.6990 O.2    24  THR24      -0.2866
      5  CB        13.5310   -7.3570   38.2330 C.3    24  THR24       0.1770
      6  OG1       14.6230   -6.6270   37.6480 O.3    24  THR24      -0.2211
      7  CG2       14.0180   -8.6960   38.7770 C.3    24  THR24       0.0375
      8  N         19.8760  -10.3860   41.1340 N.3    65  PHE65      -0.1241
      9  CA        18.6060  -11.0770   41.3410 C.3    65  PHE65       0.1605
     10  C         18.7320  -12.4260   40.6620 C.2    65  PHE65       0.2264
     11  O         19.6170  -12.6310   39.8400 O.2    65  PHE65      -0.2867
     12  CB        17.4390  -10.3290   40.6930 C.3    65  PHE65       0.0534
     13  CG        16.8280   -9.2800   41.5590 C.ar   65  PHE65      -0.0203
     14  CD1       17.4610   -8.0590   41.7480 C.ar   65  PHE65      -0.0042
     15  CD2       15.6000   -9.5060   42.1730 C.ar   65  PHE65      -0.0042
     16  CE1       16.8800   -7.0750   42.5320 C.ar   65  PHE65      -0.0003
     17  CE2       15.0090   -8.5290   42.9610 C.ar   65  PHE65      -0.0003
     18  CZ        15.6510   -7.3080   43.1410 C.ar   65  PHE65      -0.0000
     19  N         16.0430   -2.7810   28.6140 N.3    97  GLN97      -0.1245
     20  CA        16.7800   -2.0550   29.6410 C.3    97  GLN97       0.1566
     21  C         18.0620   -2.7900   30.0160 C.2    97  GLN97       0.2260
     22  O         18.0100   -3.9360   30.4680 O.2    97  GLN97      -0.2867
     23  CB        15.9400   -1.8680   30.9000 C.3    97  GLN97       0.0367
     24  CG        16.7030   -1.0970   31.9590 C.3    97  GLN97       0.0905
     25  CD        15.9300   -0.9050   33.2500 C.2    97  GLN97       0.2608
     26  OE1       15.4220    0.1830   33.5170 O.2    97  GLN97      -0.2717
     27  NE2       15.8410   -1.9600   34.0580 N.am   97  GLN97      -0.0878
     28  N         21.0250   -3.4110   32.3680 N.3    99  TRP99      -0.1241
     29  CA        21.2010   -3.2840   33.8040 C.3    99  TRP99       0.1605
     30  C         22.4130   -3.9360   34.4640 C.2    99  TRP99       0.2264
     31  O         22.6850   -5.1080   34.2490 O.2    99  TRP99      -0.2867
     32  CB        19.9210   -3.8330   34.4240 C.3    99  TRP99       0.0550
     33  CG        19.7780   -3.7760   35.9000 C.ar   99  TRP99       0.0003
     34  CD1       20.1780   -2.7730   36.7410 C.ar   99  TRP99       0.0946
     35  CD2       19.0620   -4.7120   36.7010 C.ar   99  TRP99       0.0152
     36  NE1       19.7380   -3.0290   38.0260 N.ar   99  TRP99      -0.2442
     37  CE2       19.0520   -4.2160   38.0230 C.ar   99  TRP99       0.0810
     38  CE3       18.4150   -5.9280   36.4250 C.ar   99  TRP99       0.0012
     39  CZ2       18.4200   -4.8940   39.0700 C.ar   99  TRP99       0.0191
     40  CZ3       17.7840   -6.6000   37.4670 C.ar   99  TRP99       0.0001
     41  CH2       17.7920   -6.0800   38.7750 C.ar   99  TRP99       0.0015
     42  N         19.9710    1.8100   32.3980 N.3   176  HIS176     -0.1241
     43  CA        19.4680    1.8570   33.7700 C.3   176  HIS176      0.1621
     44  C         20.5020    2.5750   34.6330 C.2   176  HIS176      0.2264
     45  O         21.5440    2.0140   34.9520 O.2   176  HIS176     -0.2867
     46  CB        19.2560    0.4410   34.3140 C.3   176  HIS176      0.0745
     47  CG        18.5300    0.3960   35.6230 C.ar  176  HIS176      0.0817
     48  ND1       18.5730    1.4260   36.5400 N.ar  176  HIS176     -0.2268
     49  CD2       17.7330   -0.5560   36.1670 C.ar  176  HIS176      0.1154
     50  CE1       17.8310    1.1130   37.5870 C.ar  176  HIS176      0.1986
     51  NE2       17.3110   -0.0840   37.3850 N.ar  176  HIS176     -0.2212
     52  N         17.9330    3.9030   40.8690 N.3   179  HIS179     -0.1241
     53  CA        17.6700    3.0060   41.9840 C.3   179  HIS179      0.1621
     54  C         18.8430    2.3950   42.7500 C.2   179  HIS179      0.2264
     55  O         18.7620    1.2640   43.2170 O.2   179  HIS179     -0.2867
     56  CB        16.7400    1.9070   41.4800 C.3   179  HIS179      0.0745
     57  CG        15.5500    2.4320   40.7360 C.ar  179  HIS179      0.0817
     58  ND1       14.8250    1.6640   39.8510 N.ar  179  HIS179     -0.2268
     59  CD2       14.9730    3.6570   40.7280 C.ar  179  HIS179      0.1154
     60  CE1       13.8570    2.3940   39.3260 C.ar  179  HIS179      0.1986
     61  NE2       13.9270    3.6080   39.8410 N.ar  179  HIS179     -0.2212
     62  N         21.8260    1.4070   41.7200 N.3   181  TYR181     -0.1241
     63  CA        22.6650    0.4240   41.0600 C.3   181  TYR181      0.1605
     64  C         23.9970    0.9990   40.5780 C.2   181  TYR181      0.2264
     65  O         24.3120    2.1450   40.8860 O.2   181  TYR181     -0.2867
     66  CB        21.8680   -0.2600   39.9560 C.3   181  TYR181      0.0534
     67  CG        20.7700   -1.0970   40.5760 C.ar  181  TYR181     -0.0201
     68  CD1       21.0850   -2.1950   41.3840 C.ar  181  TYR181     -0.0009
     69  CD2       19.4300   -0.7510   40.4300 C.ar  181  TYR181     -0.0009
     70  CE1       20.0950   -2.9240   42.0310 C.ar  181  TYR181      0.0417
     71  CE2       18.4250   -1.4770   41.0790 C.ar  181  TYR181      0.0417
     72  CZ        18.7640   -2.5600   41.8750 C.ar  181  TYR181      0.1957
     73  OH        17.7830   -3.2780   42.5190 O.3   181  TYR181     -0.2866
     74  N         17.5120    6.2290   32.0660 N.3   228  ARG228     -0.1245
     75  CA        16.7020    6.2950   33.2720 C.3   228  ARG228      0.1563
     76  C         17.5260    6.6370   34.5000 C.2   228  ARG228      0.2260
     77  O         18.5940    6.0530   34.7320 O.2   228  ARG228     -0.2867
     78  CB        15.9630    4.9770   33.5350 C.3   228  ARG228      0.0307
     79  CG        14.7480    5.1910   34.4370 C.3   228  ARG228      0.0489
     80  CD        14.0670    3.9150   34.8690 C.3   228  ARG228      0.2205
     81  NE        12.6680    4.1610   35.1940 N.pl3 228  ARG228     -0.0865
     82  CZ        11.8660    3.3010   35.8130 C.cat 228  ARG228      0.5346
     83  NH1       12.3170    2.1170   36.1990 N.pl3 228  ARG228      0.1354
     84  NH2       10.5960    3.6180   36.0250 N.pl3 228  ARG228      0.1354
     85  N         16.7390    4.2290   47.3470 N.3   235  HIS235     -0.1241
     86  CA        16.7660    2.7680   47.3720 C.3   235  HIS235      0.1621
     87  C         18.2050    2.2540   47.5120 C.2   235  HIS235      0.2264
     88  O         19.1060    2.7340   46.8350 O.2   235  HIS235     -0.2867
     89  CB        16.1550    2.2530   46.0650 C.3   235  HIS235      0.0745
     90  CG        16.1090    0.7630   45.9480 C.ar  235  HIS235      0.0817
     91  ND1       16.6200    0.0910   44.8570 N.ar  235  HIS235     -0.2268
     92  CD2       15.5780   -0.1830   46.7580 C.ar  235  HIS235      0.1154
     93  CE1       16.4060   -1.2040   45.0010 C.ar  235  HIS235      0.1986
     94  NE2       15.7750   -1.3970   46.1450 N.ar  235  HIS235     -0.2212
     95  N          8.6500  -12.1320   42.2300 N.3   353  TYR353     -0.1241
     96  CA         9.9390  -12.7100   41.8480 C.3   353  TYR353      0.1605
     97  C         10.0700  -14.2340   41.8650 C.2   353  TYR353      0.2264
     98  O         11.1840  -14.7560   41.9210 O.2   353  TYR353     -0.2867
     99  CB        11.0190  -12.1140   42.7390 C.3   353  TYR353      0.0534
    100  CG        10.8570  -10.6320   42.9660 C.ar  353  TYR353     -0.0201
    101  CD1       11.1910   -9.7070   41.9770 C.ar  353  TYR353     -0.0009
    102  CD2       10.3940  -10.1510   44.1820 C.ar  353  TYR353     -0.0009
    103  CE1       11.0740   -8.3370   42.2010 C.ar  353  TYR353      0.0417
    104  CE2       10.2690   -8.7890   44.4200 C.ar  353  TYR353      0.0417
    105  CZ        10.6140   -7.8860   43.4280 C.ar  353  TYR353      0.1957
    106  OH        10.5120   -6.5390   43.6940 O.3   353  TYR353     -0.2866
@<TRIPOS>BOND
     1    19    20    1
     2    20    21    1
     3    20    23    1
     4    21    22    2
     5    23    24    1
     6    24    25    1
     7    74    75    1
     8    28    29    1
     9    42    43    1
    10    25    26    2
    11    25    27   am
    12    75    78    1
    13    75    76    1
    14    78    79    1
    15    43    46    1
    16    43    44    1
    17    29    32    1
    18    29    30    1
    19    31    30    2
    20    46    47    1
    21    32    33    1
    22    79    80    1
    23    76    77    2
    24    44    45    2
    25    80    81    1
    26    81    82    2
    27    47    49   ar
    28    47    48   ar
    29    82    84    1
    30    82    83    1
    31    33    35   ar
    32    33    34   ar
    33    49    51   ar
    34    38    35   ar
    35    38    40   ar
    36    48    50   ar
    37    35    37   ar
    38    34    36   ar
    39     1     2    1
    40     2     3    1
    41     2     5    1
    42    51    50   ar
    43    40    41   ar
    44     6     5    1
    45     3     4    2
    46    37    36   ar
    47    37    39   ar
    48     5     7    1
    49    41    39   ar
    50    60    61   ar
    51    60    58   ar
    52    11    10    2
    53    61    59   ar
    54    58    57   ar
    55    66    67    1
    56    66    63    1
    57    69    67   ar
    58    69    71   ar
    59    67    68   ar
    60    64    65    2
    61    64    63    1
    62    10     9    1
    63    12     9    1
    64    12    13    1
    65    59    57   ar
    66    57    56    1
    67    52    53    1
    68    63    62    1
    69    71    72   ar
    70     8     9    1
    71    68    70   ar
    72    56    53    1
    73    13    14   ar
    74    13    15   ar
    75    14    16   ar
    76    96    97    1
    77    96    95    1
    78    96    99    1
    79    97    98    2
    80    72    70   ar
    81    72    73    1
    82   101   103   ar
    83   101   100   ar
    84    53    54    1
    85    15    17   ar
    86   103   105   ar
    87    16    18   ar
    88    99   100    1
    89    54    55    2
    90    17    18   ar
    91   100   102   ar
    92   105   106    1
    93   105   104   ar
    94   102   104   ar
    95    91    93   ar
    96    91    90   ar
    97    93    94   ar
    98    90    89    1
    99    90    92   ar
   100    89    86    1
   101    94    92   ar
   102    88    87    2
   103    85    86    1
   104    86    87    1
