@<TRIPOS>MOLECULE
tmp/3hgxB00.pdb
 101 95 0 0 0
SMALL
GASTEIGER

@<TRIPOS>ATOM
      1  N        -18.7460   -3.7770   -6.6880 N.3    31  ARG31      -0.1245
      2  CA       -19.7450   -2.7530   -6.4130 C.3    31  ARG31       0.1563
      3  C        -20.3830   -2.2160   -7.7080 C.2    31  ARG31       0.2260
      4  O        -21.5950   -1.9740   -7.7560 O.2    31  ARG31      -0.2867
      5  CB       -19.0950   -1.6160   -5.6170 C.3    31  ARG31       0.0307
      6  CG       -20.0440   -0.7430   -4.8470 C.3    31  ARG31       0.0489
      7  CD       -19.3160    0.5030   -4.3620 C.3    31  ARG31       0.2205
      8  NE       -20.0880    1.2500   -3.3760 N.pl3  31  ARG31      -0.0865
      9  CZ       -21.1550    1.9990   -3.6520 C.cat  31  ARG31       0.5346
     10  NH1      -21.5920    2.0950   -4.8930 N.pl3  31  ARG31       0.1354
     11  NH2      -21.7900    2.6410   -2.6760 N.pl3  31  ARG31       0.1354
     12  N        -24.2500   -1.6800   -9.0200 N.3    35  VAL35      -0.1245
     13  CA       -24.7060   -0.3340   -9.3270 C.3    35  VAL35       0.1561
     14  C        -25.3150   -0.3220  -10.7230 C.2    35  VAL35       0.2260
     15  O        -26.3620    0.2750  -10.9270 O.2    35  VAL35      -0.2867
     16  CB       -23.5790    0.6800   -9.1230 C.3    35  VAL35       0.0252
     17  CG1      -23.8250    1.9880   -9.8920 C.3    35  VAL35       0.0019
     18  CG2      -23.3910    0.9230   -7.6380 C.3    35  VAL35       0.0019
     19  N        -32.4140    8.0860  -10.3850 N.3    48  ILE48      -0.1231
     20  CA       -31.1580    7.4180  -10.0520 C.3    48  ILE48       0.1678
     21  C        -30.4080    8.0270   -8.8690 C.2    48  ILE48       0.2434
     22  O        -30.0600    7.2910   -7.9440 O.2    48  ILE48      -0.2733
     23  CB       -30.2060    7.3060  -11.2920 C.3    48  ILE48       0.0265
     24  CG1      -30.7830    6.3360  -12.3230 C.3    48  ILE48       0.0019
     25  CG2      -28.7920    6.8710  -10.8770 C.3    48  ILE48       0.0020
     26  CD1      -30.1460    6.4600  -13.6780 C.3    48  ILE48       0.0001
     27  N        -30.1510    9.3580   -8.8850 N.am   49  PRO49      -0.2718
     28  CA       -29.2620    9.9090   -7.8600 C.3    49  PRO49       0.1535
     29  C        -29.7200    9.6570   -6.4340 C.2    49  PRO49       0.2598
     30  O        -28.8880    9.6270   -5.5390 O.2    49  PRO49      -0.2715
     31  CB       -29.2720   11.4070   -8.1630 C.3    49  PRO49       0.0310
     32  CG       -29.6330   11.4960   -9.5990 C.3    49  PRO49       0.0237
     33  CD       -30.6260   10.4200   -9.7930 C.3    49  PRO49       0.0939
     34  N        -31.0310    9.4760   -6.2500 N.am   50  ALA50      -0.1978
     35  CA       -31.6620    9.1510   -4.9640 C.3    50  ALA50       0.1597
     36  C        -31.0150    9.7610   -3.7020 C.2    50  ALA50       0.2287
     37  O        -30.3980    9.0430   -2.9080 O.2    50  ALA50      -0.2864
     38  CB       -31.8200    7.6360   -4.8250 C.3    50  ALA50       0.0319
     39  N        -31.1980    8.3510   -0.0360 N.3    53  ARG53      -0.1231
     40  CA       -30.4070    7.1420    0.1470 C.3    53  ARG53       0.1694
     41  C        -28.9530    7.5000    0.4380 C.2    53  ARG53       0.2591
     42  O        -28.3530    6.9590    1.3650 O.2    53  ARG53      -0.2718
     43  CB       -30.5510    6.2050   -1.0710 C.3    53  ARG53       0.0321
     44  CG       -29.5020    5.1040   -1.2000 C.3    53  ARG53       0.0489
     45  CD       -29.5920    4.0620   -0.0950 C.3    53  ARG53       0.2205
     46  NE       -28.5960    2.9980   -0.2590 N.pl3  53  ARG53      -0.0865
     47  CZ       -28.2290    2.1400    0.6980 C.cat  53  ARG53       0.5346
     48  NH1      -28.7650    2.2030    1.9100 N.pl3  53  ARG53       0.1354
     49  NH2      -27.3110    1.2150    0.4350 N.pl3  53  ARG53       0.1354
     50  N        -28.4050    8.4240   -0.3440 N.am   54  VAL54      -0.1980
     51  CA       -27.0800    8.9580   -0.0870 C.3    54  VAL54       0.1595
     52  C        -26.9910    9.5480    1.3300 C.2    54  VAL54       0.2287
     53  O        -26.1350    9.1340    2.1170 O.2    54  VAL54      -0.2864
     54  CB       -26.6400   10.0240   -1.1440 C.3    54  VAL54       0.0276
     55  CG1      -25.1860   10.4590   -0.8920 C.3    54  VAL54       0.0022
     56  CG2      -26.7940    9.4890   -2.5730 C.3    54  VAL54       0.0022
     57  N        -27.0700    6.7740    3.8140 N.3    57  MET57      -0.1245
     58  CA       -25.8910    5.9180    3.6530 C.3    57  MET57       0.1570
     59  C        -24.6990    6.4440    4.4170 C.2    57  MET57       0.2261
     60  O        -23.9490    5.6740    5.0260 O.2    57  MET57      -0.2867
     61  CB       -25.4510    5.8690    2.1900 C.3    57  MET57       0.0387
     62  CG       -26.1720    4.9020    1.3270 C.3    57  MET57       0.0595
     63  SD       -25.6460    5.1470   -0.3760 S.3    57  MET57      -0.1393
     64  CE       -24.3930    3.8580   -0.4370 C.3    57  MET57       0.0692
     65  N        -19.7100    7.1230   -3.8100 N.3    83  ILE83      -0.1245
     66  CA       -21.1280    7.1080   -4.1650 C.3    83  ILE83       0.1561
     67  C        -21.4280    8.0190   -5.3510 C.2    83  ILE83       0.2260
     68  O        -22.1500    7.6260   -6.2600 O.2    83  ILE83      -0.2867
     69  CB       -22.0370    7.4610   -2.9500 C.3    83  ILE83       0.0252
     70  CG1      -21.8990    6.3890   -1.8580 C.3    83  ILE83       0.0019
     71  CG2      -23.5080    7.6330   -3.3810 C.3    83  ILE83       0.0019
     72  CD1      -22.3680    6.8220   -0.4980 C.3    83  ILE83       0.0001
     73  N        -20.0890    6.4690   -8.6850 N.3    86  TYR86      -0.1227
     74  CA       -21.0360    5.4070   -9.0180 C.3    86  TYR86       0.1736
     75  C        -22.4040    5.8980   -9.5150 C.2    86  TYR86       0.2595
     76  O        -22.9550    5.3060  -10.4430 O.2    86  TYR86      -0.2718
     77  CB       -21.1740    4.4220   -7.8620 C.3    86  TYR86       0.0548
     78  CG       -19.9850    3.4870   -7.7510 C.ar   86  TYR86      -0.0200
     79  CD1      -18.7780    3.9180   -7.1950 C.ar   86  TYR86      -0.0009
     80  CD2      -20.0620    2.1780   -8.2100 C.ar   86  TYR86      -0.0009
     81  CE1      -17.6860    3.0700   -7.0940 C.ar   86  TYR86       0.0417
     82  CE2      -18.9740    1.3160   -8.1110 C.ar   86  TYR86       0.0417
     83  CZ       -17.7920    1.7700   -7.5540 C.ar   86  TYR86       0.1957
     84  OH       -16.7180    0.9260   -7.4600 O.3    86  TYR86      -0.2866
     85  N        -22.9330    6.9740   -8.9230 N.am   87  ILE87      -0.1980
     86  CA       -24.1610    7.5920   -9.4220 C.3    87  ILE87       0.1595
     87  C        -24.0100    8.0110  -10.8780 C.2    87  ILE87       0.2287
     88  O        -24.8830    7.7230  -11.7060 O.2    87  ILE87      -0.2864
     89  CB       -24.6220    8.8260   -8.5990 C.3    87  ILE87       0.0276
     90  CG1      -25.0570    8.4140   -7.1870 C.3    87  ILE87       0.0022
     91  CG2      -25.7790    9.5220   -9.3050 C.3    87  ILE87       0.0022
     92  CD1      -25.2380    9.5780   -6.2040 C.3    87  ILE87       0.0001
     93  N        -23.7210    5.0440  -13.0910 N.3    90  GLN90      -0.1245
     94  CA       -25.0390    4.4170  -13.2740 C.3    90  GLN90       0.1566
     95  C        -25.8940    5.1360  -14.3190 C.2    90  GLN90       0.2260
     96  O        -26.5540    4.4900  -15.1270 O.2    90  GLN90      -0.2867
     97  CB       -25.8110    4.3140  -11.9540 C.3    90  GLN90       0.0367
     98  CG       -27.0930    3.4790  -12.0710 C.3    90  GLN90       0.0905
     99  CD       -27.8920    3.4140  -10.7830 C.2    90  GLN90       0.2608
    100  OE1      -29.0850    3.1150  -10.8010 O.2    90  GLN90      -0.2717
    101  NE2      -27.2380    3.6970   -9.6570 N.am   90  GLN90      -0.0878
@<TRIPOS>BOND
     1    96    95    2
     2    95    94    1
     3    26    24    1
     4    94    93    1
     5    94    97    1
     6    24    23    1
     7    98    97    1
     8    98    99    1
     9    88    87    2
    10    23    25    1
    11    23    20    1
    12    15    14    2
    13    87    86    1
    14   100    99    2
    15    99   101   am
    16    14    13    1
    17    76    75    2
    18    19    20    1
    19    20    21    1
    20    17    16    1
    21    33    32    1
    22    33    27    1
    23    32    31    1
    24    75    74    1
    25    75    85   am
    26    86    85    1
    27    86    89    1
    28    13    16    1
    29    13    12    1
    30    91    89    1
    31    16    18    1
    32    74    73    1
    33    74    77    1
    34    27    21   am
    35    27    28    1
    36    21    22    2
    37    89    90    1
    38    80    82   ar
    39    80    78   ar
    40    31    28    1
    41    82    83   ar
    42    77    78    1
    43    28    29    1
    44     4     3    2
    45    78    79   ar
    46     3     2    1
    47    83    84    1
    48    83    81   ar
    49    79    81   ar
    50    90    92    1
    51     1     2    1
    52    29    34   am
    53    29    30    2
    54     2     5    1
    55    68    67    2
    56    34    35    1
    57     5     6    1
    58    67    66    1
    59    35    38    1
    60    35    36    1
    61    10     9    1
    62     6     7    1
    63     7     8    1
    64    66    65    1
    65    66    69    1
    66    36    37    2
    67     9     8    2
    68     9    11    1
    69    71    69    1
    70    69    70    1
    71    56    54    1
    72    70    72    1
    73    44    43    1
    74    44    45    1
    75    54    55    1
    76    54    51    1
    77    43    40    1
    78    64    63    1
    79    63    62    1
    80    50    51    1
    81    50    41   am
    82    46    45    1
    83    46    47    2
    84    51    52    1
    85    39    40    1
    86    40    41    1
    87    49    47    1
    88    41    42    2
    89    47    48    1
    90    62    61    1
    91    52    53    2
    92    61    58    1
    93    58    57    1
    94    58    59    1
    95    59    60    2
