@<TRIPOS>MOLECULE
tmp/3hgyA00.pdb
 194 186 0 0 0
SMALL
GASTEIGER

@<TRIPOS>ATOM
      1  N         17.2420   19.6550   24.2250 N.3    60  LEU60      -0.1245
      2  CA        16.6310   19.7130   22.8870 C.3    60  LEU60       0.1561
      3  C         17.5180   20.4280   21.8930 C.2    60  LEU60       0.2260
      4  O         17.5390   20.0770   20.6990 O.2    60  LEU60      -0.2867
      5  CB        15.2570   20.4040   22.8990 C.3    60  LEU60       0.0270
      6  CG        13.9260   19.6740   23.0790 C.3    60  LEU60       0.0019
      7  CD1       12.7970   20.6320   22.6690 C.3    60  LEU60       0.0001
      8  CD2       13.8190   18.3570   22.2950 C.3    60  LEU60       0.0001
      9  N         19.6990   17.8760   20.5650 N.3    63  ILE63      -0.1231
     10  CA        19.0340   16.8800   19.7300 C.3    63  ILE63       0.1692
     11  C         18.7020   17.4990   18.3920 C.2    63  ILE63       0.2592
     12  O         18.8680   16.8590   17.3510 O.2    63  ILE63      -0.2718
     13  CB        17.7750   16.3270   20.4090 C.3    63  ILE63       0.0266
     14  CG1       18.1340   15.1700   21.3340 C.3    63  ILE63       0.0019
     15  CG2       16.7910   15.7910   19.4220 C.3    63  ILE63       0.0020
     16  CD1       17.4390   15.2540   22.6680 C.3    63  ILE63       0.0001
     17  N         18.2530   18.7490   18.4230 N.am   64  CYS64      -0.1970
     18  CA        17.9210   19.4600   17.2220 C.3    64  CYS64       0.1712
     19  C         19.1590   19.6810   16.3930 C.2    64  CYS64       0.2296
     20  O         19.1190   19.5140   15.1760 O.2    64  CYS64      -0.2864
     21  CB        17.2570   20.7800   17.5490 C.3    64  CYS64       0.0983
     22  SG        15.5290   20.5440   17.9810 S.3    64  CYS64      -0.0798
     23  N         19.8820   16.4200   14.8020 N.3    67  HIS67      -0.1241
     24  CA        19.0310   16.0590   13.6550 C.3    67  HIS67       0.1621
     25  C         19.2690   16.8860   12.3830 C.2    67  HIS67       0.2264
     26  O         19.2960   16.3390   11.2730 O.2    67  HIS67      -0.2867
     27  CB        17.5570   15.9330   14.0510 C.3    67  HIS67       0.0745
     28  CG        17.2930   14.7730   14.9720 C.ar   67  HIS67       0.0817
     29  ND1       16.4180   14.8420   16.0410 N.ar   67  HIS67      -0.2268
     30  CD2       17.8310   13.5250   15.0070 C.ar   67  HIS67       0.1154
     31  CE1       16.4080   13.6790   16.6700 C.ar   67  HIS67       0.1986
     32  NE2       17.2600   12.8670   16.0680 N.ar   67  HIS67      -0.2212
     33  N         13.2590   10.1870   11.8410 N.3    97  ILE97      -0.1231
     34  CA        13.4920   10.7410   13.1530 C.3    97  ILE97       0.1692
     35  C         12.1960   10.8050   13.9820 C.2    97  ILE97       0.2592
     36  O         12.2360   10.6180   15.2070 O.2    97  ILE97      -0.2718
     37  CB        14.1440   12.1220   13.0310 C.3    97  ILE97       0.0266
     38  CG1       15.6270   11.9790   12.6440 C.3    97  ILE97       0.0019
     39  CG2       13.9550   12.9240   14.2940 C.3    97  ILE97       0.0020
     40  CD1       16.1490   13.1740   11.7730 C.3    97  ILE97       0.0001
     41  N         11.0520   11.0460   13.3300 N.am   98  PHE98      -0.1976
     42  CA         9.7750   11.1780   14.0610 C.3    98  PHE98       0.1639
     43  C          9.1650    9.8600   14.4080 C.2    98  PHE98       0.2290
     44  O          8.1660    9.8140   15.0940 O.2    98  PHE98      -0.2864
     45  CB         8.7700   12.0870   13.3420 C.3    98  PHE98       0.0560
     46  CG         9.1270   13.5040   13.4630 C.ar   98  PHE98      -0.0200
     47  CD1        9.8330   14.1380   12.4580 C.ar   98  PHE98      -0.0042
     48  CD2        8.8780   14.1820   14.6460 C.ar   98  PHE98      -0.0042
     49  CE1       10.2400   15.4550   12.5940 C.ar   98  PHE98      -0.0003
     50  CE2        9.2760   15.5080   14.8070 C.ar   98  PHE98      -0.0003
     51  CZ         9.9650   16.1490   13.7580 C.ar   98  PHE98      -0.0000
     52  N         11.3980   10.7090   19.8690 N.3   103  ALA103     -0.1245
     53  CA        10.5000   11.7920   19.3840 C.3   103  ALA103      0.1562
     54  C          9.1420   11.8290   20.0920 C.2   103  ALA103      0.2260
     55  O          8.5870   12.9050   20.2940 O.2   103  ALA103     -0.2867
     56  CB        10.2650   11.6820   17.8570 C.3   103  ALA103      0.0290
     57  N          9.8080   12.9980   24.1700 N.3   106  PHE106     -0.1227
     58  CA         9.9870   14.4570   24.2620 C.3   106  PHE106      0.1736
     59  C          8.7150   15.2230   23.8600 C.2   106  PHE106      0.2596
     60  O          8.3950   16.2970   24.4320 O.2   106  PHE106     -0.2718
     61  CB        11.1600   14.9720   23.4000 C.3   106  PHE106      0.0547
     62  CG        12.4840   14.3620   23.7160 C.ar  106  PHE106     -0.0202
     63  CD1       13.2600   13.8200   22.7200 C.ar  106  PHE106     -0.0042
     64  CD2       12.9670   14.3460   25.0090 C.ar  106  PHE106     -0.0042
     65  CE1       14.4950   13.2470   23.0040 C.ar  106  PHE106     -0.0003
     66  CE2       14.2160   13.7690   25.3140 C.ar  106  PHE106     -0.0003
     67  CZ        14.9680   13.2140   24.3130 C.ar  106  PHE106     -0.0000
     68  N          8.0020   14.6830   22.8680 N.am  107  GLY107     -0.1957
     69  CA         6.7050   15.2420   22.4720 C.3   107  GLY107      0.1869
     70  C          5.8100   15.3420   23.6920 C.2   107  GLY107      0.2309
     71  O          5.1510   16.3260   23.9190 O.2   107  GLY107     -0.2863
     72  N          6.8310   18.3230   25.9590 N.3   110  ILE110     -0.1231
     73  CA         6.4370   19.5980   25.3690 C.3   110  ILE110      0.1692
     74  C          4.9390   19.8750   25.5590 C.2   110  ILE110      0.2592
     75  O          4.5770   20.8630   26.1970 O.2   110  ILE110     -0.2718
     76  CB         6.8910   19.6420   23.8550 C.3   110  ILE110      0.0266
     77  CG1        8.4000   19.9480   23.7730 C.3   110  ILE110      0.0019
     78  CG2        6.1050   20.6630   23.0560 C.3   110  ILE110      0.0020
     79  CD1        9.1270   19.1610   22.7240 C.3   110  ILE110      0.0001
     80  N          4.0680   18.9860   25.0600 N.am  111  TYR111     -0.1976
     81  CA         2.6280   19.1040   25.2920 C.3   111  TYR111      0.1639
     82  C          2.2260   19.2820   26.7640 C.2   111  TYR111      0.2290
     83  O          1.2490   19.9810   27.0360 O.2   111  TYR111     -0.2864
     84  CB         1.9080   17.8800   24.7740 C.3   111  TYR111      0.0560
     85  CG         1.8290   17.7080   23.2880 C.ar  111  TYR111     -0.0198
     86  CD1        0.7130   17.1280   22.7200 C.ar  111  TYR111     -0.0009
     87  CD2        2.8850   18.0780   22.4430 C.ar  111  TYR111     -0.0009
     88  CE1        0.6180   16.9580   21.3750 C.ar  111  TYR111      0.0417
     89  CE2        2.8210   17.8700   21.1120 C.ar  111  TYR111      0.0417
     90  CZ         1.6670   17.3020   20.5790 C.ar  111  TYR111      0.1957
     91  OH         1.5620   17.1020   19.2180 O.3   111  TYR111     -0.2866
     92  N          8.9940   27.6020   26.6590 N.3   121  LEU121     -0.1245
     93  CA         8.8650   26.9700   25.3870 C.3   121  LEU121      0.1561
     94  C          8.7470   27.9770   24.2560 C.2   121  LEU121      0.2260
     95  O          9.2790   27.7600   23.1740 O.2   121  LEU121     -0.2867
     96  CB         7.6430   26.0410   25.4200 C.3   121  LEU121      0.0270
     97  CG         7.2870   25.3060   24.1190 C.3   121  LEU121      0.0019
     98  CD1        8.4280   24.3660   23.7050 C.3   121  LEU121      0.0001
     99  CD2        6.0510   24.5550   24.3580 C.3   121  LEU121      0.0001
    100  N         12.1020   29.5530   23.7650 N.3   124  TRP124     -0.1227
    101  CA        12.9240   28.6090   23.0650 C.3   124  TRP124      0.1737
    102  C         12.5620   28.5410   21.5590 C.2   124  TRP124      0.2595
    103  O         13.4580   28.5910   20.7320 O.2   124  TRP124     -0.2718
    104  CB        12.8540   27.2300   23.7130 C.3   124  TRP124      0.0564
    105  CG        13.8440   26.2110   23.0790 C.ar  124  TRP124      0.0003
    106  CD1       15.1750   26.0500   23.3860 C.ar  124  TRP124      0.0946
    107  CD2       13.5580   25.2380   22.0490 C.ar  124  TRP124      0.0152
    108  NE1       15.7280   25.0550   22.5950 N.ar  124  TRP124     -0.2442
    109  CE2       14.7570   24.5350   21.7860 C.ar  124  TRP124      0.0810
    110  CE3       12.4100   24.9040   21.3260 C.ar  124  TRP124      0.0012
    111  CZ2       14.8430   23.5370   20.8310 C.ar  124  TRP124      0.0191
    112  CZ3       12.4940   23.8830   20.3710 C.ar  124  TRP124      0.0001
    113  CH2       13.7050   23.2280   20.1250 C.ar  124  TRP124      0.0015
    114  N         11.2710   28.4620   21.2190 N.am  125  ILE125     -0.1980
    115  CA        10.8780   28.3950   19.8120 C.3   125  ILE125      0.1595
    116  C         11.2220   29.7060   19.1070 C.2   125  ILE125      0.2287
    117  O         11.7540   29.6900   17.9900 O.2   125  ILE125     -0.2864
    118  CB         9.3700   27.9960   19.5500 C.3   125  ILE125      0.0276
    119  CG1        9.0470   26.6190   20.1410 C.3   125  ILE125      0.0022
    120  CG2        9.1120   27.9210   18.0400 C.3   125  ILE125      0.0022
    121  CD1        7.5720   26.2390   20.1200 C.3   125  ILE125      0.0001
    122  N         14.3980   29.4780   15.6130 N.3   129  GLN129     -0.1245
    123  CA        13.9190   29.3370   14.2290 C.3   129  GLN129      0.1566
    124  C         15.0250   28.8820   13.2640 C.2   129  GLN129      0.2260
    125  O         14.8080   28.0330   12.4140 O.2   129  GLN129     -0.2867
    126  CB        13.2830   30.6440   13.7140 C.3   129  GLN129      0.0367
    127  CG        11.9990   31.0970   14.4250 C.3   129  GLN129      0.0905
    128  CD        10.8010   30.1450   14.2440 C.2   129  GLN129      0.2608
    129  OE1       10.5000   29.3400   15.1390 O.2   129  GLN129     -0.2717
    130  NE2       10.1170   30.2340   13.0920 N.am  129  GLN129     -0.0878
    131  N         15.9120   24.8210   12.9410 N.3   132  PHE132     -0.1241
    132  CA        14.9910   23.7990   12.4870 C.3   132  PHE132      0.1605
    133  C         15.2380   23.3840   11.0480 C.2   132  PHE132      0.2264
    134  O         15.6850   24.1760   10.2170 O.2   132  PHE132     -0.2867
    135  CB        13.5500   24.2450   12.6760 C.3   132  PHE132      0.0534
    136  CG        13.2280   24.5870   14.0760 C.ar  132  PHE132     -0.0203
    137  CD1       13.5510   23.7020   15.1090 C.ar  132  PHE132     -0.0042
    138  CD2       12.6220   25.7890   14.3800 C.ar  132  PHE132     -0.0042
    139  CE1       13.2760   24.0030   16.4270 C.ar  132  PHE132     -0.0003
    140  CE2       12.3430   26.1140   15.7050 C.ar  132  PHE132     -0.0003
    141  CZ        12.6670   25.2050   16.7330 C.ar  132  PHE132     -0.0000
    142  N         13.5290   22.8120    8.7940 N.3   134  TYR134     -0.1241
    143  CA        12.7610   23.4250    7.7450 C.3   134  TYR134      0.1605
    144  C         13.6270   24.3210    6.8880 C.2   134  TYR134      0.2264
    145  O         13.4610   24.4070    5.6950 O.2   134  TYR134     -0.2867
    146  CB        11.4740   24.0560    8.2640 C.3   134  TYR134      0.0534
    147  CG        11.3900   25.5230    8.6390 C.ar  134  TYR134     -0.0201
    148  CD1       11.5280   26.5220    7.7010 C.ar  134  TYR134     -0.0009
    149  CD2       11.0080   25.8880    9.9160 C.ar  134  TYR134     -0.0009
    150  CE1       11.3760   27.8440    8.0470 C.ar  134  TYR134      0.0417
    151  CE2       10.8410   27.2030   10.2660 C.ar  134  TYR134      0.0417
    152  CZ        11.0230   28.1810    9.3330 C.ar  134  TYR134      0.1957
    153  OH        10.8280   29.4930    9.7150 O.3   134  TYR134     -0.2866
    154  N          9.5940   29.5780    2.3830 N.3   154  GLU154     -0.1245
    155  CA         9.3190   29.2130    3.7490 C.3   154  GLU154      0.1567
    156  C          8.0060   28.4810    3.9530 C.2   154  GLU154      0.2260
    157  O          7.8960   27.5870    4.7640 O.2   154  GLU154     -0.2867
    158  CB         9.3470   30.3880    4.6690 C.3   154  GLU154      0.0388
    159  CG         8.9810   29.8930    5.9940 C.3   154  GLU154      0.1160
    160  CD         8.9780   30.9380    7.0030 C.2   154  GLU154      0.3649
    161  OE1        7.8780   31.3090    7.4500 O.co2 154  GLU154     -0.2457
    162  OE2       10.0780   31.3630    7.3730 O.co2 154  GLU154     -0.2457
    163  N          7.4670   24.5360    5.0750 N.3   158  VAL158     -0.1245
    164  CA         6.6880   24.2280    6.2810 C.3   158  VAL158      0.1561
    165  C          5.5380   23.2480    5.9420 C.2   158  VAL158      0.2260
    166  O          5.2080   22.3490    6.7250 O.2   158  VAL158     -0.2867
    167  CB         6.2440   25.5330    7.0050 C.3   158  VAL158      0.0252
    168  CG1        5.1110   25.2750    7.9850 C.3   158  VAL158      0.0019
    169  CG2        7.4510   26.1700    7.7300 C.3   158  VAL158      0.0019
    170  N          6.9750   19.5290    5.2090 N.3   161  CYS161     -0.1235
    171  CA         7.2530   18.9110    6.5270 C.3   161  CYS161      0.1677
    172  C          6.0140   18.4670    7.2920 C.2   161  CYS161      0.2270
    173  O          5.9540   17.3480    7.7770 O.2   161  CYS161     -0.2867
    174  CB         8.0640   19.8480    7.4240 C.3   161  CYS161      0.0956
    175  SG         9.8230   20.0790    6.9200 S.3   161  CYS161     -0.0801
    176  N          4.7780   14.8580    8.5460 N.3   165  LYS165     -0.1245
    177  CA         4.8080   14.6110    9.9590 C.3   165  LYS165      0.1561
    178  C          3.4680   14.5450   10.6990 C.2   165  LYS165      0.2260
    179  O          3.3780   13.8430   11.6650 O.2   165  LYS165     -0.2867
    180  CB         5.7810   15.5740   10.6180 C.3   165  LYS165      0.0271
    181  CG         5.1970   16.3910   11.6870 C.3   165  LYS165      0.0035
    182  CD         5.8900   16.1860   12.9700 C.3   165  LYS165      0.0206
    183  CE         5.8710   17.4300   13.7680 C.3   165  LYS165      0.1093
    184  NZ         7.1320   18.1470   13.5330 N.3   165  LYS165     -0.1314
    185  N          2.4430   12.1950   14.3790 N.3   169  HIS169     -0.1241
    186  CA         3.2340   12.5010   15.5360 C.3   169  HIS169      0.1621
    187  C          2.2960   12.8770   16.6750 C.2   169  HIS169      0.2264
    188  O          2.4060   12.3460   17.7700 O.2   169  HIS169     -0.2867
    189  CB         4.2440   13.6280   15.2140 C.3   169  HIS169      0.0745
    190  CG         5.0880   14.0240   16.3870 C.ar  169  HIS169      0.0817
    191  ND1        4.8800   15.1930   17.0900 N.ar  169  HIS169     -0.2268
    192  CD2        6.0800   13.3660   17.0400 C.ar  169  HIS169      0.1154
    193  CE1        5.7420   15.2710   18.0900 C.ar  169  HIS169      0.1986
    194  NE2        6.4810   14.1750   18.0820 N.ar  169  HIS169     -0.2212
@<TRIPOS>BOND
     1   154   155    1
     2   155   156    1
     3   155   158    1
     4   156   157    2
     5   158   159    1
     6   163   164    1
     7   170   171    1
     8   145   144    2
     9   165   164    1
    10   165   166    2
    11   159   160    1
    12   164   167    1
    13   171   172    1
    14   171   174    1
    15   144   143    1
    16   175   174    1
    17   160   162   ar
    18   160   161   ar
    19   167   169    1
    20   167   168    1
    21   172   173    2
    22   148   150   ar
    23   148   147   ar
    24   143   146    1
    25   143   142    1
    26   150   152   ar
    27   146   147    1
    28   176   177    1
    29   147   149   ar
    30   152   153    1
    31   152   151   ar
    32   149   151   ar
    33   177   180    1
    34   177   178    1
    35   134   133    2
    36   180   181    1
    37   178   179    2
    38   133   132    1
    39    26    25    2
    40   181   182    1
    41    40    38    1
    42    33    34    1
    43    25    24    1
    44   125   124    2
    45    47    49   ar
    46    47    46   ar
    47   132   135    1
    48   132   131    1
    49    49    51   ar
    50    38    37    1
    51   135   136    1
    52   182   183    1
    53    37    34    1
    54    37    39    1
    55   130   128   am
    56    34    35    1
    57   124   123    1
    58    41    35   am
    59    41    42    1
    60    45    46    1
    61    45    42    1
    62    46    48   ar
    63   184   183    1
    64    24    27    1
    65    24    23    1
    66   126   123    1
    67   126   127    1
    68    51    50   ar
    69    35    36    2
    70    27    28    1
    71    42    43    1
    72   136   138   ar
    73   136   137   ar
    74   123   122    1
    75   128   127    1
    76   128   129    2
    77   185   186    1
    78   138   140   ar
    79    43    44    2
    80    48    50   ar
    81    28    30   ar
    82    28    29   ar
    83    30    32   ar
    84   137   139   ar
    85    20    19    2
    86   189   186    1
    87   189   190    1
    88   186   187    1
    89   140   141   ar
    90    29    31   ar
    91    32    31   ar
    92   190   192   ar
    93   190   191   ar
    94    19    18    1
    95   139   141   ar
    96   187   188    2
    97   192   194   ar
    98   191   193   ar
    99    18    21    1
   100    18    17    1
   101    12    11    2
   102    21    22    1
   103    56    53    1
   104   117   116    2
   105   120   118    1
   106   194   193   ar
   107    11    17   am
   108    11    10    1
   109   116   115    1
   110    91    90    1
   111    53    52    1
   112    53    54    1
   113    15    13    1
   114   118   115    1
   115   118   119    1
   116    10    13    1
   117    10     9    1
   118   115   114    1
   119    54    55    2
   120   121   119    1
   121   113   112   ar
   122   113   111   ar
   123   112   110   ar
   124    13    14    1
   125    90    89   ar
   126    90    88   ar
   127     4     3    2
   128   103   102    2
   129   111   109   ar
   130    89    87   ar
   131   114   102   am
   132   110   107   ar
   133    14    16    1
   134    88    86   ar
   135   102   101    1
   136   109   107   ar
   137   109   108   ar
   138     3     2    1
   139   107   105   ar
   140     8     6    1
   141    87    85   ar
   142    69    68    1
   143    69    70    1
   144   108   106   ar
   145     7     6    1
   146    63    65   ar
   147    63    62   ar
   148    86    85   ar
   149    79    77    1
   150    68    59   am
   151     2     5    1
   152     2     1    1
   153     5     6    1
   154    65    67   ar
   155    78    76    1
   156   101   104    1
   157   101   100    1
   158   105   106   ar
   159   105   104    1
   160    95    94    2
   161    85    84    1
   162    61    62    1
   163    61    58    1
   164    70    71    2
   165    98    97    1
   166    62    64   ar
   167    77    76    1
   168    76    73    1
   169    59    58    1
   170    59    60    2
   171    97    99    1
   172    97    96    1
   173    57    58    1
   174    94    93    1
   175    67    66   ar
   176    84    81    1
   177    64    66   ar
   178    80    81    1
   179    80    74   am
   180    81    82    1
   181    73    74    1
   182    73    72    1
   183    93    96    1
   184    93    92    1
   185    74    75    2
   186    82    83    2
