@<TRIPOS>MOLECULE
tmp/3hgzB00.pdb
 204 200 0 0 0
SMALL
GASTEIGER

@<TRIPOS>ATOM
      1  N        -59.2920   89.6110   62.7540 N.3    66  HIS66      -0.1241
      2  CA       -57.9310   89.6690   62.2430 C.3    66  HIS66       0.1621
      3  C        -56.9510   89.1650   63.3040 C.2    66  HIS66       0.2264
      4  O        -56.0680   88.3350   63.0080 O.2    66  HIS66      -0.2867
      5  CB       -57.5660   91.0830   61.7760 C.3    66  HIS66       0.0745
      6  CG       -56.1820   91.1970   61.2070 C.ar   66  HIS66       0.0817
      7  ND1      -55.3910   92.3070   61.4040 N.ar   66  HIS66      -0.2268
      8  CD2      -55.4400   90.3360   60.4630 C.ar   66  HIS66       0.1154
      9  CE1      -54.2260   92.1280   60.8010 C.ar   66  HIS66       0.1986
     10  NE2      -54.2330   90.9440   60.2140 N.ar   66  HIS66      -0.2212
     11  N        -57.0080   85.3190   63.7930 N.3    69  GLN69      -0.1231
     12  CA       -56.2840   84.7860   62.6460 C.3    69  GLN69       0.1698
     13  C        -54.7430   84.7810   62.8000 C.2    69  GLN69       0.2592
     14  O        -54.0690   83.8830   62.3100 O.2    69  GLN69      -0.2718
     15  CB       -56.6840   85.5730   61.4090 C.3    69  GLN69       0.0381
     16  CG       -55.9700   85.1250   60.1700 C.3    69  GLN69       0.0905
     17  CD       -55.3800   86.2710   59.4020 C.2    69  GLN69       0.2608
     18  OE1      -56.1040   87.1310   58.9050 O.2    69  GLN69      -0.2717
     19  NE2      -54.0510   86.2870   59.2860 N.am   69  GLN69      -0.0878
     20  N        -54.1830   85.7830   63.4620 N.am   70  HIS70      -0.1976
     21  CA       -52.7560   85.7620   63.7370 C.3    70  HIS70       0.1656
     22  C        -52.4550   84.7110   64.7850 C.2    70  HIS70       0.2291
     23  O        -51.4740   83.9650   64.6700 O.2    70  HIS70      -0.2864
     24  CB       -52.2560   87.1230   64.2110 C.3    70  HIS70       0.0771
     25  CG       -52.0050   88.0980   63.1010 C.ar   70  HIS70       0.0820
     26  ND1      -50.7740   88.6790   62.8890 N.ar   70  HIS70      -0.2267
     27  CD2      -52.8270   88.6010   62.1450 C.ar   70  HIS70       0.1154
     28  CE1      -50.8520   89.5050   61.8590 C.ar   70  HIS70       0.1986
     29  NE2      -52.0850   89.4730   61.3870 N.ar   70  HIS70      -0.2212
     30  N        -51.9500   80.6080   64.6890 N.3    73  PHE73      -0.1227
     31  CA       -50.6620   80.0820   64.2720 C.3    73  PHE73       0.1736
     32  C        -49.7540   79.7320   65.4420 C.2    73  PHE73       0.2595
     33  O        -48.8470   78.9240   65.3030 O.2    73  PHE73      -0.2718
     34  CB       -49.9720   81.0660   63.3160 C.3    73  PHE73       0.0547
     35  CG       -50.5400   81.0350   61.9170 C.ar   73  PHE73      -0.0202
     36  CD1      -51.6410   81.8280   61.5790 C.ar   73  PHE73      -0.0042
     37  CD2      -49.9990   80.1830   60.9500 C.ar   73  PHE73      -0.0042
     38  CE1      -52.1890   81.7830   60.3040 C.ar   73  PHE73      -0.0003
     39  CE2      -50.5450   80.1270   59.6630 C.ar   73  PHE73      -0.0003
     40  CZ       -51.6420   80.9310   59.3400 C.ar   73  PHE73      -0.0000
     41  N        -50.0320   80.3000   66.6080 N.am   74  LEU74      -0.1980
     42  CA       -49.0600   80.3000   67.6890 C.3    74  LEU74       0.1596
     43  C        -49.2480   79.2540   68.7790 C.2    74  LEU74       0.2287
     44  O        -48.8310   79.4650   69.9090 O.2    74  LEU74      -0.2864
     45  CB       -48.9470   81.7040   68.2980 C.3    74  LEU74       0.0297
     46  CG       -48.7230   82.9050   67.3680 C.3    74  LEU74       0.0022
     47  CD1      -48.4750   84.1320   68.2290 C.3    74  LEU74       0.0001
     48  CD2      -47.5930   82.7030   66.3350 C.3    74  LEU74       0.0001
     49  N        -47.0410   79.0320   54.5620 N.3    96  SER96      -0.1202
     50  CA       -48.4080   79.2360   55.0010 C.3    96  SER96       0.2020
     51  C        -48.7750   80.6890   55.1280 C.2    96  SER96       0.2619
     52  O        -47.9170   81.5600   55.2260 O.2    96  SER96      -0.2717
     53  CB       -48.6270   78.5700   56.3470 C.3    96  SER96       0.2103
     54  OG       -49.9940   78.2650   56.5110 O.3    96  SER96      -0.2182
     55  N        -50.0750   80.9380   55.1530 N.am   97  ASN97      -0.1960
     56  CA       -50.5900   82.2780   55.3030 C.3    97  ASN97       0.1819
     57  C        -52.0930   82.2620   55.4670 C.2    97  ASN97       0.2621
     58  O        -52.7280   81.2160   55.3900 O.2    97  ASN97      -0.2715
     59  CB       -50.2190   83.1140   54.0820 C.3    97  ASN97       0.1195
     60  CG       -49.9220   84.5580   54.4240 C.2    97  ASN97       0.2630
     61  OD1      -49.9220   84.9660   55.5940 O.2    97  ASN97      -0.2716
     62  ND2      -49.6500   85.3460   53.3920 N.am   97  ASN97      -0.0877
     63  N        -52.6560   83.4390   55.6740 N.am   98  ALA98      -0.1963
     64  CA       -54.0610   83.5710   55.9390 C.3    98  ALA98       0.1728
     65  C        -54.4740   85.0120   55.6850 C.2    98  ALA98       0.2616
     66  O        -53.6230   85.9060   55.6630 O.2    98  ALA98      -0.2715
     67  CB       -54.3460   83.1810   57.3820 C.3    98  ALA98       0.0334
     68  N        -55.7710   85.2350   55.4830 N.am   99  PHE99      -0.1960
     69  CA       -56.3080   86.5880   55.4760 C.3    99  PHE99       0.1771
     70  C        -57.7230   86.6650   56.0580 C.2    99  PHE99       0.2620
     71  O        -58.4980   85.7110   55.9620 O.2    99  PHE99      -0.2715
     72  CB       -56.2570   87.2000   54.0640 C.3    99  PHE99       0.0574
     73  CG       -57.1370   86.5140   53.0840 C.ar   99  PHE99      -0.0200
     74  CD1      -56.6420   85.4540   52.3070 C.ar   99  PHE99      -0.0042
     75  CD2      -58.4700   86.9040   52.9410 C.ar   99  PHE99      -0.0042
     76  CE1      -57.4750   84.7800   51.3890 C.ar   99  PHE99      -0.0003
     77  CE2      -59.3140   86.2420   52.0360 C.ar   99  PHE99      -0.0003
     78  CZ       -58.8120   85.1800   51.2530 C.ar   99  PHE99      -0.0000
     79  N        -58.0390   87.8180   56.6500 N.am  100  THR100     -0.1937
     80  CA       -59.3700   88.1350   57.1670 C.3   100  THR100      0.2028
     81  C        -60.0160   89.1940   56.2660 C.2   100  THR100      0.2642
     82  O        -59.3850   90.1760   55.9000 O.2   100  THR100     -0.2714
     83  CB       -59.2770   88.6710   58.6320 C.3   100  THR100      0.1808
     84  OG1      -58.6630   87.6910   59.4680 O.3   100  THR100     -0.2208
     85  CG2      -60.6390   88.9760   59.2110 C.3   100  THR100      0.0379
     86  N        -61.2700   88.9880   55.8900 N.am  101  SER101     -0.1949
     87  CA       -62.0420   90.0380   55.2170 C.3   101  SER101      0.1924
     88  C        -63.3460   90.2520   55.9760 C.2   101  SER101      0.2314
     89  O        -63.4610   89.8470   57.1320 O.2   101  SER101     -0.2863
     90  CB       -62.2850   89.7140   53.7320 C.3   101  SER101      0.2116
     91  OG       -62.9240   88.4600   53.5650 O.3   101  SER101     -0.2180
     92  N        -54.3220   78.8650   54.6880 N.3   108  TYR108     -0.1241
     93  CA       -53.7940   77.9380   53.6800 C.3   108  TYR108      0.1605
     94  C        -52.3190   77.6170   53.8850 C.2   108  TYR108      0.2264
     95  O        -51.5850   78.3890   54.4940 O.2   108  TYR108     -0.2867
     96  CB       -54.0510   78.4740   52.2550 C.3   108  TYR108      0.0534
     97  CG       -53.6280   79.9000   52.0880 C.ar  108  TYR108     -0.0201
     98  CD1      -52.2920   80.2180   51.8290 C.ar  108  TYR108     -0.0009
     99  CD2      -54.5500   80.9420   52.2190 C.ar  108  TYR108     -0.0009
    100  CE1      -51.8780   81.5340   51.6900 C.ar  108  TYR108      0.0417
    101  CE2      -54.1470   82.2760   52.0900 C.ar  108  TYR108      0.0417
    102  CZ       -52.8060   82.5580   51.8210 C.ar  108  TYR108      0.1957
    103  OH       -52.3830   83.8570   51.6870 O.3   108  TYR108     -0.2866
    104  N        -47.8620   89.1410   69.8930 N.3   140  GLU140     -0.1245
    105  CA       -48.4270   89.2200   68.5420 C.3   140  GLU140      0.1567
    106  C        -49.3820   90.4150   68.3000 C.2   140  GLU140      0.2260
    107  O        -49.7250   90.6950   67.1500 O.2   140  GLU140     -0.2867
    108  CB       -49.0560   87.8820   68.1150 C.3   140  GLU140      0.0388
    109  CG       -49.4360   87.7760   66.6020 C.3   140  GLU140      0.1160
    110  CD       -48.2440   87.6610   65.6030 C.2   140  GLU140      0.3649
    111  OE1      -48.5000   87.5010   64.3760 O.co2 140  GLU140     -0.2457
    112  OE2      -47.0640   87.7280   66.0200 O.co2 140  GLU140     -0.2457
    113  N        -48.7860   96.0530   61.4050 N.3   147  GLU147     -0.1245
    114  CA       -49.5500   95.8390   60.1700 C.3   147  GLU147      0.1567
    115  C        -50.3650   97.1000   59.8620 C.2   147  GLU147      0.2260
    116  O        -50.3250   97.6000   58.7430 O.2   147  GLU147     -0.2867
    117  CB       -50.4460   94.5950   60.2940 C.3   147  GLU147      0.0388
    118  CG       -51.0260   94.0260   58.9880 C.3   147  GLU147      0.1160
    119  CD       -51.7030   92.6240   59.1540 C.2   147  GLU147      0.3649
    120  OE1      -52.6240   92.3210   58.3590 O.co2 147  GLU147     -0.2457
    121  OE2      -51.3460   91.8110   60.0610 O.co2 147  GLU147     -0.2457
    122  N        -50.1070  100.6450   56.9960 N.3   151  ASN151     -0.1240
    123  CA       -51.2350  101.0160   56.1380 C.3   151  ASN151      0.1653
    124  C        -51.7000  102.4280   56.3280 C.2   151  ASN151      0.2266
    125  O        -52.3820  102.9650   55.4650 O.2   151  ASN151     -0.2867
    126  CB       -52.4230  100.0900   56.3630 C.3   151  ASN151      0.1155
    127  CG       -52.1510   98.6730   55.9210 C.2   151  ASN151      0.2627
    128  OD1      -51.2060   98.4210   55.1720 O.2   151  ASN151     -0.2716
    129  ND2      -52.9710   97.7290   56.3920 N.am  151  ASN151     -0.0877
    130  N        -54.7980  103.9420   49.4570 N.3   156  ALA156     -0.1231
    131  CA       -55.8950  103.0090   49.2070 C.3   156  ALA156      0.1694
    132  C        -56.5960  102.5990   50.5120 C.2   156  ALA156      0.2592
    133  O        -57.8270  102.5520   50.5550 O.2   156  ALA156     -0.2718
    134  CB       -55.4290  101.8140   48.4120 C.3   156  ALA156      0.0304
    135  N        -55.8300  102.3490   51.5780 N.am  157  TRP157     -0.1976
    136  CA       -56.4310  102.0290   52.8820 C.3   157  TRP157      0.1640
    137  C        -57.2230  103.1980   53.4320 C.2   157  TRP157      0.2290
    138  O        -58.3770  103.0260   53.8200 O.2   157  TRP157     -0.2864
    139  CB       -55.3980  101.5460   53.8970 C.3   157  TRP157      0.0576
    140  CG       -54.8740  100.2000   53.5510 C.ar  157  TRP157      0.0006
    141  CD1      -53.7660   99.9280   52.8170 C.ar  157  TRP157      0.0946
    142  CD2      -55.4420   98.9330   53.9020 C.ar  157  TRP157      0.0152
    143  NE1      -53.5920   98.5740   52.6910 N.ar  157  TRP157     -0.2442
    144  CE2      -54.6080   97.9330   53.3390 C.ar  157  TRP157      0.0810
    145  CE3      -56.5790   98.5370   54.6290 C.ar  157  TRP157      0.0012
    146  CZ2      -54.8700   96.5600   53.4800 C.ar  157  TRP157      0.0191
    147  CZ3      -56.8410   97.1720   54.7650 C.ar  157  TRP157      0.0001
    148  CH2      -55.9870   96.2010   54.1930 C.ar  157  TRP157      0.0015
    149  N        -60.3320  103.3310   51.4290 N.3   160  PHE160     -0.1241
    150  CA       -61.0800  102.1630   51.8200 C.3   160  PHE160      0.1605
    151  C        -61.8300  102.4210   53.1130 C.2   160  PHE160      0.2264
    152  O        -63.0250  102.1320   53.1900 O.2   160  PHE160     -0.2867
    153  CB       -60.1200  100.9890   51.9700 C.3   160  PHE160      0.0534
    154  CG       -60.7190   99.7590   52.6020 C.ar  160  PHE160     -0.0203
    155  CD1      -60.4150   99.4280   53.9360 C.ar  160  PHE160     -0.0042
    156  CD2      -61.5360   98.9020   51.8610 C.ar  160  PHE160     -0.0042
    157  CE1      -60.9450   98.2860   54.5300 C.ar  160  PHE160     -0.0003
    158  CE2      -62.0670   97.7480   52.4500 C.ar  160  PHE160     -0.0003
    159  CZ       -61.7700   97.4440   53.7880 C.ar  160  PHE160     -0.0000
    160  N        -61.6630   97.1000   60.5240 N.3   177  GLY177     -0.1210
    161  CA       -61.3710   95.6710   60.4410 C.3   177  GLY177      0.1956
    162  C        -59.9990   95.2070   60.8980 C.2   177  GLY177      0.2612
    163  O        -59.8390   94.0660   61.3400 O.2   177  GLY177     -0.2717
    164  N        -59.0040   96.0760   60.7970 N.am  178  THR178     -0.1952
    165  CA       -57.6210   95.6700   61.0560 C.3   178  THR178      0.1897
    166  C        -57.3310   95.5710   62.5470 C.2   178  THR178      0.2313
    167  O        -56.7010   94.6100   63.0000 O.2   178  THR178     -0.2863
    168  CB       -56.5860   96.6340   60.3860 C.3   178  THR178      0.1794
    169  OG1      -56.8780   96.7440   58.9910 O.3   178  THR178     -0.2208
    170  CG2      -55.1500   96.1180   60.5520 C.3   178  THR178      0.0378
    171  N        -37.4520   84.7120   61.0270 N.3   778  PHE778     -0.1241
    172  CA       -38.8020   85.2030   61.2090 C.3   778  PHE778      0.1605
    173  C        -39.2660   85.0020   62.6540 C.2   778  PHE778      0.2264
    174  O        -39.8560   85.9070   63.2700 O.2   778  PHE778     -0.2867
    175  CB       -39.7420   84.4930   60.2390 C.3   778  PHE778      0.0534
    176  CG       -41.1520   85.0100   60.2640 C.ar  778  PHE778     -0.0203
    177  CD1      -41.5640   85.9790   59.3590 C.ar  778  PHE778     -0.0042
    178  CD2      -42.0810   84.5130   61.1790 C.ar  778  PHE778     -0.0042
    179  CE1      -42.8830   86.4530   59.3610 C.ar  778  PHE778     -0.0003
    180  CE2      -43.3980   84.9760   61.1960 C.ar  778  PHE778     -0.0003
    181  CZ       -43.8050   85.9480   60.2870 C.ar  778  PHE778     -0.0000
    182  N        -39.3920   88.5400   64.5010 N.3   782  ARG782     -0.1245
    183  CA       -40.7920   88.9440   64.5500 C.3   782  ARG782      0.1563
    184  C        -41.5570   88.3440   65.7330 C.2   782  ARG782      0.2260
    185  O        -41.9090   89.0760   66.6770 O.2   782  ARG782     -0.2867
    186  CB       -41.5610   88.7440   63.2460 C.3   782  ARG782      0.0307
    187  CG       -42.9950   89.2190   63.4530 C.3   782  ARG782      0.0489
    188  CD       -43.8020   89.2710   62.2220 C.3   782  ARG782      0.2205
    189  NE       -45.1460   88.7980   62.4960 N.pl3 782  ARG782     -0.0865
    190  CZ       -46.1140   88.7660   61.5900 C.cat 782  ARG782      0.5346
    191  NH1      -45.8810   89.2060   60.3640 N.pl3 782  ARG782      0.1354
    192  NH2      -47.3180   88.3060   61.9100 N.pl3 782  ARG782      0.1354
    193  N        -43.8380   94.1570   61.7700 N.3   789  TYR789     -0.1241
    194  CA       -44.6420   93.3310   60.9070 C.3   789  TYR789      0.1605
    195  C        -43.7950   92.7400   59.7560 C.2   789  TYR789      0.2264
    196  O        -43.8260   91.5320   59.5080 O.2   789  TYR789     -0.2867
    197  CB       -45.8340   94.1270   60.3820 C.3   789  TYR789      0.0534
    198  CG       -46.6720   93.3010   59.4610 C.ar  789  TYR789     -0.0201
    199  CD1      -47.4480   92.2540   59.9520 C.ar  789  TYR789     -0.0009
    200  CD2      -46.6510   93.5260   58.0880 C.ar  789  TYR789     -0.0009
    201  CE1      -48.2000   91.4700   59.1020 C.ar  789  TYR789      0.0417
    202  CE2      -47.4000   92.7450   57.2230 C.ar  789  TYR789      0.0417
    203  CZ       -48.1720   91.7190   57.7360 C.ar  789  TYR789      0.1957
    204  OH       -48.9240   90.9440   56.8730 O.3   789  TYR789     -0.2866
@<TRIPOS>BOND
     1   134   131    1
     2   131   130    1
     3   131   132    1
     4   132   133    2
     5   132   135   am
     6    78    76   ar
     7    78    77   ar
     8    76    74   ar
     9   149   150    1
    10   135   136    1
    11   103   102    1
    12   100   102   ar
    13   100    98   ar
    14   150   153    1
    15   150   151    1
    16   102   101   ar
    17    98    97   ar
    18   156   158   ar
    19   156   154   ar
    20   153   154    1
    21    77    75   ar
    22    97    99   ar
    23    97    96    1
    24   101    99   ar
    25    96    93    1
    26    74    73   ar
    27   158   159   ar
    28   154   155   ar
    29   143   141   ar
    30   143   144   ar
    31   141   140   ar
    32   136   137    1
    33   136   139    1
    34    75    73   ar
    35    73    72    1
    36   151   152    2
    37   144   146   ar
    38   144   142   ar
    39    62    60   am
    40   137   138    2
    41   146   148   ar
    42   140   139    1
    43   140   142   ar
    44    91    90    1
    45    93    94    1
    46    93    92    1
    47    90    87    1
    48   159   157   ar
    49    94    95    2
    50   142   145   ar
    51   155   157   ar
    52    72    69    1
    53    59    60    1
    54    59    56    1
    55   148   147   ar
    56    60    61    2
    57    49    50    1
    58   145   147   ar
    59    50    51    1
    60    50    53    1
    61    51    55   am
    62    51    52    2
    63    55    56    1
    64   128   127    2
    65    87    86    1
    66    87    88    1
    67    56    57    1
    68    58    57    2
    69   125   124    2
    70    57    63   am
    71    69    68    1
    72    69    70    1
    73    68    65   am
    74    66    65    2
    75    63    64    1
    76    65    64    1
    77    86    81   am
    78    82    81    2
    79   127   126    1
    80   127   129   am
    81    64    67    1
    82    71    70    2
    83    88    89    2
    84    70    79   am
    85   123   124    1
    86   123   126    1
    87   123   122    1
    88    81    80    1
    89    53    54    1
    90    79    80    1
    91   204   203    1
    92    80    83    1
    93   202   203   ar
    94   202   200   ar
    95   203   201   ar
    96   200   198   ar
    97   120   119   ar
    98    83    85    1
    99    83    84    1
   100   116   115    2
   101    18    17    2
   102   118   119    1
   103   118   117    1
   104   169   168    1
   105   201   199   ar
   106   119   121   ar
   107    19    17   am
   108    40    39   ar
   109    40    38   ar
   110   177   179   ar
   111   177   176   ar
   112   179   181   ar
   113    17    16    1
   114   198   199   ar
   115   198   197    1
   116   196   195    2
   117    39    37   ar
   118   195   194    1
   119   115   114    1
   120    16    15    1
   121   114   117    1
   122   114   113    1
   123    10     8   ar
   124    10     9   ar
   125   175   176    1
   126   175   172    1
   127   176   178   ar
   128   181   180   ar
   129    38    36   ar
   130   191   190    1
   131   197   194    1
   132   168   170    1
   133   168   165    1
   134   161   160    1
   135   161   162    1
   136     8     6   ar
   137   164   162   am
   138   164   165    1
   139     9     7   ar
   140   162   163    2
   141   194   193    1
   142    37    35   ar
   143   171   172    1
   144   165   166    1
   145   178   180   ar
   146     6     7   ar
   147     6     5    1
   148   172   173    1
   149    29    28   ar
   150    29    27   ar
   151    15    12    1
   152    36    35   ar
   153   190   192    1
   154   190   189    2
   155     5     2    1
   156    28    26   ar
   157    35    34    1
   158    27    25   ar
   159   188   189    1
   160   188   187    1
   161     2     1    1
   162     2     3    1
   163    14    13    2
   164   166   167    2
   165    12    13    1
   166    12    11    1
   167   173   174    2
   168    13    20   am
   169    26    25   ar
   170     4     3    2
   171    25    24    1
   172   186   187    1
   173   186   183    1
   174    34    31    1
   175    20    21    1
   176    21    24    1
   177    21    22    1
   178    31    30    1
   179    31    32    1
   180   111   110   ar
   181   182   183    1
   182   183   184    1
   183    23    22    2
   184    33    32    2
   185    32    41   am
   186   110   112   ar
   187   110   109    1
   188   184   185    2
   189    48    46    1
   190   109   108    1
   191    41    42    1
   192   107   106    2
   193    46    47    1
   194    46    45    1
   195    42    45    1
   196    42    43    1
   197   108   105    1
   198   106   105    1
   199   105   104    1
   200    43    44    2
