@<TRIPOS>MOLECULE
tmp/3hh5A01.pdb
 122 113 0 0 0
SMALL
GASTEIGER

@<TRIPOS>ATOM
      1  N         24.2080    7.3450   12.1360 N.3    78  ILE78      -0.1245
      2  CA        23.8180    6.6280   10.9200 C.3    78  ILE78       0.1561
      3  C         22.6070    5.7280   11.1940 C.2    78  ILE78       0.2260
      4  O         21.6210    5.7340   10.4430 O.2    78  ILE78      -0.2867
      5  CB        24.9970    5.7950   10.3630 C.3    78  ILE78       0.0252
      6  CG1       26.0590    6.7170    9.7530 C.3    78  ILE78       0.0019
      7  CG2       24.5150    4.7760    9.3220 C.3    78  ILE78       0.0019
      8  CD1       27.3900    6.0350    9.4770 C.3    78  ILE78       0.0001
      9  N         20.0560    7.1060    5.9860 N.3    84  LEU84      -0.1245
     10  CA        21.3870    6.5120    6.0180 C.3    84  LEU84       0.1561
     11  C         21.3820    5.0350    6.3980 C.2    84  LEU84       0.2260
     12  O         22.1200    4.2440    5.8090 O.2    84  LEU84      -0.2867
     13  CB        22.3000    7.2940    6.9660 C.3    84  LEU84       0.0270
     14  CG        22.4610    8.7860    6.6600 C.3    84  LEU84       0.0019
     15  CD1       23.3560    9.4410    7.7080 C.3    84  LEU84       0.0001
     16  CD2       22.9960    9.0040    5.2470 C.3    84  LEU84       0.0001
     17  N         21.0710    2.2340    3.6350 N.3    87  VAL87      -0.1231
     18  CA        22.2500    2.1640    2.7820 C.3    87  VAL87       0.1692
     19  C         23.4120    1.5300    3.5540 C.2    87  VAL87       0.2592
     20  O         24.0830    0.6280    3.0550 O.2    87  VAL87      -0.2718
     21  CB        22.6360    3.5400    2.2110 C.3    87  VAL87       0.0266
     22  CG1       23.8240    3.3970    1.2640 C.3    87  VAL87       0.0020
     23  CG2       21.4410    4.1580    1.4950 C.3    87  VAL87       0.0020
     24  N         23.6260    1.9790    4.7860 N.am   88  TYR88      -0.1976
     25  CA        24.6720    1.4230    5.6360 C.3    88  TYR88       0.1639
     26  C         24.4990   -0.0890    5.8230 C.2    88  TYR88       0.2290
     27  O         25.4550   -0.8580    5.6740 O.2    88  TYR88      -0.2864
     28  CB        24.6460    2.1470    6.9740 C.3    88  TYR88       0.0560
     29  CG        25.7110    1.7140    7.9440 C.ar   88  TYR88      -0.0198
     30  CD1       26.9940    2.2650    7.8980 C.ar   88  TYR88      -0.0009
     31  CD2       25.4320    0.7720    8.9200 C.ar   88  TYR88      -0.0009
     32  CE1       27.9660    1.8840    8.8010 C.ar   88  TYR88       0.0417
     33  CE2       26.3900    0.3780    9.8160 C.ar   88  TYR88       0.0417
     34  CZ        27.6530    0.9300    9.7580 C.ar   88  TYR88       0.1957
     35  OH        28.6110    0.5350   10.6550 O.3    88  TYR88      -0.2866
     36  N         25.7290   -2.3370    2.9770 N.3    91  LEU91      -0.1245
     37  CA        27.1600   -2.3600    2.6810 C.3    91  LEU91       0.1561
     38  C         27.9000   -3.4720    3.4070 C.2    91  LEU91       0.2260
     39  O         27.4720   -3.9370    4.4680 O.2    91  LEU91      -0.2867
     40  CB        27.8020   -1.0320    3.0920 C.3    91  LEU91       0.0270
     41  CG        27.3180    0.2260    2.3690 C.3    91  LEU91       0.0019
     42  CD1       27.9040    1.4620    3.0370 C.3    91  LEU91       0.0001
     43  CD2       27.6870    0.1950    0.8890 C.3    91  LEU91       0.0001
     44  N         31.6230    4.9590    5.0700 N.3    99  ALA99      -0.1245
     45  CA        30.4260    5.6920    5.4760 C.3    99  ALA99       0.1562
     46  C         30.6140    6.4020    6.8170 C.2    99  ALA99       0.2260
     47  O         30.2700    7.5820    6.9630 O.2    99  ALA99      -0.2867
     48  CB        29.2270    4.7410    5.5380 C.3    99  ALA99       0.0290
     49  N         32.8640    9.5260    6.4780 N.3   102  MET102     -0.1230
     50  CA        32.1500   10.7020    5.9720 C.3   102  MET102      0.1702
     51  C         31.3010   11.3720    7.0480 C.2   102  MET102      0.2592
     52  O         31.3050   12.5970    7.1750 O.2   102  MET102     -0.2718
     53  CB        31.2720   10.3430    4.7720 C.3   102  MET102      0.0401
     54  CG        32.0480   10.0100    3.5160 C.3   102  MET102      0.0596
     55  SD        30.9870    9.7900    2.0760 S.3   102  MET102     -0.1393
     56  CE        30.5040   11.4970    1.7480 C.3   102  MET102      0.0692
     57  N         30.5720   10.5730    7.8230 N.am  103  VAL103     -0.1980
     58  CA        29.7180   11.1270    8.8720 C.3   103  VAL103      0.1595
     59  C         30.5550   11.7730    9.9790 C.2   103  VAL103      0.2287
     60  O         30.2060   12.8360   10.5010 O.2   103  VAL103     -0.2864
     61  CB        28.7320   10.0550    9.4160 C.3   103  VAL103      0.0276
     62  CG1       27.9790   10.5450   10.6520 C.3   103  VAL103      0.0022
     63  CG2       27.7550    9.6600    8.3270 C.3   103  VAL103      0.0022
     64  N         25.7410   15.2000    5.4260 N.3   111  VAL111     -0.1245
     65  CA        25.7160   14.2760    4.3010 C.3   111  VAL111      0.1561
     66  C         24.3230   14.3210    3.6420 C.2   111  VAL111      0.2260
     67  O         24.0320   13.5540    2.7290 O.2   111  VAL111     -0.2867
     68  CB        26.1090   12.8340    4.7590 C.3   111  VAL111      0.0252
     69  CG1       26.1410   11.8510    3.5910 C.3   111  VAL111      0.0019
     70  CG2       27.4680   12.8410    5.4620 C.3   111  VAL111      0.0019
     71  N         23.9180   14.1650   -0.1500 N.3   114  PHE114     -0.1241
     72  CA        24.4160   12.9800   -0.8640 C.3   114  PHE114      0.1605
     73  C         23.3340   11.9540   -1.2670 C.2   114  PHE114      0.2264
     74  O         23.6470   10.7920   -1.5100 O.2   114  PHE114     -0.2867
     75  CB        25.5520   12.3060   -0.0710 C.3   114  PHE114      0.0534
     76  CG        26.8520   13.0920   -0.0620 C.ar  114  PHE114     -0.0203
     77  CD1       27.1460   13.9800    0.9730 C.ar  114  PHE114     -0.0042
     78  CD2       27.7850   12.9320   -1.0840 C.ar  114  PHE114     -0.0042
     79  CE1       28.3430   14.7040    0.9840 C.ar  114  PHE114     -0.0003
     80  CE2       28.9850   13.6550   -1.0790 C.ar  114  PHE114     -0.0003
     81  CZ        29.2590   14.5420   -0.0430 C.ar  114  PHE114     -0.0000
     82  N         24.1890    9.8690   -4.3920 N.3   117  SER117     -0.1202
     83  CA        25.3170    8.9930   -4.0610 C.3   117  SER117      0.2020
     84  C         24.8210    7.7820   -3.2660 C.2   117  SER117      0.2618
     85  O         25.2070    6.6370   -3.5250 O.2   117  SER117     -0.2717
     86  CB        26.3710    9.7450   -3.2270 C.3   117  SER117      0.2103
     87  OG        26.7550   10.9960   -3.7880 O.3   117  SER117     -0.2182
     88  N         23.9710    8.0600   -2.2790 N.am  118  LEU118     -0.1979
     89  CA        23.4070    7.0350   -1.4130 C.3   118  LEU118      0.1596
     90  C         22.6560    5.9870   -2.2130 C.2   118  LEU118      0.2287
     91  O         22.8310    4.7900   -1.9830 O.2   118  LEU118     -0.2864
     92  CB        22.5090    7.6660   -0.3420 C.3   118  LEU118      0.0297
     93  CG        23.2560    8.3760    0.7900 C.3   118  LEU118      0.0022
     94  CD1       22.3530    9.3650    1.5020 C.3   118  LEU118      0.0001
     95  CD2       23.8400    7.3790    1.7820 C.3   118  LEU118      0.0001
     96  N         25.1390    3.8410   -4.1540 N.3   121  LEU121     -0.1245
     97  CA        25.7940    2.9090   -3.2380 C.3   121  LEU121      0.1561
     98  C         24.8770    1.7410   -2.8780 C.2   121  LEU121      0.2260
     99  O         25.3190    0.5940   -2.8670 O.2   121  LEU121     -0.2867
    100  CB        26.2870    3.6300   -1.9800 C.3   121  LEU121      0.0270
    101  CG        27.4390    4.6150   -2.1890 C.3   121  LEU121      0.0019
    102  CD1       27.6120    5.4850   -0.9450 C.3   121  LEU121      0.0001
    103  CD2       28.7460    3.9170   -2.5560 C.3   121  LEU121      0.0001
    104  N         30.0960   10.9780   -5.9080 N.3   133  LEU133     -0.1245
    105  CA        30.6410   11.4430   -4.6340 C.3   133  LEU133      0.1561
    106  C         31.6290   12.5920   -4.8130 C.2   133  LEU133      0.2260
    107  O         31.7170   13.4730   -3.9640 O.2   133  LEU133     -0.2867
    108  CB        31.3150   10.2830   -3.9060 C.3   133  LEU133      0.0270
    109  CG        30.3720    9.2890   -3.2190 C.3   133  LEU133      0.0019
    110  CD1       31.0870    7.9680   -2.9460 C.3   133  LEU133      0.0001
    111  CD2       29.7800    9.8680   -1.9400 C.3   133  LEU133      0.0001
    112  N         34.9670    3.1780   -1.1060 N.3   153  PHE153     -0.1241
    113  CA        33.6380    2.8650   -1.6270 C.3   153  PHE153      0.1605
    114  C         33.6820    2.2040   -2.9980 C.2   153  PHE153      0.2264
    115  O         32.8630    1.3310   -3.2860 O.2   153  PHE153     -0.2867
    116  CB        32.7710    4.1160   -1.7620 C.3   153  PHE153      0.0534
    117  CG        32.1160    4.5660   -0.4960 C.ar  153  PHE153     -0.0203
    118  CD1       31.2590    3.7240    0.2070 C.ar  153  PHE153     -0.0042
    119  CD2       32.3160    5.8620   -0.0350 C.ar  153  PHE153     -0.0042
    120  CE1       30.6280    4.1630    1.3560 C.ar  153  PHE153     -0.0003
    121  CE2       31.6800    6.3040    1.1020 C.ar  153  PHE153     -0.0003
    122  CZ        30.8440    5.4550    1.8040 C.ar  153  PHE153     -0.0000
@<TRIPOS>BOND
     1   104   105    1
     2   106   105    1
     3   106   107    2
     4   105   108    1
     5    82    83    1
     6    96    97    1
     7    83    84    1
     8    83    86    1
     9   108   109    1
    10    87    86    1
    11    85    84    2
    12   115   114    2
    13    84    88   am
    14    97    98    1
    15    97   100    1
    16   109   110    1
    17   109   111    1
    18   114   113    1
    19    98    99    2
    20   103   101    1
    21    88    89    1
    22    90    91    2
    23    90    89    1
    24   101   100    1
    25   101   102    1
    26   116   113    1
    27   116   117    1
    28   113   112    1
    29    74    73    2
    30    89    92    1
    31    73    72    1
    32    78    80   ar
    33    78    76   ar
    34    80    81   ar
    35    72    71    1
    36    72    75    1
    37   117   119   ar
    38   117   118   ar
    39    92    93    1
    40    75    76    1
    41    76    77   ar
    42    81    79   ar
    43   119   121   ar
    44   118   120   ar
    45    93    94    1
    46    93    95    1
    47    43    41    1
    48    77    79   ar
    49   121   122   ar
    50    22    21    1
    51   120   122   ar
    52    23    21    1
    53    56    55    1
    54    55    54    1
    55    21    18    1
    56    41    42    1
    57    41    40    1
    58    37    36    1
    59    37    40    1
    60    37    38    1
    61    67    66    2
    62    18    19    1
    63    18    17    1
    64    20    19    2
    65    38    39    2
    66    54    53    1
    67    19    24   am
    68    69    68    1
    69    66    65    1
    70    65    68    1
    71    65    64    1
    72    68    70    1
    73    53    50    1
    74    24    25    1
    75    44    45    1
    76    16    14    1
    77    45    48    1
    78    45    46    1
    79    25    26    1
    80    25    28    1
    81    27    26    2
    82    12    11    2
    83    50    49    1
    84    50    51    1
    85     9    10    1
    86    10    11    1
    87    10    13    1
    88    14    13    1
    89    14    15    1
    90    46    47    2
    91    28    29    1
    92    51    52    2
    93    51    57   am
    94    57    58    1
    95    30    29   ar
    96    30    32   ar
    97    29    31   ar
    98    63    61    1
    99    32    34   ar
   100    58    61    1
   101    58    59    1
   102    31    33   ar
   103     7     5    1
   104    61    62    1
   105     8     6    1
   106     6     5    1
   107    34    33   ar
   108    34    35    1
   109    59    60    2
   110     5     2    1
   111     4     3    2
   112     2     3    1
   113     2     1    1
