@<TRIPOS>MOLECULE
tmp/3hhaA00.pdb
 146 142 0 0 0
SMALL
GASTEIGER

@<TRIPOS>ATOM
      1  N         -4.2660    4.0280  -10.2060 N.3    19  GLN19      -0.1245
      2  CA        -3.7390    5.3610  -10.0070 C.3    19  GLN19       0.1566
      3  C         -3.6280    6.1510  -11.3340 C.2    19  GLN19       0.2260
      4  O         -3.3620    7.3370  -11.3450 O.2    19  GLN19      -0.2867
      5  CB        -2.3570    5.2630   -9.3480 C.3    19  GLN19       0.0367
      6  CG        -1.2520    4.7070  -10.2290 C.3    19  GLN19       0.0905
      7  CD         0.0400    4.5320   -9.4660 C.2    19  GLN19       0.2608
      8  OE1        0.2210    3.5290   -8.7540 O.2    19  GLN19      -0.2717
      9  NE2        0.9310    5.4660   -9.5920 N.am   19  GLN19      -0.0878
     10  N          1.8160    9.9160  -10.4050 N.3    23  GLY23      -0.1225
     11  CA         2.7570    9.2920   -9.4720 C.3    23  GLY23       0.1811
     12  C          2.2940    9.2540   -8.0280 C.2    23  GLY23       0.2280
     13  O          3.0160    9.6480   -7.1080 O.2    23  GLY23      -0.2866
     14  N          1.2280    6.4850   -6.2630 N.3    25  CYS25      -0.1221
     15  CA         1.2510    5.1520   -5.6340 C.3    25  CYS25       0.1808
     16  C          1.2720    5.2080   -4.1180 C.2    25  CYS25       0.2601
     17  O          0.6290    4.4040   -3.4360 O.2    25  CYS25      -0.2717
     18  CB         2.4650    4.3810   -6.1360 C.3    25  CYS25       0.0970
     19  SG         4.0970    5.1760   -5.7890 S.3    25  CYS25      -0.0800
     20  N          2.0480    6.1400   -3.5840 N.am   26  TRP26      -0.1976
     21  CA         2.1460    6.3690   -2.1650 C.3    26  TRP26       0.1640
     22  C          0.8040    6.6050   -1.4940 C.2    26  TRP26       0.2290
     23  O          0.5920    6.2050   -0.3370 O.2    26  TRP26      -0.2864
     24  CB         3.1230    7.5110   -1.8870 C.3    26  TRP26       0.0576
     25  CG         2.7330    8.8070   -2.5400 C.ar   26  TRP26       0.0006
     26  CD1        3.0590    9.2130   -3.7990 C.ar   26  TRP26       0.0946
     27  CD2        1.8760    9.8110   -2.0000 C.ar   26  TRP26       0.0152
     28  NE1        2.4880   10.4290   -4.0580 N.ar   26  TRP26      -0.2442
     29  CE2        1.7560   10.8100   -2.9750 C.ar   26  TRP26       0.0810
     30  CE3        1.2050    9.9670   -0.7790 C.ar   26  TRP26       0.0012
     31  CZ2        0.9680   11.9490   -2.7810 C.ar   26  TRP26       0.0191
     32  CZ3        0.4320   11.0970   -0.5850 C.ar   26  TRP26       0.0001
     33  CH2        0.3440   12.0820   -1.5710 C.ar   26  TRP26       0.0015
     34  N          5.1900   17.1070    3.2990 N.3    61  GLY61      -0.1210
     35  CA         6.3020   16.7890    2.4570 C.3    61  GLY61       0.1956
     36  C          6.0150   16.0910    1.1520 C.2    61  GLY61       0.2612
     37  O          6.9240   15.8710    0.3560 O.2    61  GLY61      -0.2717
     38  N          4.7810   15.6770    0.9410 N.am   62  ASN62      -0.1960
     39  CA         4.4050   15.0150   -0.2970 C.3    62  ASN62       0.1819
     40  C          4.3670   15.9460   -1.4810 C.2    62  ASN62       0.2621
     41  O          4.1960   17.1690   -1.3130 O.2    62  ASN62      -0.2715
     42  CB         3.0910   14.2820   -0.1340 C.3    62  ASN62       0.1195
     43  CG         3.2650   13.0400    0.7290 C.2    62  ASN62       0.2630
     44  OD1        4.3270   12.4220    0.7010 O.2    62  ASN62      -0.2716
     45  ND2        2.2350   12.6830    1.5020 N.am   62  ASN62      -0.0877
     46  N          4.5210   15.3650   -2.6590 N.am   63  GLU63      -0.1977
     47  CA         4.6280   16.1130   -3.9080 C.3    63  GLU63       0.1602
     48  C          3.6260   15.6490   -4.9570 C.2    63  GLU63       0.2287
     49  O          3.8810   15.6850   -6.1480 O.2    63  GLU63      -0.2864
     50  CB         6.0610   16.0900   -4.4170 C.3    63  GLU63       0.0415
     51  CG         7.0140   16.6490   -3.3880 C.3    63  GLU63       0.1163
     52  CD         8.4250   16.8330   -3.8710 C.2    63  GLU63       0.3649
     53  OE1        8.7090   16.5550   -5.0480 O.co2  63  GLU63      -0.2457
     54  OE2        9.2750   17.2280   -3.0540 O.co2  63  GLU63      -0.2457
     55  N          3.9760   13.9210   -8.3970 N.3    66  ASN66      -0.1225
     56  CA         5.4270   13.8160   -8.5380 C.3    66  ASN66       0.1785
     57  C          6.0720   12.8900   -7.4980 C.2    66  ASN66       0.2598
     58  O          7.2790   12.7030   -7.5010 O.2    66  ASN66      -0.2718
     59  CB         6.0790   15.2000   -8.4230 C.3    66  ASN66       0.1169
     60  CG         5.6450   16.1330   -9.5080 C.2    66  ASN66       0.2627
     61  OD1        5.2670   17.2860   -9.2620 O.2    66  ASN66      -0.2716
     62  ND2        5.6820   15.6390  -10.7230 N.am   66  ASN66      -0.0877
     63  N          5.2700   12.3260   -6.6090 N.am   67  GLY67      -0.1942
     64  CA         5.7220   11.3230   -5.6590 C.3    67  GLY67       0.2014
     65  C          5.4830   11.7430   -4.2270 C.2    67  GLY67       0.2639
     66  O          5.0960   12.8710   -3.9240 O.2    67  GLY67      -0.2714
     67  N          5.7230   10.8070   -3.3260 N.am   68  GLY68      -0.1939
     68  CA         5.4370   11.0090   -1.9200 C.3    68  GLY68       0.2014
     69  C          5.7880    9.8020   -1.0860 C.2    68  GLY68       0.2639
     70  O          6.3120    8.8120   -1.6000 O.2    68  GLY68      -0.2714
     71  N          5.5010    9.9060    0.2070 N.am   69  LEU69      -0.1963
     72  CA         5.7820    8.8360    1.1580 C.3    69  LEU69       0.1728
     73  C          4.5460    8.5210    1.9480 C.2    69  LEU69       0.2616
     74  O          3.8180    9.4230    2.3660 O.2    69  LEU69      -0.2715
     75  CB         6.8880    9.2600    2.1190 C.3    69  LEU69       0.0311
     76  CG         8.2720    9.6030    1.5420 C.3    69  LEU69       0.0022
     77  CD1        9.1870   10.1260    2.6370 C.3    69  LEU69       0.0001
     78  CD2        8.8830    8.4380    0.7890 C.3    69  LEU69       0.0001
     79  N          4.3510    7.2430    2.2330 N.am   70  MET70      -0.1963
     80  CA         3.2170    6.8320    3.0120 C.3    70  MET70       0.1736
     81  C          3.2260    7.4460    4.4140 C.2    70  MET70       0.2616
     82  O          2.1790    7.8630    4.9130 O.2    70  MET70      -0.2715
     83  CB         3.1260    5.3060    3.0540 C.3    70  MET70       0.0427
     84  CG         2.7980    4.6680    1.7140 C.3    70  MET70       0.0599
     85  SD         4.1900    4.5440    0.5370 S.3    70  MET70      -0.1393
     86  CE         4.9680    3.0450    1.1140 C.3    70  MET70       0.0692
     87  N          4.3950    7.5830    5.0230 N.am   71  ASP71      -0.1957
     88  CA         4.4440    8.1380    6.3590 C.3    71  ASP71       0.1840
     89  C          3.9910    9.5920    6.3760 C.2    71  ASP71       0.2622
     90  O          3.3590   10.0300    7.3210 O.2    71  ASP71      -0.2715
     91  CB         5.8440    8.0080    6.9530 C.3    71  ASP71       0.1450
     92  CG         6.1540    6.6070    7.4300 C.2    71  ASP71       0.3671
     93  OD1        5.2550    5.7430    7.4810 O.co2  71  ASP71      -0.2456
     94  OD2        7.3240    6.4180    7.8220 O.co2  71  ASP71      -0.2456
     95  N          4.3340   10.3240    5.3250 N.am   72  TYR72      -0.1974
     96  CA         3.8850   11.7100    5.2080 C.3    72  TYR72       0.1639
     97  C          2.3530   11.7750    5.0740 C.2    72  TYR72       0.2290
     98  O          1.7170   12.6860    5.6040 O.2    72  TYR72      -0.2864
     99  CB         4.5590   12.3710    4.0210 C.3    72  TYR72       0.0560
    100  CG         6.0320   12.6670    4.1390 C.ar   72  TYR72      -0.0198
    101  CD1        6.7490   12.4640    5.3160 C.ar   72  TYR72      -0.0009
    102  CD2        6.7080   13.2040    3.0540 C.ar   72  TYR72      -0.0009
    103  CE1        8.0990   12.7810    5.3930 C.ar   72  TYR72       0.0417
    104  CE2        8.0480   13.5300    3.1260 C.ar   72  TYR72       0.0417
    105  CZ         8.7480   13.3220    4.2930 C.ar   72  TYR72       0.1957
    106  OH        10.0950   13.6490    4.3530 O.3    72  TYR72      -0.2866
    107  N          7.3510   -0.1260    0.2560 N.3   135  ALA135     -0.1245
    108  CA         7.8800    0.2600   -1.0200 C.3   135  ALA135      0.1562
    109  C          8.7560   -0.8350   -1.6230 C.2   135  ALA135      0.2260
    110  O          9.4620   -1.5470   -0.8970 O.2   135  ALA135     -0.2867
    111  CB         8.7110    1.5330   -0.8750 C.3   135  ALA135      0.0290
    112  N         14.0600    1.5390   -3.8760 N.3   161  MET161     -0.1230
    113  CA        12.6400    1.3430   -4.1110 C.3   161  MET161      0.1702
    114  C         12.0150    2.5780   -4.7420 C.2   161  MET161      0.2592
    115  O         12.3690    3.7080   -4.3820 O.2   161  MET161     -0.2718
    116  CB        11.9240    1.0030   -2.8140 C.3   161  MET161      0.0401
    117  CG        12.4980   -0.2380   -2.0810 C.3   161  MET161      0.0596
    118  SD        13.8930    0.1040   -1.0330 S.3   161  MET161     -0.1393
    119  CE        13.1160    1.2060    0.1790 C.3   161  MET161      0.0692
    120  N         11.0680    2.3560   -5.6420 N.am  162  ASP162     -0.1960
    121  CA        10.4140    3.4590   -6.3570 C.3   162  ASP162      0.1840
    122  C          8.9060    3.4270   -6.3420 C.2   162  ASP162      0.2622
    123  O          8.2780    4.3140   -6.9160 O.2   162  ASP162     -0.2715
    124  CB        10.9120    3.4910   -7.8180 C.3   162  ASP162      0.1450
    125  CG        10.5920    2.2130   -8.6250 C.2   162  ASP162      0.3671
    126  OD1        9.9810    1.2780   -8.0990 O.co2 162  ASP162     -0.2456
    127  OD2       10.9770    2.1590   -9.8340 O.co2 162  ASP162     -0.2456
    128  N          8.3100    2.4350   -5.6880 N.am  163  HIS163     -0.1959
    129  CA         6.8710    2.2230   -5.8420 C.3   163  HIS163      0.1787
    130  C          6.2270    1.7420   -4.5440 C.2   163  HIS163      0.2620
    131  O          6.6110    0.7260   -3.9800 O.2   163  HIS163     -0.2715
    132  CB         6.6870    1.2080   -6.9590 C.3   163  HIS163      0.0785
    133  CG         5.2690    0.9970   -7.3550 C.ar  163  HIS163      0.0821
    134  ND1        4.4310    2.0310   -7.7070 N.ar  163  HIS163     -0.2267
    135  CD2        4.5540   -0.1430   -7.4930 C.ar  163  HIS163      0.1154
    136  CE1        3.2370    1.5430   -7.9900 C.ar  163  HIS163      0.1986
    137  NE2        3.2840    0.2250   -7.8770 N.ar  163  HIS163     -0.2212
    138  N          5.2290    2.4680   -4.0890 N.am  164  GLY164     -0.1954
    139  CA         4.5010    2.1300   -2.8720 C.3   164  GLY164      0.1869
    140  C          3.3500    1.2260   -3.1680 C.2   164  GLY164      0.2309
    141  O          2.5800    1.4840   -4.0700 O.2   164  GLY164     -0.2863
    142  N         11.0990   -0.1290    3.7810 N.3   214  ALA214     -0.1245
    143  CA        10.3270    1.0810    4.0880 C.3   214  ALA214      0.1562
    144  C          8.8760    0.7050    4.3590 C.2   214  ALA214      0.2260
    145  O          7.9620    1.1690    3.6860 O.2   214  ALA214     -0.2867
    146  CB        10.4180    2.1150    2.9490 C.3   214  ALA214      0.0290
@<TRIPOS>BOND
     1     4     3    2
     2     3     2    1
     3    62    60   am
     4    10    11    1
     5     6     7    1
     6     6     5    1
     7     1     2    1
     8     2     5    1
     9   127   125   ar
    10     9     7   am
    11    60    61    2
    12    60    59    1
    13    11    12    1
    14     7     8    2
    15   125   126   ar
    16   125   124    1
    17    56    59    1
    18    56    55    1
    19    56    57    1
    20    12    13    2
    21   136   137   ar
    22   136   134   ar
    23   137   135   ar
    24   124   121    1
    25   134   133   ar
    26    58    57    2
    27    57    63   am
    28   135   133   ar
    29   133   132    1
    30   132   129    1
    31   123   122    2
    32    63    64    1
    33   121   122    1
    34   121   120    1
    35   122   128   am
    36    14    15    1
    37    49    48    2
    38    18    19    1
    39    18    15    1
    40   129   128    1
    41   129   130    1
    42    64    65    1
    43   120   114   am
    44    15    16    1
    45    53    52   ar
    46    48    47    1
    47   114   115    2
    48   114   113    1
    49   130   138   am
    50   130   131    2
    51    50    47    1
    52    50    51    1
    53    65    66    2
    54    65    67   am
    55    16    20   am
    56    16    17    2
    57   113   112    1
    58   113   116    1
    59   138   139    1
    60   141   140    2
    61    28    26   ar
    62    28    29   ar
    63    47    46    1
    64    52    51    1
    65    52    54   ar
    66    26    25   ar
    67    20    21    1
    68    67    68    1
    69   140   139    1
    70    29    31   ar
    71    29    27   ar
    72   116   117    1
    73    31    33   ar
    74    46    40   am
    75    25    27   ar
    76    25    24    1
    77    21    24    1
    78    21    22    1
    79   117   118    1
    80    27    30   ar
    81    68    69    1
    82   109   108    1
    83   109   110    2
    84    70    69    2
    85    33    32   ar
    86    22    23    2
    87    40    41    2
    88    40    39    1
    89    69    71   am
    90   118   119    1
    91   108   111    1
    92   108   107    1
    93    30    32   ar
    94    39    42    1
    95    39    38    1
    96    42    43    1
    97    71    72    1
    98    37    36    2
    99    85    86    1
   100    85    84    1
   101    44    43    2
   102    43    45   am
   103    78    76    1
   104    38    36   am
   105    36    35    1
   106    72    73    1
   107    72    75    1
   108    76    75    1
   109    76    77    1
   110    84    83    1
   111    73    79   am
   112    73    74    2
   113    79    80    1
   114    35    34    1
   115   146   143    1
   116    80    83    1
   117    80    81    1
   118   102   104   ar
   119   102   100   ar
   120   104   105   ar
   121   145   144    2
   122   142   143    1
   123    99   100    1
   124    99    96    1
   125   143   144    1
   126   100   101   ar
   127   105   106    1
   128   105   103   ar
   129    81    82    2
   130    81    87   am
   131    87    88    1
   132    97    96    1
   133    97    98    2
   134    96    95    1
   135   101   103   ar
   136    95    89   am
   137    88    89    1
   138    88    91    1
   139    89    90    2
   140    91    92    1
   141    92    93   ar
   142    92    94   ar
