@<TRIPOS>MOLECULE
tmp/3hhaA01.pdb
 86 84 0 0 0
SMALL
GASTEIGER

@<TRIPOS>ATOM
      1  N         -6.8660    2.0170   -9.5280 N.3    18  ASN18      -0.1225
      2  CA        -5.9490    2.3530  -10.5890 C.3    18  ASN18       0.1785
      3  C         -5.5470    3.8100  -10.4550 C.2    18  ASN18       0.2597
      4  O         -6.3760    4.7170  -10.5920 O.2    18  ASN18      -0.2718
      5  CB        -6.5650    2.1130  -11.9640 C.3    18  ASN18       0.1169
      6  CG        -5.5170    2.0860  -13.0460 C.2    18  ASN18       0.2627
      7  OD1       -4.4780    2.7420  -12.9240 O.2    18  ASN18      -0.2716
      8  ND2       -5.7620    1.3170  -14.0960 N.am   18  ASN18      -0.0877
      9  N         -4.2660    4.0280  -10.2060 N.am   19  GLN19      -0.1965
     10  CA        -3.7390    5.3610  -10.0070 C.3    19  GLN19       0.1733
     11  C         -3.6280    6.1510  -11.3340 C.2    19  GLN19       0.2617
     12  O         -3.3620    7.3370  -11.3450 O.2    19  GLN19      -0.2715
     13  CB        -2.3570    5.2630   -9.3480 C.3    19  GLN19       0.0408
     14  CG        -1.2520    4.7070  -10.2290 C.3    19  GLN19       0.0908
     15  CD         0.0400    4.5320   -9.4660 C.2    19  GLN19       0.2608
     16  OE1        0.2210    3.5290   -8.7540 O.2    19  GLN19      -0.2717
     17  NE2        0.9310    5.4660   -9.5920 N.am   19  GLN19      -0.0878
     18  N         -3.8040    5.4810  -12.4570 N.am   20  GLY20      -0.1940
     19  CA        -3.6960    6.1830  -13.7290 C.3    20  GLY20       0.2014
     20  C         -2.2630    6.6090  -13.9780 C.2    20  GLY20       0.2639
     21  O         -1.3380    5.9520  -13.5310 O.2    20  GLY20      -0.2714
     22  N         -2.0630    7.7220  -14.6860 N.am   21  GLN21      -0.1963
     23  CA        -0.6910    8.1380  -15.0200 C.3    21  GLN21       0.1733
     24  C         -0.0500    9.1120  -14.0050 C.2    21  GLN21       0.2616
     25  O          1.0250    9.6640  -14.2430 O.2    21  GLN21      -0.2715
     26  CB        -0.6040    8.6390  -16.4680 C.3    21  GLN21       0.0408
     27  CG        -0.7240    7.4870  -17.4680 C.3    21  GLN21       0.0908
     28  CD         0.2800    6.3680  -17.1880 C.2    21  GLN21       0.2608
     29  OE1        1.4900    6.6070  -17.1100 O.2    21  GLN21      -0.2717
     30  NE2       -0.2180    5.1420  -17.0240 N.am   21  GLN21      -0.0878
     31  N         -0.6780    9.2560  -12.8500 N.am   22  CYS22      -0.1954
     32  CA        -0.2030   10.1050  -11.7680 C.3    22  CYS22       0.1843
     33  C          0.7170    9.2880  -10.8540 C.2    22  CYS22       0.2626
     34  O          0.4340    8.1210  -10.5690 O.2    22  CYS22      -0.2714
     35  CB        -1.4430   10.6060  -11.0300 C.3    22  CYS22       0.0997
     36  SG        -1.2450   11.5270   -9.5380 S.3    22  CYS22      -0.0797
     37  N          1.8160    9.9160  -10.4050 N.am   23  GLY23      -0.1954
     38  CA         2.7570    9.2920   -9.4720 C.3    23  GLY23       0.1869
     39  C          2.2940    9.2540   -8.0280 C.2    23  GLY23       0.2309
     40  O          3.0160    9.6480   -7.1080 O.2    23  GLY23      -0.2863
     41  N          1.2280    6.4850   -6.2630 N.3    25  CYS25      -0.1235
     42  CA         1.2510    5.1520   -5.6340 C.3    25  CYS25       0.1677
     43  C          1.2720    5.2080   -4.1180 C.2    25  CYS25       0.2270
     44  O          0.6290    4.4040   -3.4360 O.2    25  CYS25      -0.2867
     45  CB         2.4650    4.3810   -6.1360 C.3    25  CYS25       0.0956
     46  SG         4.0970    5.1760   -5.7890 S.3    25  CYS25      -0.0801
     47  N          6.3280   -5.0190  -14.9050 N.3   144  LEU144     -0.1245
     48  CA         5.2570   -4.5400  -15.7750 C.3   144  LEU144      0.1561
     49  C          4.4980   -5.7020  -16.3840 C.2   144  LEU144      0.2260
     50  O          3.2580   -5.6290  -16.5100 O.2   144  LEU144     -0.2867
     51  CB         5.8230   -3.6830  -16.8960 C.3   144  LEU144      0.0270
     52  CG         6.5330   -2.4140  -16.4570 C.3   144  LEU144      0.0019
     53  CD1        7.0060   -1.6360  -17.6790 C.3   144  LEU144      0.0001
     54  CD2        5.6490   -1.5300  -15.5970 C.3   144  LEU144      0.0001
     55  N         11.0680    2.3560   -5.6420 N.3   162  ASP162     -0.1225
     56  CA        10.4140    3.4590   -6.3570 C.3   162  ASP162      0.1805
     57  C          8.9060    3.4270   -6.3420 C.2   162  ASP162      0.2597
     58  O          8.2780    4.3140   -6.9160 O.2   162  ASP162     -0.2718
     59  CB        10.9120    3.4910   -7.8180 C.3   162  ASP162      0.1424
     60  CG        10.5920    2.2130   -8.6250 C.2   162  ASP162      0.3668
     61  OD1        9.9810    1.2780   -8.0990 O.co2 162  ASP162     -0.2456
     62  OD2       10.9770    2.1590   -9.8340 O.co2 162  ASP162     -0.2456
     63  N          8.3100    2.4350   -5.6880 N.am  163  HIS163     -0.1975
     64  CA         6.8710    2.2230   -5.8420 C.3   163  HIS163      0.1656
     65  C          6.2270    1.7420   -4.5440 C.2   163  HIS163      0.2291
     66  O          6.6110    0.7260   -3.9800 O.2   163  HIS163     -0.2864
     67  CB         6.6870    1.2080   -6.9590 C.3   163  HIS163      0.0771
     68  CG         5.2690    0.9970   -7.3550 C.ar  163  HIS163      0.0820
     69  ND1        4.4310    2.0310   -7.7070 N.ar  163  HIS163     -0.2267
     70  CD2        4.5540   -0.1430   -7.4930 C.ar  163  HIS163      0.1154
     71  CE1        3.2370    1.5430   -7.9900 C.ar  163  HIS163      0.1986
     72  NE2        3.2840    0.2250   -7.8770 N.ar  163  HIS163     -0.2212
     73  N         -2.5050   -0.5080  -10.1030 N.3   189  TRP189     -0.1241
     74  CA        -2.4220   -0.4000  -11.5410 C.3   189  TRP189      0.1605
     75  C         -3.6380   -1.0560  -12.2280 C.2   189  TRP189      0.2264
     76  O         -3.5790   -1.3830  -13.4150 O.2   189  TRP189     -0.2867
     77  CB        -1.1350   -1.0460  -12.0770 C.3   189  TRP189      0.0550
     78  CG         0.1110   -0.3010  -11.7230 C.ar  189  TRP189      0.0003
     79  CD1        0.2080    0.9390  -11.1290 C.ar  189  TRP189      0.0946
     80  CD2        1.4480   -0.7050  -12.0080 C.ar  189  TRP189      0.0152
     81  NE1        1.5380    1.2940  -10.9900 N.ar  189  TRP189     -0.2442
     82  CE2        2.3150    0.3070  -11.5290 C.ar  189  TRP189      0.0810
     83  CE3        2.0020   -1.8400  -12.5970 C.ar  189  TRP189      0.0012
     84  CZ2        3.6980    0.2290  -11.6500 C.ar  189  TRP189      0.0191
     85  CZ3        3.3890   -1.9170  -12.7050 C.ar  189  TRP189      0.0001
     86  CH2        4.2140   -0.8880  -12.2430 C.ar  189  TRP189      0.0015
@<TRIPOS>BOND
     1    53    52    1
     2    27    28    1
     3    27    26    1
     4    28    29    2
     5    28    30   am
     6    51    52    1
     7    51    48    1
     8    50    49    2
     9    26    23    1
    10    52    54    1
    11    49    48    1
    12    48    47    1
    13    23    22    1
    14    23    24    1
    15    22    20   am
    16    25    24    2
    17     8     6   am
    18    24    31   am
    19    20    19    1
    20    20    21    2
    21    19    18    1
    22    76    75    2
    23     6     7    2
    24     6     5    1
    25    31    32    1
    26    85    83   ar
    27    85    86   ar
    28    83    80   ar
    29    18    11   am
    30    86    84   ar
    31    75    74    1
    32    77    78    1
    33    77    74    1
    34    80    78   ar
    35    80    82   ar
    36     5     2    1
    37    32    35    1
    38    32    33    1
    39    78    79   ar
    40    84    82   ar
    41    74    73    1
    42    82    81   ar
    43    12    11    2
    44    11    10    1
    45    79    81   ar
    46    35    36    1
    47    33    34    2
    48    33    37   am
    49     4     3    2
    50     2     3    1
    51     2     1    1
    52     3     9   am
    53    37    38    1
    54    14    15    1
    55    14    13    1
    56     9    10    1
    57    10    13    1
    58    62    60   ar
    59    17    15   am
    60    38    39    1
    61    15    16    2
    62    60    61   ar
    63    60    59    1
    64    39    40    2
    65    71    72   ar
    66    71    69   ar
    67    72    70   ar
    68    59    56    1
    69    69    68   ar
    70    70    68   ar
    71    68    67    1
    72    67    64    1
    73    58    57    2
    74    56    57    1
    75    56    55    1
    76    57    63   am
    77    41    42    1
    78    45    46    1
    79    45    42    1
    80    64    63    1
    81    64    65    1
    82    42    43    1
    83    65    66    2
    84    43    44    2
