@<TRIPOS>MOLECULE
tmp/3hheB00.pdb
 104 98 0 0 0
SMALL
GASTEIGER

@<TRIPOS>ATOM
      1  N         29.9070   89.2150  -21.8280 N.3     6  LYS6       -0.1245
      2  CA        29.3980   88.1410  -20.9840 C.3     6  LYS6        0.1561
      3  C         28.9460   86.9060  -21.7820 C.2     6  LYS6        0.2260
      4  O         29.3260   85.7680  -21.4510 O.2     6  LYS6       -0.2867
      5  CB        28.2880   88.6720  -20.0720 C.3     6  LYS6        0.0271
      6  CG        28.8370   89.4810  -18.9170 C.3     6  LYS6        0.0035
      7  CD        27.7330   90.1470  -18.1130 C.3     6  LYS6        0.0206
      8  CE        28.3050   91.2870  -17.2790 C.3     6  LYS6        0.1093
      9  NZ        27.3030   91.8310  -16.3260 N.3     6  LYS6       -0.1314
     10  N         26.0660   81.7280  -10.0720 N.3    27  SER27      -0.1202
     11  CA        25.0370   82.7770  -10.1410 C.3    27  SER27       0.2020
     12  C         25.6210   84.0900  -10.6370 C.2    27  SER27       0.2619
     13  O         26.8440   84.2370  -10.7230 O.2    27  SER27      -0.2717
     14  CB        24.3920   82.9950   -8.7680 C.3    27  SER27       0.2103
     15  OG        24.0940   81.7490   -8.1630 O.3    27  SER27      -0.2182
     16  N         24.7450   85.0430  -10.9530 N.am   28  GLY28      -0.1942
     17  CA        25.1680   86.3340  -11.4510 C.3    28  GLY28       0.2014
     18  C         24.7410   86.5600  -12.8880 C.2    28  GLY28       0.2640
     19  O         24.2830   85.6540  -13.5780 O.2    28  GLY28      -0.2714
     20  N         24.8860   87.7920  -13.3410 N.am   29  SER29      -0.1935
     21  CA        24.4070   88.1640  -14.6560 C.3    29  SER29       0.2055
     22  C         25.1700   87.4210  -15.7540 C.2    29  SER29       0.2644
     23  O         24.5600   87.0600  -16.7590 O.2    29  SER29      -0.2714
     24  CB        24.5160   89.6780  -14.8300 C.3    29  SER29       0.2130
     25  OG        25.8710   90.0800  -14.6490 O.3    29  SER29      -0.2179
     26  N         26.4790   87.1830  -15.5620 N.am   30  THR30      -0.1936
     27  CA        27.2590   86.4010  -16.5390 C.3    30  THR30       0.2028
     28  C         26.7590   84.9420  -16.6620 C.2    30  THR30       0.2642
     29  O         26.5260   84.4390  -17.7780 O.2    30  THR30      -0.2714
     30  CB        28.7850   86.3930  -16.2700 C.3    30  THR30       0.1808
     31  OG1       29.2330   87.7110  -15.9280 O.3    30  THR30      -0.2208
     32  CG2       29.5330   85.9160  -17.5260 C.3    30  THR30       0.0379
     33  N         26.5890   84.2750  -15.5190 N.am   31  VAL31      -0.1977
     34  CA        25.9900   82.9310  -15.4960 C.3    31  VAL31       0.1596
     35  C         24.5480   82.9370  -16.0690 C.2    31  VAL31       0.2287
     36  O         24.1180   81.9590  -16.6970 O.2    31  VAL31      -0.2864
     37  CB        26.0750   82.2670  -14.0760 C.3    31  VAL31       0.0276
     38  CG1       25.2680   80.9580  -14.0230 C.3    31  VAL31       0.0022
     39  CG2       27.5480   81.9620  -13.6940 C.3    31  VAL31       0.0022
     40  N         30.5540   83.0380  -12.2230 N.3    83  GLY83      -0.1210
     41  CA        31.1300   84.3440  -12.4430 C.3    83  GLY83       0.1956
     42  C         31.9620   84.7420  -11.2340 C.2    83  GLY83       0.2612
     43  O         32.1780   83.9230  -10.3200 O.2    83  GLY83      -0.2717
     44  N         32.4120   85.9940  -11.2370 N.am   84  ALA84      -0.1965
     45  CA        33.2100   86.5750  -10.1540 C.3    84  ALA84       0.1728
     46  C         33.0680   88.0860  -10.1910 C.2    84  ALA84       0.2616
     47  O         33.0250   88.6800  -11.2730 O.2    84  ALA84      -0.2715
     48  CB        34.6680   86.2150  -10.2990 C.3    84  ALA84       0.0334
     49  N         33.0010   88.6970   -9.0090 N.am   85  ASP85      -0.1971
     50  CA        32.9580   90.1560   -8.8690 C.3    85  ASP85       0.1709
     51  C         34.3440   90.7110   -9.1400 C.2    85  ASP85       0.2293
     52  O         34.4810   91.7780   -9.7280 O.2    85  ASP85      -0.2864
     53  CB        32.4870   90.5540   -7.4680 C.3    85  ASP85       0.1436
     54  CG        31.0990   90.0090   -7.1420 C.2    85  ASP85       0.3671
     55  OD1       30.2420   89.9710   -8.0670 O.co2  85  ASP85      -0.2456
     56  OD2       30.8460   89.6440   -5.9620 O.co2  85  ASP85      -0.2456
     57  N         33.6750   86.9860   -4.6310 N.3    95  LYS95      -0.1231
     58  CA        32.3510   86.6220   -5.1030 C.3    95  LYS95       0.1693
     59  C         31.3500   86.9170   -4.0140 C.2    95  LYS95       0.2593
     60  O         31.7130   87.1290   -2.8400 O.2    95  LYS95      -0.2718
     61  CB        32.3150   85.1300   -5.4250 C.3    95  LYS95       0.0285
     62  CG        32.9540   84.7290   -6.7640 C.3    95  LYS95       0.0035
     63  CD        32.7160   83.2450   -7.0640 C.3    95  LYS95       0.0206
     64  CE        31.2290   82.9080   -6.9640 C.3    95  LYS95       0.1093
     65  NZ        30.3950   83.5050   -8.0710 N.3    95  LYS95      -0.1314
     66  N         30.0840   86.9420   -4.3920 N.am   96  GLY96      -0.1942
     67  CA        29.0280   87.1630   -3.4270 C.3    96  GLY96       0.2014
     68  C         28.3120   88.4900   -3.5430 C.2    96  GLY96       0.2639
     69  O         27.5140   88.8410   -2.6640 O.2    96  GLY96      -0.2714
     70  N         28.5570   89.2240   -4.6250 N.am   97  GLY97      -0.1939
     71  CA        27.8370   90.4690   -4.8330 C.3    97  GLY97       0.2014
     72  C         26.3300   90.2560   -4.9170 C.2    97  GLY97       0.2639
     73  O         25.5690   91.0830   -4.4370 O.2    97  GLY97      -0.2714
     74  N         25.9100   89.1410   -5.5230 N.am   98  GLY98      -0.1939
     75  CA        24.4890   88.8310   -5.7250 C.3    98  GLY98       0.2014
     76  C         23.8800   88.1400   -4.5090 C.2    98  GLY98       0.2639
     77  O         22.6810   87.8230   -4.4990 O.2    98  GLY98      -0.2714
     78  N         24.7060   87.8910   -3.4870 N.am   99  GLY99      -0.1939
     79  CA        24.2530   87.2670   -2.2340 C.3    99  GLY99       0.2014
     80  C         24.3880   85.7470   -2.0970 C.2    99  GLY99       0.2638
     81  O         23.9610   85.1850   -1.0890 O.2    99  GLY99      -0.2714
     82  N         24.9770   85.0700   -3.0860 N.am  100  ALA100     -0.1977
     83  CA        24.9490   83.6110   -3.1010 C.3   100  ALA100      0.1597
     84  C         26.2760   82.9590   -2.7080 C.2   100  ALA100      0.2287
     85  O         26.5240   81.7890   -3.0070 O.2   100  ALA100     -0.2864
     86  CB        24.4870   83.1110   -4.4930 C.3   100  ALA100      0.0319
     87  N         27.6690   79.0130   -3.5010 N.3   104  GLU104     -0.1245
     88  CA        28.6960   79.0380   -4.5510 C.3   104  GLU104      0.1567
     89  C         30.0170   78.4100   -4.1210 C.2   104  GLU104      0.2260
     90  O         30.6840   77.7480   -4.9290 O.2   104  GLU104     -0.2867
     91  CB        28.9510   80.4580   -5.0480 C.3   104  GLU104      0.0388
     92  CG        27.8410   80.9650   -5.9130 C.3   104  GLU104      0.1160
     93  CD        27.9260   82.4320   -6.1380 C.2   104  GLU104      0.3649
     94  OE1       28.4230   83.1730   -5.2520 O.co2 104  GLU104     -0.2457
     95  OE2       27.5060   82.8440   -7.2280 O.co2 104  GLU104     -0.2457
     96  N         36.4720   92.5410  -14.8110 N.3   122  LYS122     -0.1245
     97  CA        36.5740   91.8290  -13.5460 C.3   122  LYS122      0.1561
     98  C         38.0070   91.5350  -13.1610 C.2   122  LYS122      0.2260
     99  O         38.2910   91.3380  -11.9800 O.2   122  LYS122     -0.2867
    100  CB        35.7860   90.5110  -13.5790 C.3   122  LYS122      0.0271
    101  CG        34.3220   90.6310  -13.9110 C.3   122  LYS122      0.0035
    102  CD        33.5790   91.6640  -13.0730 C.3   122  LYS122      0.0206
    103  CE        32.0900   91.6880  -13.4270 C.3   122  LYS122      0.1093
    104  NZ        31.4810   90.3090  -13.2500 N.3   122  LYS122     -0.1314
@<TRIPOS>BOND
     1     1     2    1
     2     3     4    2
     3     3     2    1
     4     2     5    1
     5     5     6    1
     6     6     7    1
     7     7     8    1
     8    29    28    2
     9    32    30    1
    10     8     9    1
    11    23    22    2
    12    36    35    2
    13    28    27    1
    14    28    33   am
    15    27    30    1
    16    27    26    1
    17    30    31    1
    18    35    34    1
    19    22    26   am
    20    22    21    1
    21    33    34    1
    22    34    37    1
    23    24    21    1
    24    24    25    1
    25    96    97    1
    26    21    20    1
    27    37    38    1
    28    37    39    1
    29   101   100    1
    30   101   102    1
    31   100    97    1
    32    19    18    2
    33    97    98    1
    34   103   104    1
    35   103   102    1
    36    20    18   am
    37    98    99    2
    38    18    17    1
    39    41    40    1
    40    41    42    1
    41    17    16    1
    42    47    46    2
    43    44    42   am
    44    44    45    1
    45    42    43    2
    46    16    12   am
    47    13    12    2
    48    12    11    1
    49    48    45    1
    50    46    45    1
    51    46    49   am
    52    11    10    1
    53    11    14    1
    54    52    51    2
    55    51    50    1
    56    49    50    1
    57    50    53    1
    58    14    15    1
    59    65    64    1
    60    55    54   ar
    61    53    54    1
    62    95    93   ar
    63    54    56   ar
    64    63    64    1
    65    63    62    1
    66    62    61    1
    67    93    92    1
    68    93    94   ar
    69    92    91    1
    70    75    74    1
    71    75    76    1
    72    74    72   am
    73    61    58    1
    74    58    57    1
    75    58    59    1
    76    91    88    1
    77    90    89    2
    78    72    71    1
    79    72    73    2
    80    71    70    1
    81    70    68   am
    82    88    89    1
    83    88    87    1
    84    76    77    2
    85    76    78   am
    86    86    83    1
    87    66    59   am
    88    66    67    1
    89    59    60    2
    90    68    67    1
    91    68    69    2
    92    78    79    1
    93    83    82    1
    94    83    84    1
    95    82    80   am
    96    85    84    2
    97    79    80    1
    98    80    81    2
