@<TRIPOS>MOLECULE
tmp/3hhiB00.pdb
 172 170 0 0 0
SMALL
GASTEIGER

@<TRIPOS>ATOM
      1  N         48.7940    9.0250   -0.1220 N.3    39  GLN39      -0.1231
      2  CA        49.1820    8.1050   -1.1930 C.3    39  GLN39       0.1698
      3  C         50.3300    8.5660   -2.0940 C.2    39  GLN39       0.2593
      4  O         50.8940    7.7620   -2.8580 O.2    39  GLN39      -0.2718
      5  CB        47.9900    7.6910   -2.0300 C.3    39  GLN39       0.0381
      6  CG        47.4830    8.7980   -2.9720 C.3    39  GLN39       0.0905
      7  CD        46.2570    8.3680   -3.7790 C.2    39  GLN39       0.2608
      8  OE1       45.1340    8.3010   -3.2470 O.2    39  GLN39      -0.2717
      9  NE2       46.5000    7.9840   -5.0510 N.am   39  GLN39      -0.0878
     10  N         50.7010    9.8310   -1.9500 N.am   40  SER40      -0.1938
     11  CA        51.7450   10.4420   -2.7520 C.3    40  SER40       0.2055
     12  C         51.4080   10.4020   -4.2530 C.2    40  SER40       0.2643
     13  O         50.2380   10.3340   -4.6270 O.2    40  SER40      -0.2714
     14  CB        53.0630    9.8080   -2.4030 C.3    40  SER40       0.2130
     15  OG        54.2050   10.4570   -2.9090 O.3    40  SER40      -0.2179
     16  N         52.4370   10.5190   -5.0760 N.am   41  ALA41      -0.1963
     17  CA        52.3160   10.6810   -6.5090 C.3    41  ALA41       0.1728
     18  C         52.3180    9.3010   -7.1760 C.2    41  ALA41       0.2616
     19  O         53.1960    8.9690   -7.9950 O.2    41  ALA41      -0.2715
     20  CB        53.5010   11.5770   -7.0200 C.3    41  ALA41       0.0334
     21  N         51.2560    8.5440   -6.8900 N.am   42  CYS42      -0.1954
     22  CA        51.0670    7.1710   -7.3130 C.3    42  CYS42       0.1843
     23  C         49.5440    6.9570   -7.3040 C.2    42  CYS42       0.2626
     24  O         48.8470    7.3990   -6.3510 O.2    42  CYS42      -0.2714
     25  CB        51.7910    6.2510   -6.2930 C.3    42  CYS42       0.0997
     26  SG        51.5030    4.4680   -6.4120 S.3    42  CYS42      -0.0797
     27  N         49.0050    6.2670   -8.2950 N.am   43  GLY43      -0.1954
     28  CA        47.6000    5.9250   -8.3240 C.3    43  GLY43       0.1869
     29  C         47.2410    4.6720   -7.5290 C.2    43  GLY43       0.2309
     30  O         46.5670    3.7370   -8.0560 O.2    43  GLY43      -0.2863
     31  N         45.3040    4.5020   -4.6930 N.3    45  CYS45      -0.1221
     32  CA        44.1610    4.7070   -3.7470 C.3    45  CYS45       0.1808
     33  C         43.6110    3.3590   -3.3140 C.2    45  CYS45       0.2601
     34  O         43.2580    3.2030   -2.1520 O.2    45  CYS45      -0.2717
     35  CB        43.0710    5.5550   -4.4310 C.3    45  CYS45       0.0970
     36  SG        42.2850    4.7770   -5.8310 S.3    45  CYS45      -0.0800
     37  N         43.5090    2.4120   -4.2470 N.am   46  TRP46      -0.1976
     38  CA        42.9500    1.1020   -3.9610 C.3    46  TRP46       0.1640
     39  C         43.6450    0.3700   -2.8140 C.2    46  TRP46       0.2290
     40  O         42.9900   -0.3250   -2.0220 O.2    46  TRP46      -0.2864
     41  CB        42.9980    0.2000   -5.2020 C.3    46  TRP46       0.0576
     42  CG        44.3670   -0.1150   -5.7150 C.ar   46  TRP46       0.0006
     43  CD1       45.1300    0.6600   -6.5700 C.ar   46  TRP46       0.0946
     44  CD2       45.1590   -1.2680   -5.3880 C.ar   46  TRP46       0.0152
     45  NE1       46.3460    0.0320   -6.7840 N.ar   46  TRP46      -0.2442
     46  CE2       46.3850   -1.1240   -6.0400 C.ar   46  TRP46       0.0810
     47  CE3       44.9490   -2.3880   -4.5440 C.ar   46  TRP46       0.0012
     48  CZ2       47.3950   -2.0920   -5.9400 C.ar   46  TRP46       0.0191
     49  CZ3       45.9460   -3.3010   -4.3910 C.ar   46  TRP46       0.0001
     50  CH2       47.1500   -3.1680   -5.1260 C.ar   46  TRP46       0.0015
     51  N         49.1170    2.4840  -11.3360 N.3    86  ASN86      -0.1225
     52  CA        48.1710    2.9360  -12.3560 C.3    86  ASN86       0.1785
     53  C         46.7550    2.4300  -12.0560 C.2    86  ASN86       0.2598
     54  O         45.9350    2.3640  -12.9690 O.2    86  ASN86      -0.2718
     55  CB        48.5860    2.4560  -13.7350 C.3    86  ASN86       0.1169
     56  CG        49.8820    3.0750  -14.1810 C.2    86  ASN86       0.2627
     57  OD1       50.0310    4.2740  -14.1310 O.2    86  ASN86      -0.2716
     58  ND2       50.7950    2.2560  -14.6580 N.am   86  ASN86      -0.0877
     59  N         46.5040    2.0620  -10.7950 N.am   87  GLY87      -0.1942
     60  CA        45.1450    1.7580  -10.3700 C.3    87  GLY87       0.2014
     61  C         45.0030    0.2600  -10.1320 C.2    87  GLY87       0.2639
     62  O         45.7950   -0.6010  -10.6250 O.2    87  GLY87      -0.2714
     63  N         43.9740   -0.0780   -9.3610 N.am   88  GLY88      -0.1939
     64  CA        43.7480   -1.4530   -8.9880 C.3    88  GLY88       0.2014
     65  C         42.3770   -1.6840   -8.3850 C.2    88  GLY88       0.2639
     66  O         41.4570   -0.8480   -8.5300 O.2    88  GLY88      -0.2714
     67  N         42.2530   -2.8210   -7.7110 N.am   89  ASP89      -0.1957
     68  CA        40.9340   -3.4170   -7.4290 C.3    89  ASP89       0.1825
     69  C         40.7520   -3.6800   -5.9370 C.2    89  ASP89       0.2464
     70  O         41.3800   -4.5750   -5.3410 O.2    89  ASP89      -0.2730
     71  CB        40.6580   -4.7030   -8.1910 C.3    89  ASP89       0.1450
     72  CG        39.2500   -5.1980   -7.8910 C.2    89  ASP89       0.3671
     73  OD1       38.2560   -4.4920   -8.3080 O.co2  89  ASP89      -0.2456
     74  OD2       39.0470   -6.1460   -7.1480 O.co2  89  ASP89      -0.2456
     75  N         39.9280   -2.8630   -5.2810 N.am   90  PRO90      -0.2727
     76  CA        39.6790   -3.0830   -3.8620 C.3    90  PRO90       0.1402
     77  C         39.2890   -4.5030   -3.4540 C.2    90  PRO90       0.2269
     78  O         39.8280   -5.0070   -2.4680 O.2    90  PRO90      -0.2865
     79  CB        38.5490   -2.0870   -3.5640 C.3    90  PRO90       0.0296
     80  CG        38.8210   -0.9400   -4.5730 C.3    90  PRO90       0.0237
     81  CD        39.2690   -1.6420   -5.8080 C.3    90  PRO90       0.0939
     82  N         48.6010   17.5290   -3.1200 N.3   117  HIS117     -0.1226
     83  CA        47.7410   16.9750   -4.1430 C.3   117  HIS117      0.1752
     84  C         47.2060   17.8550   -5.2920 C.2   117  HIS117      0.2596
     85  O         47.6000   17.6450   -6.4480 O.2   117  HIS117     -0.2718
     86  CB        46.8450   15.8790   -3.5780 C.3   117  HIS117      0.0759
     87  CG        47.6160   14.7060   -3.0900 C.ar  117  HIS117      0.0818
     88  ND1       47.7520   13.5500   -3.8260 N.ar  117  HIS117     -0.2268
     89  CD2       48.3560   14.5370   -1.9690 C.ar  117  HIS117      0.1154
     90  CE1       48.5190   12.7000   -3.1470 C.ar  117  HIS117      0.1986
     91  NE2       48.9050   13.2830   -2.0260 N.ar  117  HIS117     -0.2212
     92  N         46.3810   18.8220   -4.9990 N.am  118  HIS118     -0.1975
     93  CA        45.6950   19.5870   -6.0320 C.3   118  HIS118      0.1656
     94  C         45.6360   20.9510   -5.3020 C.2   118  HIS118      0.2291
     95  O         44.6440   21.6440   -5.3540 O.2   118  HIS118     -0.2864
     96  CB        44.3230   18.8980   -6.1750 C.3   118  HIS118      0.0771
     97  CG        44.3880   17.5970   -6.9400 C.ar  118  HIS118      0.0820
     98  ND1       44.6610   17.5560   -8.2940 N.ar  118  HIS118     -0.2267
     99  CD2       44.2200   16.3030   -6.5540 C.ar  118  HIS118      0.1154
    100  CE1       44.6690   16.2920   -8.7030 C.ar  118  HIS118      0.1986
    101  NE2       44.4060   15.5130   -7.6690 N.ar  118  HIS118     -0.2212
    102  N         52.6900   17.2050   -5.8310 N.3   128  CYS128     -0.1235
    103  CA        52.7350   15.8720   -6.3830 C.3   128  CYS128      0.1677
    104  C         53.0870   15.8120   -7.8680 C.2   128  CYS128      0.2270
    105  O         53.7360   14.8480   -8.3060 O.2   128  CYS128     -0.2867
    106  CB        51.4380   15.1330   -6.1490 C.3   128  CYS128      0.0956
    107  SG        51.0710   14.8300   -4.3740 S.3   128  CYS128     -0.0801
    108  N         34.2180    2.9290   -3.2610 N.3   179  ALA179     -0.1245
    109  CA        34.7630    3.5680   -4.4270 C.3   179  ALA179      0.1562
    110  C         33.6380    4.4340   -5.0650 C.2   179  ALA179      0.2260
    111  O         32.4570    4.1020   -4.9940 O.2   179  ALA179     -0.2867
    112  CB        35.2660    2.4990   -5.4060 C.3   179  ALA179      0.0290
    113  N         35.1300   10.0560   -9.6570 N.3   182  VAL182     -0.1245
    114  CA        35.6330   11.3780   -9.4290 C.3   182  VAL182      0.1561
    115  C         35.4530   12.1850  -10.7110 C.2   182  VAL182      0.2260
    116  O         35.9380   11.8100  -11.7710 O.2   182  VAL182     -0.2867
    117  CB        37.1030   11.4330   -9.0000 C.3   182  VAL182      0.0252
    118  CG1       37.6100   12.8690   -8.9630 C.3   182  VAL182      0.0019
    119  CG2       37.2590   10.8180   -7.6720 C.3   182  VAL182      0.0019
    120  N         37.6940   17.9260   -7.0340 N.3   187  ILE187     -0.1245
    121  CA        39.1090   18.1980   -6.7310 C.3   187  ILE187      0.1561
    122  C         39.3120   19.3890   -5.7630 C.2   187  ILE187      0.2260
    123  O         40.1610   19.3180   -4.8680 O.2   187  ILE187     -0.2867
    124  CB        39.8970   18.4630   -8.0400 C.3   187  ILE187      0.0252
    125  CG1       39.8910   17.2260   -8.9720 C.3   187  ILE187      0.0019
    126  CG2       41.3370   18.9890   -7.7300 C.3   187  ILE187      0.0019
    127  CD1       40.3970   15.9300   -8.4110 C.3   187  ILE187      0.0001
    128  N         37.1770   11.9290  -14.1950 N.3   202  LEU202     -0.1231
    129  CA        38.6400   11.7880  -14.1000 C.3   202  LEU202      0.1693
    130  C         39.0740   10.3380  -13.8310 C.2   202  LEU202      0.2593
    131  O         40.2530   10.0040  -14.0810 O.2   202  LEU202     -0.2718
    132  CB        39.2170   12.6710  -12.9820 C.3   202  LEU202      0.0284
    133  CG        39.1100   14.2060  -13.1650 C.3   202  LEU202      0.0019
    134  CD1       39.5310   14.9430  -11.8980 C.3   202  LEU202      0.0001
    135  CD2       39.8990   14.6880  -14.3750 C.3   202  LEU202      0.0001
    136  N         38.1820    9.5090  -13.2410 N.am  203  GLY203     -0.1942
    137  CA        38.4950    8.0990  -12.9630 C.3   203  GLY203      0.2014
    138  C         37.7800    7.6630  -11.7010 C.2   203  GLY203      0.2639
    139  O         37.1650    8.4640  -11.0220 O.2   203  GLY203     -0.2714
    140  N         37.8820    6.3770  -11.3900 N.am  204  GLY204     -0.1939
    141  CA        37.3430    5.8820  -10.1350 C.3   204  GLY204      0.2014
    142  C         38.3370    6.0590   -9.0130 C.2   204  GLY204      0.2639
    143  O         39.5680    6.0730   -9.2230 O.2   204  GLY204     -0.2714
    144  N         37.8050    6.2710   -7.8200 N.am  205  HIS205     -0.1959
    145  CA        38.6550    6.5630   -6.6280 C.3   205  HIS205      0.1787
    146  C         38.1480    5.7440   -5.4540 C.2   205  HIS205      0.2620
    147  O         36.9660    5.7620   -5.1590 O.2   205  HIS205     -0.2715
    148  CB        38.5870    8.0640   -6.3350 C.3   205  HIS205      0.0785
    149  CG        39.6310    8.5510   -5.3930 C.ar  205  HIS205      0.0821
    150  ND1       40.9710    8.2310   -5.5080 N.ar  205  HIS205     -0.2267
    151  CD2       39.5360    9.3640   -4.3150 C.ar  205  HIS205      0.1154
    152  CE1       41.6450    8.7920   -4.5150 C.ar  205  HIS205      0.1986
    153  NE2       40.7960    9.5040   -3.7860 N.ar  205  HIS205     -0.2212
    154  N         39.0800    5.0360   -4.8210 N.am  206  ALA206     -0.1977
    155  CA        38.8020    4.2180   -3.6620 C.3   206  ALA206      0.1597
    156  C         39.2410    4.9700   -2.4060 C.2   206  ALA206      0.2287
    157  O         40.3330    5.5590   -2.3590 O.2   206  ALA206     -0.2864
    158  CB        39.5730    2.9100   -3.7460 C.3   206  ALA206      0.0319
    159  N         44.8070   12.0730    0.4980 N.3   227  TRP227     -0.1241
    160  CA        45.5140   13.2120   -0.1250 C.3   227  TRP227      0.1605
    161  C         46.1260   14.0960    0.9820 C.2   227  TRP227      0.2264
    162  O         46.4210   15.3040    0.7760 O.2   227  TRP227     -0.2867
    163  CB        44.6490   13.9970   -1.0900 C.3   227  TRP227      0.0550
    164  CG        44.2480   13.2660   -2.2990 C.ar  227  TRP227      0.0003
    165  CD1       44.6760   12.0060   -2.6750 C.ar  227  TRP227      0.0946
    166  CD2       43.2800   13.6670   -3.2680 C.ar  227  TRP227      0.0152
    167  NE1       44.0660   11.6260   -3.8440 N.ar  227  TRP227     -0.2442
    168  CE2       43.2180   12.6440   -4.2360 C.ar  227  TRP227      0.0810
    169  CE3       42.4770   14.8150   -3.4350 C.ar  227  TRP227      0.0012
    170  CZ2       42.3500   12.6960   -5.3460 C.ar  227  TRP227      0.0191
    171  CZ3       41.6400   14.8820   -4.5690 C.ar  227  TRP227      0.0001
    172  CH2       41.5690   13.8380   -5.4910 C.ar  227  TRP227      0.0015
@<TRIPOS>BOND
     1    58    56   am
     2   135   133    1
     3   128   129    1
     4    56    57    2
     5    56    55    1
     6   129   130    1
     7   129   132    1
     8   131   130    2
     9   130   136   am
    10    55    52    1
    11   136   137    1
    12   133   132    1
    13   133   134    1
    14    54    53    2
    15   137   138    1
    16    52    53    1
    17    52    51    1
    18    53    59   am
    19   116   115    2
    20   138   140   am
    21   138   139    2
    22   140   141    1
    23    59    60    1
    24   115   114    1
    25    62    61    2
    26    60    61    1
    27   141   142    1
    28    61    63   am
    29   113   114    1
    30   114   117    1
    31    63    64    1
    32   143   142    2
    33   142   144   am
    34   117   118    1
    35   117   119    1
    36    64    65    1
    37   125   127    1
    38   125   124    1
    39   100    98   ar
    40   100   101   ar
    41    66    65    2
    42    65    67   am
    43    28    27    1
    44    28    29    1
    45    73    72   ar
    46   105   104    2
    47    27    23   am
    48    98    97   ar
    49    71    72    1
    50    71    68    1
    51    30    29    2
    52   124   126    1
    53   124   121    1
    54    19    18    2
    55    72    74   ar
    56   104   103    1
    57   144   145    1
    58    67    68    1
    59   101    99   ar
    60    68    69    1
    61    22    23    1
    62    22    21    1
    63    22    25    1
    64    23    24    2
    65    18    21   am
    66    18    17    1
    67   120   121    1
    68    20    17    1
    69    97    99   ar
    70    97    96    1
    71    45    43   ar
    72    45    46   ar
    73   121   122    1
    74   145   148    1
    75   145   146    1
    76    43    42   ar
    77    17    16    1
    78    85    84    2
    79    26    25    1
    80   103   106    1
    81   103   102    1
    82   148   149    1
    83    96    93    1
    84   106   107    1
    85    46    48   ar
    86    46    44   ar
    87    93    94    1
    88    93    92    1
    89    48    50   ar
    90    69    70    2
    91    69    75   am
    92    36    35    1
    93    81    75    1
    94    81    80    1
    95   122   123    2
    96    42    44   ar
    97    42    41    1
    98   150   149   ar
    99   150   152   ar
   100   172   170   ar
   101   172   171   ar
   102   146   147    2
   103   146   154   am
   104   112   109    1
   105   149   151   ar
   106    44    47   ar
   107    95    94    2
   108   170   168   ar
   109    84    92   am
   110    84    83    1
   111    75    76    1
   112    41    38    1
   113    50    49   ar
   114    16    12   am
   115   110   111    2
   116   110   109    1
   117     9     7   am
   118   154   155    1
   119    31    32    1
   120    13    12    2
   121    80    79    1
   122   171   169   ar
   123    47    49   ar
   124   152   153   ar
   125    35    32    1
   126   109   108    1
   127   151   153   ar
   128    12    11    1
   129    37    38    1
   130    37    33   am
   131   168   167   ar
   132   168   166   ar
   133    83    86    1
   134    83    82    1
   135    38    39    1
   136    76    79    1
   137    76    77    1
   138   167   165   ar
   139    88    90   ar
   140    88    87   ar
   141     7     8    2
   142     7     6    1
   143    32    33    1
   144   158   155    1
   145   155   156    1
   146    86    87    1
   147    77    78    2
   148   169   166   ar
   149    33    34    2
   150   166   164   ar
   151    90    91   ar
   152    87    89   ar
   153     6     5    1
   154    15    14    1
   155     4     3    2
   156    39    40    2
   157    11    14    1
   158    11    10    1
   159   165   164   ar
   160   156   157    2
   161   164   163    1
   162     3    10   am
   163     3     2    1
   164     5     2    1
   165    91    89   ar
   166     2     1    1
   167   163   160    1
   168   160   159    1
   169   160   161    1
   170   162   161    2
