@<TRIPOS>MOLECULE
tmp/3hhiA01.pdb
 88 81 0 0 0
SMALL
GASTEIGER

@<TRIPOS>ATOM
      1  N         -5.4350   -6.8770   33.9900 N.3    73  ASP73      -0.1239
      2  CA        -5.4000   -8.3430   33.8690 C.3    73  ASP73       0.1674
      3  C         -4.2200   -8.9050   34.6560 C.2    73  ASP73       0.2266
      4  O         -4.4000   -9.7150   35.5750 O.2    73  ASP73      -0.2867
      5  CB        -5.3340   -8.7150   32.3900 C.3    73  ASP73       0.1410
      6  CG        -5.1610  -10.2090   32.1000 C.2    73  ASP73       0.3668
      7  OD1       -4.9310  -10.9450   33.0710 O.co2  73  ASP73      -0.2456
      8  OD2       -5.1680  -10.5750   30.8680 O.co2  73  ASP73      -0.2456
      9  N         -5.0370  -11.0750   37.8950 N.3    77  CYS77      -0.1235
     10  CA        -5.0330  -12.4900   37.4610 C.3    77  CYS77       0.1677
     11  C         -3.7620  -13.2570   37.8250 C.2    77  CYS77       0.2270
     12  O         -3.8080  -14.4890   37.9630 O.2    77  CYS77      -0.2867
     13  CB        -5.4350  -12.6190   35.9910 C.3    77  CYS77       0.0956
     14  SG        -6.9980  -12.0020   35.5280 S.3    77  CYS77      -0.0801
     15  N          4.5790  -14.7140   33.5450 N.3    96  TYR96      -0.1241
     16  CA         3.1280  -14.9150   33.3400 C.3    96  TYR96       0.1605
     17  C          2.7090  -14.5580   31.9030 C.2    96  TYR96       0.2264
     18  O          1.8890  -15.1970   31.2810 O.2    96  TYR96      -0.2867
     19  CB         2.3100  -14.0470   34.3190 C.3    96  TYR96       0.0534
     20  CG         0.8100  -14.2780   34.3250 C.ar   96  TYR96      -0.0201
     21  CD1        0.2140  -15.2680   35.0910 C.ar   96  TYR96      -0.0009
     22  CD2       -0.0350  -13.5150   33.5290 C.ar   96  TYR96      -0.0009
     23  CE1       -1.1840  -15.4470   35.0900 C.ar   96  TYR96       0.0417
     24  CE2       -1.4070  -13.7160   33.5030 C.ar   96  TYR96       0.0417
     25  CZ        -1.9820  -14.6460   34.3500 C.ar   96  TYR96       0.1957
     26  OH        -3.3140  -14.9060   34.3430 O.3    96  TYR96      -0.2866
     27  N          1.0580  -17.7570   30.2560 N.3   100  THR100     -0.1203
     28  CA        -0.3660  -17.6220   30.3970 C.3   100  THR100      0.1994
     29  C         -0.9840  -16.5870   29.4740 C.2   100  THR100      0.2618
     30  O         -2.0270  -16.8290   28.8710 O.2   100  THR100     -0.2717
     31  CB        -0.6940  -17.3540   31.8830 C.3   100  THR100      0.1784
     32  OG1       -0.0760  -18.3810   32.6930 O.3   100  THR100     -0.2211
     33  CG2       -2.2090  -17.3960   32.1680 C.3   100  THR100      0.0376
     34  N         -0.3450  -15.4400   29.4100 N.am  101  GLY101     -0.1956
     35  CA        -0.7180  -14.3580   28.4740 C.3   101  GLY101      0.1869
     36  C         -1.6190  -13.3170   29.1020 C.2   101  GLY101      0.2309
     37  O         -2.2050  -13.5340   30.1690 O.2   101  GLY101     -0.2863
     38  N         -4.4710   -9.9490   28.1030 N.3   103  VAL103     -0.1245
     39  CA        -5.3390   -9.2520   27.1500 C.3   103  VAL103      0.1561
     40  C         -4.8490   -7.8120   27.0080 C.2   103  VAL103      0.2260
     41  O         -3.9880   -7.3730   27.7530 O.2   103  VAL103     -0.2867
     42  CB        -6.8430   -9.3140   27.5370 C.3   103  VAL103      0.0252
     43  CG1       -7.2620  -10.8010   27.6850 C.3   103  VAL103      0.0019
     44  CG2       -7.1880   -8.5010   28.8090 C.3   103  VAL103      0.0019
     45  N         -9.5520   -5.1750   28.6440 N.3   108  GLN108     -0.1245
     46  CA        -9.6640   -4.9010   30.0890 C.3   108  GLN108      0.1566
     47  C         -8.9570   -3.5840   30.4560 C.2   108  GLN108      0.2260
     48  O         -7.7810   -3.5780   30.8140 O.2   108  GLN108     -0.2867
     49  CB        -9.0750   -6.0550   30.8830 C.3   108  GLN108      0.0367
     50  CG       -10.0340   -7.2260   30.8910 C.3   108  GLN108      0.0905
     51  CD        -9.5670   -8.4140   31.7430 C.2   108  GLN108      0.2608
     52  OE1       -8.7320   -8.2260   32.6290 O.2   108  GLN108     -0.2717
     53  NE2      -10.1670   -9.6070   31.5400 N.am  108  GLN108     -0.0878
     54  N        -11.0160  -11.2750   35.8990 N.3   139  ASP139     -0.1225
     55  CA       -12.0550  -11.5920   34.8920 C.3   139  ASP139      0.1805
     56  C        -11.3670  -12.2130   33.6840 C.2   139  ASP139      0.2597
     57  O        -10.2750  -11.7950   33.3040 O.2   139  ASP139     -0.2718
     58  CB       -12.7920  -10.3240   34.4550 C.3   139  ASP139      0.1424
     59  CG       -13.3990   -9.5370   35.6190 C.2   139  ASP139      0.3668
     60  OD1      -14.1440  -10.1550   36.3900 O.co2 139  ASP139     -0.2456
     61  OD2      -13.1310   -8.2820   35.7490 O.co2 139  ASP139     -0.2456
     62  N        -12.0360  -13.1410   33.0200 N.am  140  TYR140     -0.1976
     63  CA       -11.4450  -13.8820   31.9140 C.3   140  TYR140      0.1639
     64  C        -12.0890  -13.5360   30.5580 C.2   140  TYR140      0.2290
     65  O        -11.7830  -14.1530   29.5610 O.2   140  TYR140     -0.2864
     66  CB       -11.6350  -15.3490   32.1820 C.3   140  TYR140      0.0560
     67  CG       -10.9160  -15.7560   33.4140 C.ar  140  TYR140     -0.0198
     68  CD1       -9.5790  -16.1230   33.3830 C.ar  140  TYR140     -0.0009
     69  CD2      -11.5640  -15.7030   34.6460 C.ar  140  TYR140     -0.0009
     70  CE1       -8.8850  -16.4480   34.5900 C.ar  140  TYR140      0.0417
     71  CE2      -10.9010  -16.0600   35.8210 C.ar  140  TYR140      0.0417
     72  CZ        -9.5780  -16.4420   35.7670 C.ar  140  TYR140      0.1957
     73  OH        -8.9370  -16.7670   36.9590 O.3   140  TYR140     -0.2866
     74  N        -11.9910  -11.7230   23.2870 N.3   149  VAL149     -0.1245
     75  CA       -10.6990  -11.7930   23.9480 C.3   149  VAL149      0.1561
     76  C         -9.6190  -12.1000   22.9360 C.2   149  VAL149      0.2260
     77  O         -9.7330  -13.0280   22.1160 O.2   149  VAL149     -0.2867
     78  CB       -10.6910  -12.8900   25.0500 C.3   149  VAL149      0.0252
     79  CG1       -9.2780  -13.1840   25.5620 C.3   149  VAL149      0.0019
     80  CG2      -11.6260  -12.4730   26.2050 C.3   149  VAL149      0.0019
     81  N         -5.7190  -12.8750   23.4910 N.3   151  ASN151     -0.1240
     82  CA        -4.7000  -13.1120   24.5420 C.3   151  ASN151      0.1653
     83  C         -3.3310  -13.0350   23.8820 C.2   151  ASN151      0.2266
     84  O         -3.0480  -13.7690   22.9190 O.2   151  ASN151     -0.2867
     85  CB        -4.9680  -14.4780   25.1880 C.3   151  ASN151      0.1155
     86  CG        -4.2650  -14.6880   26.5280 C.2   151  ASN151      0.2627
     87  OD1       -4.2640  -13.7900   27.3670 O.2   151  ASN151     -0.2716
     88  ND2       -3.7120  -15.9110   26.7490 N.am  151  ASN151     -0.0877
@<TRIPOS>BOND
     1    77    76    2
     2    84    83    2
     3    76    75    1
     4    74    75    1
     5    81    82    1
     6    83    82    1
     7    75    78    1
     8    82    85    1
     9    78    79    1
    10    78    80    1
    11    85    86    1
    12    86    88   am
    13    86    87    2
    14    40    39    1
    15    40    41    2
    16    39    42    1
    17    39    38    1
    18    42    43    1
    19    42    44    1
    20    35    36    1
    21    35    34    1
    22    45    46    1
    23    30    29    2
    24    36    37    2
    25    34    29   am
    26    29    28    1
    27    65    64    2
    28    46    47    1
    29    46    49    1
    30    27    28    1
    31    28    31    1
    32    47    48    2
    33    64    63    1
    34     8     6   ar
    35    49    50    1
    36    50    51    1
    37    18    17    2
    38    53    51   am
    39    51    52    2
    40    31    33    1
    41    31    32    1
    42    17    16    1
    43    63    66    1
    44    63    62    1
    45     6     5    1
    46     6     7   ar
    47    66    67    1
    48     5     2    1
    49    62    56   am
    50    57    56    2
    51    16    15    1
    52    16    19    1
    53    68    67   ar
    54    68    70   ar
    55    67    69   ar
    56    24    22   ar
    57    24    25   ar
    58    22    20   ar
    59    56    55    1
    60     2     1    1
    61     2     3    1
    62    19    20    1
    63    20    21   ar
    64    26    25    1
    65    25    23   ar
    66    58    55    1
    67    58    59    1
    68    70    72   ar
    69    69    71   ar
    70     3     4    2
    71    55    54    1
    72    23    21   ar
    73    14    13    1
    74    59    61   ar
    75    59    60   ar
    76    72    71   ar
    77    72    73    1
    78    13    10    1
    79    10    11    1
    80    10     9    1
    81    11    12    2
