@<TRIPOS>MOLECULE
tmp/3hhkA00.pdb
 187 177 0 0 0
SMALL
GASTEIGER

@<TRIPOS>ATOM
      1  N         87.7090   48.4590   48.9200 N.3   193  PHE193     -0.1241
      2  CA        88.4840   49.5170   49.5740 C.3   193  PHE193      0.1605
      3  C         87.6470   50.5730   50.3150 C.2   193  PHE193      0.2264
      4  O         88.1980   51.4270   51.0140 O.2   193  PHE193     -0.2867
      5  CB        89.4600   50.1670   48.5870 C.3   193  PHE193      0.0534
      6  CG        90.5550   49.2440   48.1220 C.ar  193  PHE193     -0.0203
      7  CD1       91.4790   48.7230   49.0280 C.ar  193  PHE193     -0.0042
      8  CD2       90.6660   48.8990   46.7770 C.ar  193  PHE193     -0.0042
      9  CE1       92.5000   47.8690   48.6020 C.ar  193  PHE193     -0.0003
     10  CE2       91.6830   48.0480   46.3410 C.ar  193  PHE193     -0.0003
     11  CZ        92.6000   47.5340   47.2560 C.ar  193  PHE193     -0.0000
     12  N         88.4320   47.4350   58.3740 N.3   197  PRO197     -0.2116
     13  CA        88.4560   46.0060   58.7130 C.3   197  PRO197      0.1372
     14  C         87.1280   45.4810   59.2740 C.2   197  PRO197      0.2244
     15  O         86.6520   44.4320   58.8350 O.2   197  PRO197     -0.2868
     16  CB        89.5550   45.9150   59.7750 C.3   197  PRO197      0.0268
     17  CG        90.4500   47.0550   59.4910 C.3   197  PRO197      0.0207
     18  CD        89.5770   48.1580   58.9640 C.3   197  PRO197      0.0892
     19  N         84.4520   45.3560   56.6080 N.3   200  ARG200     -0.1245
     20  CA        84.6920   44.2120   55.7260 C.3   200  ARG200      0.1563
     21  C         84.1470   42.9180   56.3300 C.2   200  ARG200      0.2260
     22  O         83.5150   42.1230   55.6320 O.2   200  ARG200     -0.2867
     23  CB        86.1810   44.0560   55.4070 C.3   200  ARG200      0.0307
     24  CG        86.4560   43.0010   54.3420 C.3   200  ARG200      0.0489
     25  CD        87.9350   42.7130   54.1820 C.3   200  ARG200      0.2205
     26  NE        88.1540   41.6260   53.2280 N.pl3 200  ARG200     -0.0865
     27  CZ        88.3050   41.7860   51.9140 C.cat 200  ARG200      0.5346
     28  NH1       88.2660   42.9980   51.3700 N.pl3 200  ARG200      0.1354
     29  NH2       88.4860   40.7260   51.1380 N.pl3 200  ARG200      0.1354
     30  N         98.9230   41.2630   37.1090 N.3   225  ASP225     -0.1239
     31  CA        99.4170   42.4040   36.3350 C.3   225  ASP225      0.1674
     32  C         99.8300   41.9920   34.9210 C.2   225  ASP225      0.2266
     33  O         99.5620   42.7110   33.9590 O.2   225  ASP225     -0.2867
     34  CB       100.5700   43.1110   37.0560 C.3   225  ASP225      0.1410
     35  CG       100.0920   44.0590   38.1520 C.2   225  ASP225      0.3668
     36  OD1       98.8680   44.1550   38.3970 O.co2 225  ASP225     -0.2456
     37  OD2      100.9550   44.7170   38.7730 O.co2 225  ASP225     -0.2456
     38  N         96.7110   51.8940   38.8550 N.3   287  THR287     -0.1203
     39  CA        96.9720   50.4650   39.0740 C.3   287  THR287      0.1994
     40  C         95.8910   49.7810   39.9190 C.2   287  THR287      0.2618
     41  O         95.3490   48.7500   39.5180 O.2   287  THR287     -0.2717
     42  CB        98.3670   50.2100   39.6920 C.3   287  THR287      0.1784
     43  OG1       99.3770   50.7500   38.8330 O.3   287  THR287     -0.2211
     44  CG2       98.6200   48.7140   39.8580 C.3   287  THR287      0.0376
     45  N         95.5800   50.3620   41.0760 N.am  288  SER288     -0.1951
     46  CA        94.5960   49.7760   41.9840 C.3   288  SER288      0.1924
     47  C         93.1920   49.8110   41.3900 C.2   288  SER288      0.2314
     48  O         92.5020   48.7910   41.3680 O.2   288  SER288     -0.2863
     49  CB        94.6110   50.4790   43.3420 C.3   288  SER288      0.2116
     50  OG        93.7170   49.8410   44.2390 O.3   288  SER288     -0.2180
     51  N         92.9860   47.5730   38.1430 N.3   291  ASN291     -0.1240
     52  CA        92.9450   46.1520   38.4860 C.3   291  ASN291      0.1653
     53  C         91.6170   45.7180   39.1020 C.2   291  ASN291      0.2266
     54  O         91.0960   44.6600   38.7430 O.2   291  ASN291     -0.2867
     55  CB        94.1260   45.7540   39.3770 C.3   291  ASN291      0.1155
     56  CG        95.4170   45.5640   38.5910 C.2   291  ASN291      0.2627
     57  OD1       95.4060   45.4230   37.3650 O.2   291  ASN291     -0.2716
     58  ND2       96.5400   45.5520   39.3000 N.am  291  ASN291     -0.0877
     59  N         89.2370   43.5790   45.7190 N.3   316  ASN316     -0.1225
     60  CA        90.2940   44.5420   46.0190 C.3   316  ASN316      0.1785
     61  C         91.4520   44.2860   45.0670 C.2   316  ASN316      0.2598
     62  O         92.2060   43.3350   45.2590 O.2   316  ASN316     -0.2718
     63  CB        90.8110   44.3760   47.4520 C.3   316  ASN316      0.1169
     64  CG        89.7470   44.6090   48.5060 C.2   316  ASN316      0.2627
     65  OD1       88.7790   43.8550   48.6120 O.2   316  ASN316     -0.2716
     66  ND2       89.9530   45.6310   49.3300 N.am  316  ASN316     -0.0877
     67  N         91.5960   45.1210   44.0430 N.am  317  GLY317     -0.1942
     68  CA        92.6240   44.9010   43.0250 C.3   317  GLY317      0.2014
     69  C         92.4280   43.5470   42.3770 C.2   317  GLY317      0.2639
     70  O         91.3430   43.2380   41.8750 O.2   317  GLY317     -0.2714
     71  N         93.4780   42.7310   42.4140 N.am  318  ASP318     -0.1957
     72  CA        93.4390   41.3730   41.8810 C.3   318  ASP318      0.1840
     73  C         92.8180   40.3690   42.8540 C.2   318  ASP318      0.2622
     74  O         92.6480   39.1950   42.5180 O.2   318  ASP318     -0.2715
     75  CB        94.8530   40.9180   41.5060 C.3   318  ASP318      0.1450
     76  CG        95.7570   40.7320   42.7140 C.2   318  ASP318      0.3671
     77  OD1       95.6120   41.4830   43.7010 O.co2 318  ASP318     -0.2456
     78  OD2       96.6240   39.8320   42.6680 O.co2 318  ASP318     -0.2456
     79  N         92.4900   40.8330   44.0570 N.am  319  ASP319     -0.1971
     80  CA        92.0110   39.9460   45.1110 C.3   319  ASP319      0.1709
     81  C         90.4970   39.7940   45.0510 C.2   319  ASP319      0.2293
     82  O         89.7530   40.7580   45.2510 O.2   319  ASP319     -0.2864
     83  CB        92.4610   40.4500   46.4820 C.3   319  ASP319      0.1436
     84  CG        92.4020   39.3740   47.5440 C.2   319  ASP319      0.3671
     85  OD1       91.2840   38.9500   47.9020 O.co2 319  ASP319     -0.2456
     86  OD2       93.4780   38.9610   48.0260 O.co2 319  ASP319     -0.2456
     87  N         92.1260   38.9760   50.6800 N.3   366  CYS366     -0.1221
     88  CA        93.0500   40.0340   51.1020 C.3   366  CYS366      0.1808
     89  C         93.9560   39.5220   52.2210 C.2   366  CYS366      0.2602
     90  O         94.1510   40.1940   53.2400 O.2   366  CYS366     -0.2717
     91  CB        92.3010   41.2970   51.5300 C.3   366  CYS366      0.0970
     92  SG        91.6730   42.2680   50.1540 S.3   366  CYS366     -0.0800
     93  N         94.4780   38.3110   52.0180 N.am  367  SER367     -0.1938
     94  CA        95.3810   37.6400   52.9610 C.3   367  SER367      0.2055
     95  C         94.7840   37.4590   54.3570 C.2   367  SER367      0.2643
     96  O         95.5090   37.1850   55.3150 O.2   367  SER367     -0.2714
     97  CB        96.7270   38.3730   53.0350 C.3   367  SER367      0.2130
     98  OG        97.3020   38.4950   51.7460 O.3   367  SER367     -0.2179
     99  N         93.4620   37.5880   54.4560 N.am  368  SER368     -0.1949
    100  CA        92.7760   37.6350   55.7470 C.3   368  SER368      0.1924
    101  C         91.5470   36.7330   55.7900 C.2   368  SER368      0.2314
    102  O         91.0030   36.3670   54.7510 O.2   368  SER368     -0.2863
    103  CB        92.3600   39.0750   56.0560 C.3   368  SER368      0.2116
    104  OG        93.4680   39.9560   55.9870 O.3   368  SER368     -0.2180
    105  N         88.4770   40.3910   61.8880 N.3   384  LEU384     -0.1245
    106  CA        89.3610   40.0020   60.8010 C.3   384  LEU384      0.1561
    107  C         90.7460   39.6510   61.3170 C.2   384  LEU384      0.2260
    108  O         91.3480   40.4030   62.0880 O.2   384  LEU384     -0.2867
    109  CB        89.4590   41.1210   59.7610 C.3   384  LEU384      0.0270
    110  CG        89.8850   40.6990   58.3550 C.3   384  LEU384      0.0019
    111  CD1       88.7820   39.9020   57.6600 C.3   384  LEU384      0.0001
    112  CD2       90.2570   41.9220   57.5380 C.3   384  LEU384      0.0001
    113  N        100.8180   49.5090   60.9620 N.3   410  GLY410     -0.1210
    114  CA        99.6980   49.1810   60.0800 C.3   410  GLY410      0.1956
    115  C         98.9920   47.9060   60.5060 C.2   410  GLY410      0.2611
    116  O         97.7600   47.8320   60.4850 O.2   410  GLY410     -0.2717
    117  N         99.7730   46.9030   60.9010 N.am  411  ASN411     -0.1974
    118  CA        99.2200   45.6410   61.3900 C.3   411  ASN411      0.1688
    119  C         98.4820   45.7640   62.7220 C.2   411  ASN411      0.2292
    120  O         97.4550   45.1160   62.9190 O.2   411  ASN411     -0.2864
    121  CB       100.2990   44.5580   61.4590 C.3   411  ASN411      0.1181
    122  CG       100.6010   43.9510   60.1010 C.2   411  ASN411      0.2629
    123  OD1       99.6940   43.7020   59.3030 O.2   411  ASN411     -0.2716
    124  ND2      101.8770   43.7030   59.8340 N.am  411  ASN411     -0.0877
    125  N         95.0400   47.6060   61.7380 N.3   414  MET414     -0.1230
    126  CA        94.0960   46.8020   60.9710 C.3   414  MET414      0.1702
    127  C         93.7240   45.4830   61.6450 C.2   414  MET414      0.2592
    128  O         92.6170   44.9790   61.4480 O.2   414  MET414     -0.2718
    129  CB        94.6280   46.5620   59.5610 C.3   414  MET414      0.0401
    130  CG        94.9160   47.8520   58.7980 C.3   414  MET414      0.0596
    131  SD        93.4330   48.7010   58.2400 S.3   414  MET414     -0.1393
    132  CE        93.2770   48.0460   56.5810 C.3   414  MET414      0.0692
    133  N         94.6440   44.9350   62.4380 N.am  415  TYR415     -0.1976
    134  CA        94.4130   43.6590   63.1240 C.3   415  TYR415      0.1639
    135  C         94.3450   43.7970   64.6450 C.2   415  TYR415      0.2290
    136  O         94.6420   42.8510   65.3790 O.2   415  TYR415     -0.2864
    137  CB        95.4850   42.6380   62.7320 C.3   415  TYR415      0.0560
    138  CG        95.4530   42.2400   61.2760 C.ar  415  TYR415     -0.0198
    139  CD1       94.4030   41.4740   60.7670 C.ar  415  TYR415     -0.0009
    140  CD2       96.4760   42.6220   60.4070 C.ar  415  TYR415     -0.0009
    141  CE1       94.3700   41.1030   59.4260 C.ar  415  TYR415      0.0417
    142  CE2       96.4550   42.2550   59.0690 C.ar  415  TYR415      0.0417
    143  CZ        95.3990   41.4980   58.5860 C.ar  415  TYR415      0.1957
    144  OH        95.3770   41.1290   57.2630 O.3   415  TYR415     -0.2866
    145  N        101.4250   52.4730   55.6740 N.3   446  GLN446     -0.1231
    146  CA       100.5160   52.4750   54.5370 C.3   446  GLN446      0.1698
    147  C         99.2120   51.7540   54.8450 C.2   446  GLN446      0.2592
    148  O         99.2140   50.6520   55.3960 O.2   446  GLN446     -0.2718
    149  CB       101.1940   51.8670   53.3090 C.3   446  GLN446      0.0381
    150  CG       102.3600   52.6990   52.7870 C.3   446  GLN446      0.0905
    151  CD       103.0560   52.0770   51.5900 C.2   446  GLN446      0.2608
    152  OE1      103.1200   50.8540   51.4530 O.2   446  GLN446     -0.2717
    153  NE2      103.5940   52.9230   50.7210 N.am  446  GLN446     -0.0878
    154  N         98.1030   52.4040   54.5030 N.am  447  ILE447     -0.1966
    155  CA        96.7750   51.8080   54.6100 C.3   447  ILE447      0.1727
    156  C         96.1050   51.9090   53.2460 C.2   447  ILE447      0.2616
    157  O         95.9260   53.0040   52.7110 O.2   447  ILE447     -0.2715
    158  CB        95.9080   52.4860   55.6980 C.3   447  ILE447      0.0290
    159  CG1       96.6040   52.4100   57.0610 C.3   447  ILE447      0.0022
    160  CG2       94.5220   51.8290   55.7710 C.3   447  ILE447      0.0023
    161  CD1       96.1520   53.4600   58.0530 C.3   447  ILE447      0.0001
    162  N         95.7520   50.7520   52.6910 N.am  448  TYR448     -0.1960
    163  CA        95.2160   50.6460   51.3300 C.3   448  TYR448      0.1771
    164  C         96.0810   51.3730   50.2900 C.2   448  TYR448      0.2620
    165  O         95.5640   52.0280   49.3820 O.2   448  TYR448     -0.2715
    166  CB        93.7490   51.1020   51.2560 C.3   448  TYR448      0.0574
    167  CG        92.7450   50.1690   51.9110 C.ar  448  TYR448     -0.0198
    168  CD1       93.0760   48.8470   52.2290 C.ar  448  TYR448     -0.0009
    169  CD2       91.4470   50.6010   52.1780 C.ar  448  TYR448     -0.0009
    170  CE1       92.1460   47.9930   52.8250 C.ar  448  TYR448      0.0417
    171  CE2       90.5090   49.7530   52.7630 C.ar  448  TYR448      0.0417
    172  CZ        90.8640   48.4540   53.0850 C.ar  448  TYR448      0.1957
    173  OH        89.9340   47.6210   53.6660 O.3   448  TYR448     -0.2866
    174  N         97.3980   51.2560   50.4440 N.am  449  GLY449     -0.1954
    175  CA        98.3500   51.8010   49.4790 C.3   449  GLY449      0.1869
    176  C         98.7510   53.2540   49.6730 C.2   449  GLY449      0.2309
    177  O         99.7470   53.7010   49.0990 O.2   449  GLY449     -0.2863
    178  N         91.6090   52.4390   47.1010 N.3   554  GLY554     -0.1225
    179  CA        92.9490   51.8610   47.1320 C.3   554  GLY554      0.1811
    180  C         93.8960   52.6570   46.2550 C.2   554  GLY554      0.2280
    181  O         93.5040   53.1440   45.1920 O.2   554  GLY554     -0.2866
    182  N         97.5430   51.6230   45.9910 N.3   556  SER556     -0.1217
    183  CA        98.8080   50.8860   45.9200 C.3   556  SER556      0.1889
    184  C         99.5410   51.1560   44.6080 C.2   556  SER556      0.2288
    185  O         98.9760   50.9930   43.5230 O.2   556  SER556     -0.2866
    186  CB        98.5890   49.3840   46.1170 C.3   556  SER556      0.2089
    187  OG        99.8290   48.7020   46.2110 O.3   556  SER556     -0.2183
@<TRIPOS>BOND
     1    33    32    2
     2    32    31    1
     3    31    34    1
     4    31    30    1
     5    34    35    1
     6    57    56    2
     7    51    52    1
     8    35    36   ar
     9    35    37   ar
    10    52    53    1
    11    52    55    1
    12    56    58   am
    13    56    55    1
    14    54    53    2
    15    43    42    1
    16    38    39    1
    17    39    42    1
    18    39    40    1
    19    41    40    2
    20    42    44    1
    21    40    45   am
    22    45    46    1
    23    48    47    2
    24    47    46    1
    25    75    72    1
    26    75    76    1
    27    70    69    2
    28    72    71    1
    29    72    73    1
    30    46    49    1
    31    69    71   am
    32    69    68    1
    33    74    73    2
    34    78    76   ar
    35    76    77   ar
    36    73    79   am
    37    68    67    1
    38    49    50    1
    39   185   184    2
    40    67    61   am
    41    79    80    1
    42   184   183    1
    43    81    80    1
    44    81    82    2
    45    61    62    2
    46    61    60    1
    47    80    83    1
    48   181   180    2
    49    59    60    1
    50   183   182    1
    51   183   186    1
    52    60    63    1
    53   186   187    1
    54   180   179    1
    55    10     8   ar
    56    10    11   ar
    57    83    84    1
    58     8     6   ar
    59   178   179    1
    60    11     9   ar
    61    63    64    1
    62    84    85   ar
    63    84    86   ar
    64     6     5    1
    65     6     7   ar
    66    64    65    2
    67    64    66   am
    68     5     2    1
    69     9     7   ar
    70     1     2    1
    71   177   176    2
    72   165   164    2
    73   175   176    1
    74   175   174    1
    75     2     3    1
    76    92    91    1
    77   164   174   am
    78   164   163    1
    79     3     4    2
    80    87    88    1
    81   153   151   am
    82    88    91    1
    83    88    89    1
    84    29    27    1
    85   166   163    1
    86   166   167    1
    87   163   162    1
    88    28    27    1
    89   152   151    2
    90   151   150    1
    91    98    97    1
    92   167   169   ar
    93   167   168   ar
    94    27    26    2
    95    93    89   am
    96    93    94    1
    97   169   171   ar
    98    89    90    2
    99   168   170   ar
   100   162   156   am
   101   157   156    2
   102   171   172   ar
   103   150   149    1
   104   170   172   ar
   105    94    97    1
   106    94    95    1
   107   172   173    1
   108    26    25    1
   109   156   155    1
   110   149   146    1
   111    25    24    1
   112    24    23    1
   113    95    99   am
   114    95    96    2
   115    99   100    1
   116   154   155    1
   117   154   147   am
   118   146   147    1
   119   146   145    1
   120   155   158    1
   121   102   101    2
   122   147   148    2
   123    23    20    1
   124    22    21    2
   125   158   160    1
   126   158   159    1
   127    20    21    1
   128    20    19    1
   129   100   101    1
   130   100   103    1
   131   104   103    1
   132   132   131    1
   133   159   161    1
   134   144   143    1
   135   112   110    1
   136   111   110    1
   137   131   130    1
   138   110   109    1
   139    12    13    1
   140    12    18    1
   141   143   142   ar
   142   143   141   ar
   143    13    14    1
   144    13    16    1
   145   130   129    1
   146    15    14    2
   147    18    17    1
   148   142   140   ar
   149   123   122    2
   150   141   139   ar
   151    17    16    1
   152   129   126    1
   153   109   106    1
   154   124   122   am
   155   114   115    1
   156   114   113    1
   157   122   121    1
   158   140   138   ar
   159   116   115    2
   160   115   117   am
   161   139   138   ar
   162   106   107    1
   163   106   105    1
   164   117   118    1
   165   126   127    1
   166   126   125    1
   167   138   137    1
   168   107   108    2
   169   118   121    1
   170   118   119    1
   171   128   127    2
   172   127   133   am
   173   133   134    1
   174   119   120    2
   175   137   134    1
   176   134   135    1
   177   135   136    2
