@<TRIPOS>MOLECULE
tmp/3hhlB01.pdb
 209 198 0 0 0
SMALL
GASTEIGER

@<TRIPOS>ATOM
      1  N          9.3490   74.0810   44.6300 N.3     4  ILE4       -0.1231
      2  CA         9.2860   74.4310   43.2310 C.3     4  ILE4        0.1692
      3  C          8.1870   73.6450   42.5400 C.2     4  ILE4        0.2592
      4  O          7.4360   74.1770   41.7480 O.2     4  ILE4       -0.2718
      5  CB        10.6360   74.1060   42.5930 C.3     4  ILE4        0.0266
      6  CG1       11.7280   74.9540   43.2540 C.3     4  ILE4        0.0019
      7  CG2       10.6190   74.2890   41.0720 C.3     4  ILE4        0.0020
      8  CD1       13.1530   74.3620   43.0820 C.3     4  ILE4        0.0001
      9  N          8.1080   72.3640   42.8380 N.am    5  ASP5       -0.1960
     10  CA         7.1730   71.4780   42.1490 C.3     5  ASP5        0.1825
     11  C          6.2410   70.7660   43.0860 C.2     5  ASP5        0.2464
     12  O          6.5280   70.5900   44.2370 O.2     5  ASP5       -0.2730
     13  CB         7.9460   70.3870   41.3860 C.3     5  ASP5        0.1450
     14  CG         8.6180   70.9050   40.1030 C.2     5  ASP5        0.3671
     15  OD1        7.9910   71.6920   39.3320 O.co2   5  ASP5       -0.2456
     16  OD2        9.7760   70.4760   39.8900 O.co2   5  ASP5       -0.2456
     17  N          5.1170   70.3230   42.5780 N.am    6  PRO6       -0.2727
     18  CA         4.2200   69.5400   43.3990 C.3     6  PRO6        0.1402
     19  C          4.7390   68.1160   43.5650 C.2     6  PRO6        0.2269
     20  O          5.3680   67.6210   42.6670 O.2     6  PRO6       -0.2865
     21  CB         2.9340   69.5590   42.5890 C.3     6  PRO6        0.0296
     22  CG         3.3930   69.7280   41.2240 C.3     6  PRO6        0.0237
     23  CD         4.5530   70.6220   41.2660 C.3     6  PRO6        0.0939
     24  N          4.0390   63.9470   43.9170 N.3     8  LYS8       -0.1245
     25  CA         3.0620   63.1400   43.1770 C.3     8  LYS8        0.1561
     26  C          1.8500   62.7870   44.0690 C.2     8  LYS8        0.2260
     27  O          0.7300   62.6890   43.6110 O.2     8  LYS8       -0.2867
     28  CB         3.7310   61.9100   42.5210 C.3     8  LYS8        0.0271
     29  CG         4.3590   60.9240   43.4820 C.3     8  LYS8        0.0035
     30  CD         5.0740   59.7300   42.7310 C.3     8  LYS8        0.0206
     31  CE         5.5350   58.5960   43.6890 C.3     8  LYS8        0.1093
     32  NZ         6.7100   59.0210   44.5280 N.3     8  LYS8       -0.1314
     33  N         -0.4110   65.8860   44.1000 N.3    11  PHE11      -0.1241
     34  CA        -1.1260   66.0180   42.8450 C.3    11  PHE11       0.1605
     35  C         -2.2540   64.9720   42.7020 C.2    11  PHE11       0.2264
     36  O         -3.2900   65.2230   42.0640 O.2    11  PHE11      -0.2867
     37  CB        -0.1570   65.9300   41.6760 C.3    11  PHE11       0.0534
     38  CG        -0.7460   66.3840   40.3910 C.ar   11  PHE11      -0.0203
     39  CD1       -0.8630   67.7150   40.1060 C.ar   11  PHE11      -0.0042
     40  CD2       -1.2180   65.4760   39.4740 C.ar   11  PHE11      -0.0042
     41  CE1       -1.4450   68.1550   38.9260 C.ar   11  PHE11      -0.0003
     42  CE2       -1.7850   65.9300   38.2810 C.ar   11  PHE11      -0.0003
     43  CZ        -1.8940   67.2790   38.0340 C.ar   11  PHE11      -0.0000
     44  N         -0.8770   81.9010   43.0130 N.3    26  ASN26      -0.1240
     45  CA         0.5650   81.6450   42.8630 C.3    26  ASN26       0.1653
     46  C          1.3840   82.7190   43.6340 C.2    26  ASN26       0.2266
     47  O          1.2330   83.9390   43.3820 O.2    26  ASN26      -0.2867
     48  CB         0.9560   81.7720   41.3830 C.3    26  ASN26       0.1155
     49  CG         0.5050   80.6210   40.5340 C.2    26  ASN26       0.2627
     50  OD1        1.3310   79.8270   40.1050 O.2    26  ASN26      -0.2716
     51  ND2       -0.8020   80.5230   40.2610 N.am   26  ASN26      -0.0877
     52  N         11.5820   82.6820   33.7430 N.3    48  TYR48      -0.1241
     53  CA        10.1730   82.6950   34.0510 C.3    48  TYR48       0.1605
     54  C          9.3760   83.2960   32.8900 C.2    48  TYR48       0.2264
     55  O          8.3250   82.7890   32.5430 O.2    48  TYR48      -0.2867
     56  CB         9.8900   83.4150   35.3740 C.3    48  TYR48       0.0534
     57  CG         8.5080   83.1120   35.8970 C.ar   48  TYR48      -0.0201
     58  CD1        7.4530   83.9930   35.6950 C.ar   48  TYR48      -0.0009
     59  CD2        8.2430   81.9250   36.5670 C.ar   48  TYR48      -0.0009
     60  CE1        6.1550   83.6950   36.1620 C.ar   48  TYR48       0.0417
     61  CE2        6.9660   81.6300   37.0540 C.ar   48  TYR48       0.0417
     62  CZ         5.9320   82.5090   36.8440 C.ar   48  TYR48       0.1957
     63  OH         4.6710   82.2050   37.2770 O.3    48  TYR48      -0.2866
     64  N          8.9410   80.6150   30.3920 N.3    51  TYR51      -0.1227
     65  CA         7.8750   79.7300   30.8500 C.3    51  TYR51       0.1736
     66  C          6.5080   80.2820   30.4260 C.2    51  TYR51       0.2596
     67  O          5.7150   79.5960   29.7760 O.2    51  TYR51      -0.2718
     68  CB         7.9420   79.6030   32.3690 C.3    51  TYR51       0.0548
     69  CG         6.7340   78.9580   32.9970 C.ar   51  TYR51      -0.0200
     70  CD1        6.2630   77.7570   32.5180 C.ar   51  TYR51      -0.0009
     71  CD2        6.0690   79.5450   34.0780 C.ar   51  TYR51      -0.0009
     72  CE1        5.1490   77.1490   33.0760 C.ar   51  TYR51       0.0417
     73  CE2        4.9620   78.9480   34.6470 C.ar   51  TYR51       0.0417
     74  CZ         4.5050   77.7300   34.1440 C.ar   51  TYR51       0.1957
     75  OH         3.4170   77.0490   34.6680 O.3    51  TYR51      -0.2866
     76  N          6.2640   81.5440   30.7950 N.am   52  GLY52      -0.1957
     77  CA         5.0180   82.2390   30.4540 C.3    52  GLY52       0.1869
     78  C          4.7630   82.2570   28.9520 C.2    52  GLY52       0.2309
     79  O          3.7310   81.8360   28.4790 O.2    52  GLY52      -0.2863
     80  N          4.0300   78.6470   27.7950 N.3    55  SER55      -0.1202
     81  CA         2.8870   77.9950   28.4230 C.3    55  SER55       0.2020
     82  C          1.5470   78.7210   28.2060 C.2    55  SER55       0.2619
     83  O          0.4820   78.1160   28.3580 O.2    55  SER55      -0.2717
     84  CB         3.1240   77.8630   29.9150 C.3    55  SER55       0.2103
     85  OG         3.1450   79.1320   30.5400 O.3    55  SER55      -0.2182
     86  N          1.6060   80.0060   27.8630 N.am   56  GLY56      -0.1956
     87  CA         0.4050   80.8100   27.6790 C.3    56  GLY56       0.1869
     88  C         -0.6200   80.2400   26.7080 C.2    56  GLY56       0.2309
     89  O         -1.7950   80.1120   27.0370 O.2    56  GLY56      -0.2863
     90  N         -2.4960   77.2660   28.1410 N.3    59  SER59      -0.1202
     91  CA        -3.3880   77.6420   29.2300 C.3    59  SER59       0.2020
     92  C         -4.6560   78.2260   28.6420 C.2    59  SER59       0.2618
     93  O         -5.7800   77.8530   29.0250 O.2    59  SER59      -0.2717
     94  CB        -2.7100   78.6890   30.0890 C.3    59  SER59       0.2103
     95  OG        -3.4830   78.9520   31.2480 O.3    59  SER59      -0.2182
     96  N         -4.4410   79.1250   27.6790 N.am   60  GLU60      -0.1979
     97  CA        -5.5190   79.8670   27.0730 C.3    60  GLU60       0.1602
     98  C         -6.4790   78.9380   26.3200 C.2    60  GLU60       0.2287
     99  O         -7.6930   79.0850   26.3710 O.2    60  GLU60      -0.2864
    100  CB        -4.9400   80.9490   26.1570 C.3    60  GLU60       0.0415
    101  CG        -5.9930   81.7400   25.3810 C.3    60  GLU60       0.1163
    102  CD        -5.4840   83.1310   24.9350 C.2    60  GLU60       0.3649
    103  OE1       -4.4790   83.1880   24.1640 O.co2  60  GLU60      -0.2457
    104  OE2       -6.0960   84.1660   25.3560 O.co2  60  GLU60      -0.2457
    105  N         -7.7120   78.7210   30.8450 N.3    64  GLY64      -0.1225
    106  CA        -6.9710   79.4330   31.8650 C.3    64  GLY64       0.1811
    107  C         -7.0200   80.9300   31.5930 C.2    64  GLY64       0.2280
    108  O         -7.1310   81.3830   30.4370 O.2    64  GLY64      -0.2866
    109  N         -5.6460   84.7420   33.8300 N.3    65  VAL65      -0.1245
    110  CA        -5.2180   85.4220   35.0060 C.3    65  VAL65       0.1561
    111  C         -6.3170   86.3650   35.3520 C.2    65  VAL65       0.2260
    112  O         -6.5900   87.2520   34.5790 O.2    65  VAL65      -0.2867
    113  CB        -3.9280   86.1910   34.7460 C.3    65  VAL65       0.0252
    114  CG1       -3.5710   87.0480   35.9650 C.3    65  VAL65       0.0019
    115  CG2       -2.8270   85.2020   34.4530 C.3    65  VAL65       0.0019
    116  N         -0.2220   86.2550   41.7350 N.3    86  PHE86      -0.1241
    117  CA        -1.3990   86.2960   40.8590 C.3    86  PHE86       0.1605
    118  C         -2.3100   85.1250   41.1130 C.2    86  PHE86       0.2264
    119  O         -1.8980   84.1160   41.7780 O.2    86  PHE86      -0.2867
    120  CB        -0.9950   86.3000   39.3740 C.3    86  PHE86       0.0534
    121  CG        -0.2610   85.0770   38.9350 C.ar   86  PHE86      -0.0203
    122  CD1        1.1020   84.9930   39.0800 C.ar   86  PHE86      -0.0042
    123  CD2       -0.9310   84.0200   38.3680 C.ar   86  PHE86      -0.0042
    124  CE1        1.8040   83.8430   38.6540 C.ar   86  PHE86      -0.0003
    125  CE2       -0.2730   82.8700   37.9630 C.ar   86  PHE86      -0.0003
    126  CZ         1.1030   82.7780   38.0930 C.ar   86  PHE86      -0.0000
    127  N         -4.8840   82.5460   38.8980 N.3    88  ALA88      -0.1245
    128  CA        -5.2220   82.0220   37.5900 C.3    88  ALA88       0.1562
    129  C         -6.4770   81.2510   37.8530 C.2    88  ALA88       0.2260
    130  O         -6.5430   80.4790   38.8080 O.2    88  ALA88      -0.2867
    131  CB        -4.1160   81.0860   37.0610 C.3    88  ALA88       0.0290
    132  N         -9.1540   78.3960   36.2880 N.3    90  TYR90      -0.1241
    133  CA        -9.4150   77.3560   35.2760 C.3    90  TYR90       0.1605
    134  C        -10.8310   76.8980   35.4880 C.2    90  TYR90       0.2264
    135  O        -11.3080   76.9560   36.5860 O.2    90  TYR90      -0.2867
    136  CB        -8.4280   76.1940   35.3780 C.3    90  TYR90       0.0534
    137  CG        -6.9750   76.6480   35.2610 C.ar   90  TYR90      -0.0201
    138  CD1       -6.3280   77.1870   36.3530 C.ar   90  TYR90      -0.0009
    139  CD2       -6.2650   76.5300   34.0660 C.ar   90  TYR90      -0.0009
    140  CE1       -5.0320   77.6160   36.2830 C.ar   90  TYR90       0.0417
    141  CE2       -4.9470   76.9710   33.9790 C.ar   90  TYR90       0.0417
    142  CZ        -4.3440   77.5260   35.1110 C.ar   90  TYR90       0.1957
    143  OH        -3.0430   78.0050   35.1070 O.3    90  TYR90      -0.2866
    144  N         -6.9870   71.9520   34.1130 N.3    96  PHE96      -0.1241
    145  CA        -5.6770   72.1700   34.6440 C.3    96  PHE96       0.1605
    146  C         -4.8010   70.9450   34.4370 C.2    96  PHE96       0.2264
    147  O         -3.6150   71.0580   34.1400 O.2    96  PHE96      -0.2867
    148  CB        -5.7700   72.4720   36.1360 C.3    96  PHE96       0.0534
    149  CG        -4.4710   72.8460   36.7400 C.ar   96  PHE96      -0.0203
    150  CD1       -4.0250   74.1650   36.6960 C.ar   96  PHE96      -0.0042
    151  CD2       -3.6520   71.8900   37.2940 C.ar   96  PHE96      -0.0042
    152  CE1       -2.7680   74.5310   37.2320 C.ar   96  PHE96      -0.0003
    153  CE2       -2.4000   72.2450   37.8190 C.ar   96  PHE96      -0.0003
    154  CZ        -1.9760   73.5600   37.7950 C.ar   96  PHE96      -0.0000
    155  N         -1.2290   70.4240   32.2240 N.3    99  ILE99      -0.1245
    156  CA        -0.0400   69.8850   32.8240 C.3    99  ILE99       0.1561
    157  C          0.4600   68.6600   32.0680 C.2    99  ILE99       0.2260
    158  O          1.6630   68.3460   32.0970 O.2    99  ILE99      -0.2867
    159  CB        -0.3200   69.6350   34.3350 C.3    99  ILE99       0.0252
    160  CG1        0.1800   70.8820   35.0520 C.3    99  ILE99       0.0019
    161  CG2        0.2680   68.3070   34.8790 C.3    99  ILE99       0.0019
    162  CD1       -0.0600   70.8450   36.5280 C.3    99  ILE99       0.0001
    163  N          3.4170   72.2020   27.1480 N.3   104  TYR104     -0.1241
    164  CA         3.5570   72.6750   28.5290 C.3   104  TYR104      0.1605
    165  C          4.6540   71.9590   29.2480 C.2   104  TYR104      0.2264
    166  O          5.3950   72.5680   29.9850 O.2   104  TYR104     -0.2867
    167  CB         2.2890   72.4700   29.3530 C.3   104  TYR104      0.0534
    168  CG         2.4090   73.0250   30.7590 C.ar  104  TYR104     -0.0201
    169  CD1        2.1360   74.3630   31.0290 C.ar  104  TYR104     -0.0009
    170  CD2        2.8090   72.2130   31.8120 C.ar  104  TYR104     -0.0009
    171  CE1        2.2660   74.8700   32.3060 C.ar  104  TYR104      0.0417
    172  CE2        2.9530   72.7010   33.0950 C.ar  104  TYR104      0.0417
    173  CZ         2.6800   74.0260   33.3460 C.ar  104  TYR104      0.1957
    174  OH         2.8050   74.5100   34.6360 O.3   104  TYR104     -0.2866
    175  N          7.5140   74.1200   31.2250 N.3   108  VAL108     -0.1245
    176  CA         7.6560   74.0980   32.6680 C.3   108  VAL108      0.1561
    177  C          9.1010   73.8840   33.0860 C.2   108  VAL108      0.2260
    178  O          9.4910   74.3190   34.1510 O.2   108  VAL108     -0.2867
    179  CB         6.6990   73.0730   33.3600 C.3   108  VAL108      0.0252
    180  CG1        7.2300   71.6680   33.2700 C.3   108  VAL108      0.0019
    181  CG2        6.4530   73.5000   34.8350 C.3   108  VAL108      0.0019
    182  N         10.1910   77.0420   34.2690 N.3   111  ARG111     -0.1231
    183  CA         9.7320   77.3800   35.6270 C.3   111  ARG111      0.1694
    184  C         10.7170   76.7330   36.5640 C.2   111  ARG111      0.2591
    185  O         11.1790   77.3360   37.5290 O.2   111  ARG111     -0.2718
    186  CB         8.3000   76.8750   35.9480 C.3   111  ARG111      0.0321
    187  CG         7.4820   77.7990   36.8950 C.3   111  ARG111      0.0489
    188  CD         6.2300   77.1610   37.5370 C.3   111  ARG111      0.2205
    189  NE         6.6190   76.6020   38.8310 N.pl3 111  ARG111     -0.0865
    190  CZ         6.2780   77.0780   40.0270 C.cat 111  ARG111      0.5346
    191  NH1        5.4580   78.1080   40.1750 N.pl3 111  ARG111      0.1354
    192  NH2        6.7570   76.4930   41.0980 N.pl3 111  ARG111      0.1354
    193  N         11.0600   75.4970   36.2510 N.am  112  GLN112     -0.1979
    194  CA        11.8880   74.6950   37.1450 C.3   112  GLN112      0.1601
    195  C         13.2390   75.3470   37.3730 C.2   112  GLN112      0.2287
    196  O         13.7460   75.3410   38.4830 O.2   112  GLN112     -0.2864
    197  CB        12.0240   73.2440   36.6390 C.3   112  GLN112      0.0394
    198  CG        10.7530   72.4260   36.8920 C.3   112  GLN112      0.0908
    199  CD        10.7340   71.0320   36.2330 C.2   112  GLN112      0.2608
    200  OE1       11.3070   70.8020   35.1630 O.2   112  GLN112     -0.2717
    201  NE2       10.0320   70.1110   36.8660 N.am  112  GLN112     -0.0878
    202  N          1.6190   77.4240   45.5330 N.3   120  LEU120     -0.1245
    203  CA         0.5000   77.3210   44.5900 C.3   120  LEU120      0.1561
    204  C         -0.6500   76.7710   45.4050 C.2   120  LEU120      0.2260
    205  O         -0.6430   75.6060   45.8010 O.2   120  LEU120     -0.2867
    206  CB         0.8400   76.4030   43.4040 C.3   120  LEU120      0.0270
    207  CG        -0.1870   76.2780   42.2650 C.3   120  LEU120      0.0019
    208  CD1       -0.4520   77.6330   41.7050 C.3   120  LEU120      0.0001
    209  CD2        0.2790   75.3040   41.1330 C.3   120  LEU120      0.0001
@<TRIPOS>BOND
     1   103   102   ar
     2   102   104   ar
     3   102   101    1
     4   101   100    1
     5   100    97    1
     6    98    99    2
     7    98    97    1
     8    88    89    2
     9    88    87    1
    10    97    96    1
    11   163   164    1
    12    87    86    1
    13    96    92   am
    14    80    81    1
    15    86    82   am
    16    90    91    1
    17    82    83    2
    18    82    81    1
    19    81    84    1
    20    79    78    2
    21   164   165    1
    22   164   167    1
    23    92    93    2
    24    92    91    1
    25    78    77    1
    26    91    94    1
    27   165   166    2
    28   167   168    1
    29    67    66    2
    30    84    85    1
    31    94    95    1
    32    64    65    1
    33    66    76   am
    34    66    65    1
    35   108   107    2
    36    77    76    1
    37   168   169   ar
    38   168   170   ar
    39   105   106    1
    40    65    68    1
    41   169   171   ar
    42   175   176    1
    43   107   106    1
    44   170   172   ar
    45   157   158    2
    46   157   156    1
    47   155   156    1
    48   171   173   ar
    49    68    69    1
    50    70    69   ar
    51    70    72   ar
    52    55    54    2
    53   176   177    1
    54   176   179    1
    55   156   159    1
    56    54    53    1
    57    69    71   ar
    58    72    74   ar
    59   177   178    2
    60   172   173   ar
    61   180   179    1
    62   173   174    1
    63   179   181    1
    64    52    53    1
    65   109   110    1
    66   141   139   ar
    67   141   142   ar
    68    53    56    1
    69   139   137   ar
    70    71    73   ar
    71   144   145    1
    72   147   146    2
    73    74    73   ar
    74    74    75    1
    75   182   183    1
    76   159   161    1
    77   159   160    1
    78   146   145    1
    79   115   113    1
    80   112   111    2
    81   145   148    1
    82   113   110    1
    83   113   114    1
    84   110   111    1
    85   160   162    1
    86   143   142    1
    87   142   140   ar
    88   200   199    2
    89   137   136    1
    90   137   138   ar
    91   133   136    1
    92   133   134    1
    93   133   132    1
    94    56    57    1
    95   134   135    2
    96   183   186    1
    97   183   184    1
    98    58    57   ar
    99    58    60   ar
   100    57    59   ar
   101   186   187    1
   102   148   149    1
   103    60    62   ar
   104   199   201   am
   105   199   198    1
   106   193   184   am
   107   193   194    1
   108   140   138   ar
   109   184   185    2
   110    59    61   ar
   111   197   198    1
   112   197   194    1
   113   150   149   ar
   114   150   152   ar
   115   149   151   ar
   116    62    61   ar
   117    62    63    1
   118   187   188    1
   119   131   128    1
   120   194   195    1
   121   152   154   ar
   122   151   153   ar
   123   195   196    2
   124   188   189    1
   125   128   129    1
   126   128   127    1
   127   154   153   ar
   128   129   130    2
   129   125   126   ar
   130   125   123   ar
   131    43    42   ar
   132    43    41   ar
   133   126   124   ar
   134    42    40   ar
   135   123   121   ar
   136   124   122   ar
   137   189   190    2
   138    41    39   ar
   139   121   122   ar
   140   121   120    1
   141    15    14   ar
   142   120   117    1
   143    40    38   ar
   144    16    14   ar
   145   190   191    1
   146   190   192    1
   147    14    13    1
   148    50    49    2
   149    39    38   ar
   150    51    49   am
   151    38    37    1
   152    49    48    1
   153   117   118    1
   154   117   116    1
   155     7     5    1
   156   118   119    2
   157   209   207    1
   158    22    23    1
   159    22    21    1
   160    23    17    1
   161    48    45    1
   162    13    10    1
   163    37    34    1
   164   208   207    1
   165     4     3    2
   166    36    35    2
   167    10     9    1
   168    10    11    1
   169   207   206    1
   170    28    25    1
   171    28    29    1
   172     3     9   am
   173     3     2    1
   174    17    11   am
   175    17    18    1
   176    21    18    1
   177     5     2    1
   178     5     6    1
   179    20    19    2
   180    35    34    1
   181    30    29    1
   182    30    31    1
   183    34    33    1
   184    45    44    1
   185    45    46    1
   186     8     6    1
   187    11    12    2
   188    25    24    1
   189    25    26    1
   190     2     1    1
   191    47    46    2
   192    18    19    1
   193   206   203    1
   194    27    26    2
   195    31    32    1
   196   203   204    1
   197   203   202    1
   198   204   205    2
