@<TRIPOS>MOLECULE
tmp/3hhlD02.pdb
 212 200 0 0 0
SMALL
GASTEIGER

@<TRIPOS>ATOM
      1  N        -29.2140   82.0490    2.4480 N.3     5  ASP5       -0.1225
      2  CA       -30.4870   81.6740    1.8340 C.3     5  ASP5        0.1790
      3  C        -30.3810   80.4850    0.8980 C.2     5  ASP5        0.2439
      4  O        -29.3290   80.1370    0.4500 O.2     5  ASP5       -0.2733
      5  CB       -31.0350   82.8660    1.0440 C.3     5  ASP5        0.1423
      6  CG       -31.6060   83.9720    1.9510 C.2     5  ASP5        0.3668
      7  OD1      -32.3020   83.6740    2.9710 O.co2   5  ASP5       -0.2456
      8  OD2      -31.3520   85.1470    1.6090 O.co2   5  ASP5       -0.2456
      9  N        -31.4880   79.8300    0.6240 N.am    6  PRO6       -0.2729
     10  CA       -31.4580   78.7850   -0.3820 C.3     6  PRO6        0.1401
     11  C        -31.4960   79.3980   -1.7750 C.2     6  PRO6        0.2269
     12  O        -32.0230   80.4830   -1.9250 O.2     6  PRO6       -0.2865
     13  CB       -32.7400   78.0210   -0.1050 C.3     6  PRO6        0.0296
     14  CG       -33.6070   79.0090    0.5070 C.3     6  PRO6        0.0237
     15  CD       -32.7670   79.8870    1.3240 C.3     6  PRO6        0.0939
     16  N        -32.8720   79.3880   -5.7620 N.3     8  LYS8       -0.1245
     17  CA       -34.1700   79.0140   -6.3310 C.3     8  LYS8        0.1561
     18  C        -34.1390   77.5690   -6.9060 C.2     8  LYS8        0.2260
     19  O        -35.0970   76.8310   -6.7960 O.2     8  LYS8       -0.2867
     20  CB       -34.6950   80.0770   -7.3360 C.3     8  LYS8        0.0271
     21  CG       -33.7750   80.3700   -8.5210 C.3     8  LYS8        0.0035
     22  CD       -34.2860   81.5420   -9.4430 C.3     8  LYS8        0.0206
     23  CE       -33.5410   81.5880  -10.8020 C.3     8  LYS8        0.1093
     24  NZ       -32.1870   82.2360  -10.6910 N.3     8  LYS8       -0.1314
     25  N        -34.3170   75.0460   -3.9870 N.3    11  PHE11      -0.1241
     26  CA       -35.6680   75.0030   -3.4310 C.3    11  PHE11       0.1605
     27  C        -36.6360   74.2750   -4.3640 C.2    11  PHE11       0.2264
     28  O        -37.6100   73.6640   -3.9040 O.2    11  PHE11      -0.2867
     29  CB       -36.1800   76.3980   -3.1090 C.3    11  PHE11       0.0534
     30  CG       -37.4010   76.4030   -2.2270 C.ar   11  PHE11      -0.0203
     31  CD1      -37.2930   76.1360   -0.8790 C.ar   11  PHE11      -0.0042
     32  CD2      -38.6500   76.6590   -2.7480 C.ar   11  PHE11      -0.0042
     33  CE1      -38.3930   76.1330   -0.0590 C.ar   11  PHE11      -0.0003
     34  CE2      -39.7670   76.6520   -1.9140 C.ar   11  PHE11      -0.0003
     35  CZ       -39.6210   76.3830   -0.5690 C.ar   11  PHE11      -0.0000
     36  N        -39.1300   71.0480   -3.2300 N.3    15  ARG15      -0.1245
     37  CA       -40.5130   70.8770   -3.6200 C.3    15  ARG15       0.1563
     38  C        -40.7100   69.6580   -4.5190 C.2    15  ARG15       0.2260
     39  O        -41.7690   69.0370   -4.4890 O.2    15  ARG15      -0.2867
     40  CB       -40.9930   72.1400   -4.3530 C.3    15  ARG15       0.0307
     41  CG       -41.0500   73.4080   -3.4900 C.3    15  ARG15       0.0489
     42  CD       -41.5370   74.6000   -4.2790 C.3    15  ARG15       0.2205
     43  NE       -40.5720   74.9950   -5.3030 N.pl3  15  ARG15      -0.0865
     44  CZ       -40.5870   76.1410   -5.9670 C.cat  15  ARG15       0.5346
     45  NH1      -39.6520   76.3490   -6.8690 N.pl3  15  ARG15       0.1354
     46  NH2      -41.5330   77.0560   -5.7400 N.pl3  15  ARG15       0.1354
     47  N        -30.7580   72.4940   11.4610 N.3    26  ASN26      -0.1240
     48  CA       -30.2570   73.8540   11.2800 C.3    26  ASN26       0.1653
     49  C        -28.9100   74.0310   12.0090 C.2    26  ASN26       0.2266
     50  O        -28.8180   73.7770   13.2200 O.2    26  ASN26      -0.2867
     51  CB       -31.2430   74.8690   11.8860 C.3    26  ASN26       0.1155
     52  CG       -32.4780   75.0890   11.0520 C.2    26  ASN26       0.2627
     53  OD1      -32.6080   76.1260   10.4290 O.2    26  ASN26      -0.2716
     54  ND2      -33.4100   74.1400   11.0670 N.am   26  ASN26      -0.0877
     55  N        -31.9230   87.4790   15.2970 N.3    48  TYR48      -0.1241
     56  CA       -32.3680   86.1110   15.1920 C.3    48  TYR48       0.1605
     57  C        -33.5610   85.8960   16.1320 C.2    48  TYR48       0.2264
     58  O        -34.5200   85.2510   15.7640 O.2    48  TYR48      -0.2867
     59  CB       -31.2140   85.1280   15.4450 C.3    48  TYR48       0.0534
     60  CG       -31.5380   83.7340   14.9810 C.ar   48  TYR48      -0.0201
     61  CD1      -32.0120   82.7790   15.8580 C.ar   48  TYR48      -0.0009
     62  CD2      -31.4010   83.3690   13.6500 C.ar   48  TYR48      -0.0009
     63  CE1      -32.3620   81.5050   15.4100 C.ar   48  TYR48       0.0417
     64  CE2      -31.7240   82.0850   13.2110 C.ar   48  TYR48       0.0417
     65  CZ       -32.1980   81.1730   14.0920 C.ar   48  TYR48       0.1957
     66  OH       -32.5370   79.9220   13.6600 O.3    48  TYR48      -0.2866
     67  N        -36.6290   87.1990   14.4640 N.3    51  TYR51      -0.1227
     68  CA       -37.0360   86.2120   13.4720 C.3    51  TYR51       0.1736
     69  C        -37.8700   85.1070   14.1110 C.2    51  TYR51       0.2596
     70  O        -38.9840   84.7920   13.6490 O.2    51  TYR51      -0.2718
     71  CB       -35.8000   85.5910   12.8270 C.3    51  TYR51       0.0548
     72  CG       -36.0800   84.3470   12.0110 C.ar   51  TYR51      -0.0200
     73  CD1      -36.9670   84.3880   10.9490 C.ar   51  TYR51      -0.0009
     74  CD2      -35.4340   83.1330   12.2880 C.ar   51  TYR51      -0.0009
     75  CE1      -37.2320   83.2600   10.2000 C.ar   51  TYR51       0.0417
     76  CE2      -35.6790   82.0060   11.5450 C.ar   51  TYR51       0.0417
     77  CZ       -36.5810   82.0650   10.4870 C.ar   51  TYR51       0.1957
     78  OH       -36.8620   80.9500    9.7020 O.3    51  TYR51      -0.2866
     79  N        -37.3060   84.5190   15.1690 N.am   52  GLY52      -0.1957
     80  CA       -38.0080   83.5200   15.9820 C.3    52  GLY52       0.1869
     81  C        -39.3460   84.0390   16.5150 C.2    52  GLY52       0.2309
     82  O        -40.3740   83.4530   16.3130 O.2    52  GLY52      -0.2863
     83  N        -41.7850   84.4340   13.5090 N.3    55  SER55      -0.1202
     84  CA       -42.0780   83.2470   12.6780 C.3    55  SER55       0.2020
     85  C        -42.6970   82.0860   13.4580 C.2    55  SER55       0.2619
     86  O        -43.3530   81.2300   12.8820 O.2    55  SER55      -0.2717
     87  CB       -40.8190   82.7540   11.9410 C.3    55  SER55       0.2103
     88  OG       -39.7830   82.3830   12.8370 O.3    55  SER55      -0.2182
     89  N        -42.4810   82.0620   14.7640 N.am   56  GLY56      -0.1956
     90  CA       -43.0150   81.0140   15.6190 C.3    56  GLY56       0.1869
     91  C        -44.4640   80.6810   15.3440 C.2    56  GLY56       0.2309
     92  O        -44.7940   79.5330   15.0890 O.2    56  GLY56      -0.2863
     93  N        -45.1420   78.8940   12.0110 N.3    59  SER59      -0.1202
     94  CA       -44.6220   77.5260   12.0550 C.3    59  SER59       0.2020
     95  C        -45.5480   76.6100   12.8440 C.2    59  SER59       0.2618
     96  O        -45.8880   75.4920   12.3970 O.2    59  SER59      -0.2717
     97  CB       -43.2650   77.5340   12.7260 C.3    59  SER59       0.2103
     98  OG       -42.6060   76.3100   12.4630 O.3    59  SER59      -0.2182
     99  N        -45.9530   77.1210   14.0060 N.am   60  GLU60      -0.1979
    100  CA       -46.7980   76.3870   14.9320 C.3    60  GLU60       0.1602
    101  C        -48.1320   76.0430   14.3030 C.2    60  GLU60       0.2287
    102  O        -48.6000   74.9250   14.4140 O.2    60  GLU60      -0.2864
    103  CB       -47.0080   77.2100   16.1890 C.3    60  GLU60       0.0415
    104  CG       -47.6250   76.4800   17.3980 C.3    60  GLU60       0.1163
    105  CD       -47.2210   77.1850   18.7360 C.2    60  GLU60       0.3649
    106  OE1      -46.0130   77.1210   19.1320 O.co2  60  GLU60      -0.2457
    107  OE2      -48.0970   77.8290   19.3750 O.co2  60  GLU60      -0.2457
    108  N        -45.0920   72.8460   12.4170 N.3    64  GLY64      -0.1225
    109  CA       -43.7060   72.8910   12.8180 C.3    64  GLY64       0.1811
    110  C        -43.5830   72.7280   14.3300 C.2    64  GLY64       0.2280
    111  O        -44.4820   73.1460   15.1050 O.2    64  GLY64      -0.2866
    112  N        -39.9400   72.2920   17.1920 N.3    65  VAL65      -0.1245
    113  CA       -38.5480   71.9960   17.4210 C.3    65  VAL65       0.1561
    114  C        -38.5260   70.7300   18.2070 C.2    65  VAL65       0.2260
    115  O        -38.9960   70.7170   19.3180 O.2    65  VAL65      -0.2867
    116  CB       -37.8310   73.1070   18.2180 C.3    65  VAL65       0.0252
    117  CG1      -36.4790   72.6020   18.7090 C.3    65  VAL65       0.0019
    118  CG2      -37.6100   74.3170   17.3210 C.3    65  VAL65       0.0019
    119  N        -30.3010   72.9820   15.9580 N.3    86  PHE86      -0.1241
    120  CA       -31.5710   72.3540   16.3200 C.3    86  PHE86       0.1605
    121  C        -32.1650   71.6100   15.1580 C.2    86  PHE86       0.2264
    122  O        -31.7610   71.8280   13.9920 O.2    86  PHE86      -0.2867
    123  CB       -32.5980   73.3910   16.8130 C.3    86  PHE86       0.0534
    124  CG       -32.9210   74.4320   15.8140 C.ar   86  PHE86      -0.0203
    125  CD1      -32.1020   75.5190   15.6500 C.ar   86  PHE86      -0.0042
    126  CD2      -34.0260   74.3210   15.0160 C.ar   86  PHE86      -0.0042
    127  CE1      -32.4090   76.5300   14.7060 C.ar   86  PHE86      -0.0003
    128  CE2      -34.3330   75.3030   14.0330 C.ar   86  PHE86      -0.0003
    129  CZ       -33.5280   76.4150   13.9000 C.ar   86  PHE86      -0.0000
    130  N        -35.9420   70.9030   13.4590 N.3    88  ALA88      -0.1245
    131  CA       -37.3780   71.2800   13.3850 C.3    88  ALA88       0.1562
    132  C        -38.0010   70.1820   12.5950 C.2    88  ALA88       0.2260
    133  O        -37.4490   69.7820   11.5810 O.2    88  ALA88      -0.2867
    134  CB       -37.5770   72.6240   12.6720 C.3    88  ALA88       0.0290
    135  N        -41.4870   69.1190   10.4130 N.3    90  TYR90      -0.1241
    136  CA       -42.7260   69.5460    9.8010 C.3    90  TYR90       0.1605
    137  C        -43.3680   68.2880    9.3120 C.2    90  TYR90       0.2264
    138  O        -42.6820   67.3530    9.0420 O.2    90  TYR90      -0.2867
    139  CB       -42.4510   70.5230    8.6660 C.3    90  TYR90       0.0534
    140  CG       -41.6760   71.7420    9.1260 C.ar   90  TYR90      -0.0201
    141  CD1      -40.3120   71.6850    9.2800 C.ar   90  TYR90      -0.0009
    142  CD2      -42.3110   72.9370    9.3990 C.ar   90  TYR90      -0.0009
    143  CE1      -39.5710   72.8000    9.6960 C.ar   90  TYR90       0.0417
    144  CE2      -41.6020   74.0510    9.8070 C.ar   90  TYR90       0.0417
    145  CZ       -40.2210   73.9690    9.9600 C.ar   90  TYR90       0.1957
    146  OH       -39.4840   75.0510   10.4140 O.3    90  TYR90      -0.2866
    147  N        -43.9960   73.0720    5.0410 N.3    96  PHE96      -0.1241
    148  CA       -42.8430   73.9190    5.0450 C.3    96  PHE96       0.1605
    149  C        -42.9630   74.9650    3.9790 C.2    96  PHE96       0.2264
    150  O        -42.5940   76.1070    4.1910 O.2    96  PHE96      -0.2867
    151  CB       -41.5860   73.0920    4.7870 C.3    96  PHE96       0.0534
    152  CG       -40.3120   73.8580    4.9780 C.ar   96  PHE96      -0.0203
    153  CD1      -39.7510   74.0010    6.2370 C.ar   96  PHE96      -0.0042
    154  CD2      -39.6990   74.4850    3.9200 C.ar   96  PHE96      -0.0042
    155  CE1      -38.5760   74.7430    6.4180 C.ar   96  PHE96      -0.0003
    156  CE2      -38.5410   75.2390    4.1190 C.ar   96  PHE96      -0.0003
    157  CZ       -37.9850   75.3500    5.3460 C.ar   96  PHE96      -0.0000
    158  N        -43.0040   79.1820    4.2650 N.3    99  ILE99      -0.1245
    159  CA       -42.1250   80.1420    3.6590 C.3    99  ILE99       0.1561
    160  C        -42.8840   81.0420    2.6530 C.2    99  ILE99       0.2260
    161  O        -42.3340   82.0540    2.2100 O.2    99  ILE99      -0.2867
    162  CB       -40.7920   79.5370    3.0810 C.3    99  ILE99       0.0252
    163  CG1      -41.0200   78.8860    1.7550 C.3    99  ILE99       0.0019
    164  CG2      -40.1120   78.6130    4.0450 C.3    99  ILE99       0.0019
    165  CD1      -40.8630   79.8710    0.6210 C.3    99  ILE99       0.0001
    166  N        -44.4350   85.3130    7.5560 N.3   104  TYR104     -0.1241
    167  CA       -43.0990   84.6710    7.5820 C.3   104  TYR104      0.1605
    168  C        -42.1450   85.3960    6.6920 C.2   104  TYR104      0.2264
    169  O        -41.0210   85.6330    7.0840 O.2   104  TYR104     -0.2867
    170  CB       -43.1170   83.2140    7.1610 C.3   104  TYR104      0.0534
    171  CG       -41.7560   82.5640    7.2080 C.ar  104  TYR104     -0.0201
    172  CD1      -41.2810   81.9830    8.3700 C.ar  104  TYR104     -0.0009
    173  CD2      -40.9480   82.5300    6.0880 C.ar  104  TYR104     -0.0009
    174  CE1      -40.0290   81.4110    8.4260 C.ar  104  TYR104      0.0417
    175  CE2      -39.7030   81.9570    6.1180 C.ar  104  TYR104      0.0417
    176  CZ       -39.2390   81.4060    7.2900 C.ar  104  TYR104      0.1957
    177  OH       -37.9900   80.8400    7.3190 O.3   104  TYR104     -0.2866
    178  N        -38.5130   86.6660    8.1510 N.3   108  VAL108     -0.1245
    179  CA       -37.2630   86.1390    7.6370 C.3   108  VAL108      0.1561
    180  C        -36.2960   87.2500    7.2510 C.2   108  VAL108      0.2260
    181  O        -35.1090   87.0380    7.2290 O.2   108  VAL108     -0.2867
    182  CB       -37.4640   85.1000    6.4580 C.3   108  VAL108      0.0252
    183  CG1      -37.7820   85.7860    5.1360 C.3   108  VAL108      0.0019
    184  CG2      -36.2100   84.1920    6.3310 C.3   108  VAL108      0.0019
    185  N        -33.8390   87.0890    9.8190 N.3   111  ARG111     -0.1231
    186  CA       -32.8720   85.9960    9.7070 C.3   111  ARG111      0.1694
    187  C        -31.7920   86.4080    8.7420 C.2   111  ARG111      0.2591
    188  O        -30.6250   86.1850    9.0040 O.2   111  ARG111     -0.2718
    189  CB       -33.5250   84.6750    9.2600 C.3   111  ARG111      0.0321
    190  CG       -32.6640   83.4270    9.5290 C.3   111  ARG111      0.0489
    191  CD       -33.1270   82.2160    8.7330 C.3   111  ARG111      0.2205
    192  NE       -32.1680   81.1020    8.7830 N.pl3 111  ARG111     -0.0865
    193  CZ       -31.1510   80.9190    7.9340 C.cat 111  ARG111      0.5346
    194  NH1      -30.9250   81.7720    6.9460 N.pl3 111  ARG111      0.1354
    195  NH2      -30.3390   79.8790    8.0860 N.pl3 111  ARG111      0.1354
    196  N        -32.1910   87.0570    7.6560 N.am  112  GLN112     -0.1979
    197  CA       -31.2570   87.4710    6.6100 C.3   112  GLN112      0.1601
    198  C        -30.2250   88.4400    7.1550 C.2   112  GLN112      0.2287
    199  O        -29.0570   88.3850    6.7930 O.2   112  GLN112     -0.2864
    200  CB       -32.0120   88.0670    5.4070 C.3   112  GLN112      0.0394
    201  CG       -32.8190   87.0050    4.6580 C.3   112  GLN112      0.0908
    202  CD       -33.6920   87.5340    3.5040 C.2   112  GLN112      0.2608
    203  OE1      -34.2280   88.6530    3.5350 O.2   112  GLN112     -0.2717
    204  NE2      -33.8610   86.6960    2.4860 N.am  112  GLN112     -0.0878
    205  N        -28.8150   74.2440    6.3580 N.3   120  LEU120     -0.1245
    206  CA       -30.1600   73.7270    6.5890 C.3   120  LEU120      0.1561
    207  C        -30.2440   72.4280    5.8400 C.2   120  LEU120      0.2260
    208  O        -30.2850   72.4120    4.6290 O.2   120  LEU120     -0.2867
    209  CB       -31.2320   74.7110    6.1120 C.3   120  LEU120      0.0270
    210  CG       -32.7040   74.3840    6.3950 C.3   120  LEU120      0.0019
    211  CD1      -32.9280   74.2420    7.8440 C.3   120  LEU120      0.0001
    212  CD2      -33.6010   75.5010    5.8250 C.3   120  LEU120      0.0001
@<TRIPOS>BOND
     1    23    24    1
     2    23    22    1
     3    22    21    1
     4    21    20    1
     5    20    17    1
     6    18    19    2
     7    18    17    1
     8    45    44    1
     9    17    16    1
    10    44    46    1
    11    44    43    2
    12    43    42    1
    13    38    39    2
    14    38    37    1
    15    27    28    2
    16    27    26    1
    17    40    37    1
    18    40    41    1
    19    42    41    1
    20    25    26    1
    21    37    36    1
    22    26    29    1
    23    29    30    1
    24    32    30   ar
    25    32    34   ar
    26    30    31   ar
    27    12    11    2
    28    34    35   ar
    29    11    10    1
    30    31    33   ar
    31    35    33   ar
    32    10    13    1
    33    10     9    1
    34    13    14    1
    35     4     3    2
    36    14    15    1
    37   165   163    1
    38     9     3   am
    39     9    15    1
    40     3     2    1
    41     5     2    1
    42     5     6    1
    43     8     6   ar
    44   163   162    1
    45     2     1    1
    46     6     7   ar
    47   161   160    2
    48   204   202   am
    49   160   159    1
    50   162   159    1
    51   162   164    1
    52   202   203    2
    53   202   201    1
    54   159   158    1
    55   154   156   ar
    56   154   152   ar
    57   149   150    2
    58   149   148    1
    59   156   157   ar
    60   208   207    2
    61   201   200    1
    62   151   152    1
    63   151   148    1
    64   152   153   ar
    65   147   148    1
    66   183   182    1
    67   157   155   ar
    68   200   197    1
    69   212   210    1
    70   207   206    1
    71   173   175   ar
    72   173   171   ar
    73   209   210    1
    74   209   206    1
    75   175   176   ar
    76   153   155   ar
    77   184   182    1
    78   205   206    1
    79   210   211    1
    80   182   179    1
    81   197   198    1
    82   197   196    1
    83   168   169    2
    84   168   167    1
    85   199   198    2
    86   194   193    1
    87   170   171    1
    88   170   167    1
    89   171   172   ar
    90   181   180    2
    91   180   179    1
    92   176   177    1
    93   176   174   ar
    94   166   167    1
    95   179   178    1
    96   196   187   am
    97   193   195    1
    98   193   192    2
    99   172   174   ar
   100   139   140    1
   101   139   136    1
   102   191   192    1
   103   191   190    1
   104   187   188    2
   105   187   186    1
   106   138   137    2
   107   140   141   ar
   108   140   142   ar
   109   189   190    1
   110   189   186    1
   111   141   143   ar
   112   137   136    1
   113   142   144   ar
   114   143   145   ar
   115    78    77    1
   116   186   185    1
   117   136   135    1
   118   144   145   ar
   119   145   146    1
   120    75    77   ar
   121    75    73   ar
   122    53    52    2
   123    77    76   ar
   124    73    72   ar
   125    52    54   am
   126    52    51    1
   127    48    47    1
   128    48    51    1
   129    48    49    1
   130    76    74   ar
   131   133   132    2
   132    87    84    1
   133    87    88    1
   134    49    50    2
   135    72    74   ar
   136    72    71    1
   137    93    94    1
   138    94    97    1
   139    94    95    1
   140    96    95    2
   141   108   109    1
   142    98    97    1
   143   132   131    1
   144   134   131    1
   145    84    85    1
   146    84    83    1
   147   109   110    1
   148    71    68    1
   149    95    99   am
   150    86    85    2
   151    64    62   ar
   152    64    65   ar
   153   131   130    1
   154    85    89   am
   155    68    69    1
   156    68    67    1
   157    70    69    2
   158    62    60   ar
   159    66    65    1
   160   129   128   ar
   161   129   127   ar
   162   122   121    2
   163    99   100    1
   164   128   126   ar
   165    65    63   ar
   166    69    79   am
   167   101   102    2
   168   101   100    1
   169   110   111    2
   170   127   125   ar
   171    89    90    1
   172   100   103    1
   173    60    59    1
   174    60    61   ar
   175   126   124   ar
   176    92    91    2
   177   121   120    1
   178    79    80    1
   179    56    55    1
   180    56    59    1
   181    56    57    1
   182    91    90    1
   183    63    61   ar
   184   125   124   ar
   185    58    57    2
   186   124   123    1
   187   119   120    1
   188    80    81    1
   189   103   104    1
   190    82    81    2
   191   120   123    1
   192   112   113    1
   193   118   116    1
   194   104   105    1
   195   113   114    1
   196   113   116    1
   197   114   115    2
   198   116   117    1
   199   105   106   ar
   200   105   107   ar
