@<TRIPOS>MOLECULE
tmp/3hhqJ00.pdb
 94 90 0 0 0
SMALL
GASTEIGER

@<TRIPOS>ATOM
      1  N        -17.1280   -6.4260    1.2000 N.3    42  MET42      -0.1245
      2  CA       -17.8630   -7.3220    0.3220 C.3    42  MET42       0.1570
      3  C        -19.1610   -6.6590   -0.1230 C.2    42  MET42       0.2261
      4  O        -19.9700   -6.2670    0.7050 O.2    42  MET42      -0.2867
      5  CB       -18.0990   -8.6650    1.0350 C.3    42  MET42       0.0387
      6  CG       -17.0380   -9.7650    0.7710 C.3    42  MET42       0.0595
      7  SD       -17.9610  -11.3560    0.5440 S.3    42  MET42      -0.1393
      8  CE       -18.6860  -11.6540    2.1630 C.3    42  MET42       0.0692
      9  N        -14.9180  -11.7770  -12.0800 N.3    59  ILE59      -0.1245
     10  CA       -15.2720  -10.4380  -11.5890 C.3    59  ILE59       0.1561
     11  C        -13.9720   -9.6330  -11.6260 C.2    59  ILE59       0.2260
     12  O        -13.0570   -9.8840  -10.8350 O.2    59  ILE59      -0.2867
     13  CB       -15.8650  -10.4560  -10.1320 C.3    59  ILE59       0.0252
     14  CG1      -17.0680  -11.4390   -9.9890 C.3    59  ILE59       0.0019
     15  CG2      -16.2100   -8.9640   -9.5870 C.3    59  ILE59       0.0019
     16  CD1      -18.3660  -11.0180  -10.8580 C.3    59  ILE59       0.0001
     17  N        -11.0060   -8.4470   -5.4930 N.3    74  GLY74      -0.1210
     18  CA       -10.3960   -9.6610   -4.9830 C.3    74  GLY74       0.1956
     19  C        -11.2400  -10.8540   -5.3720 C.2    74  GLY74       0.2612
     20  O        -12.2860  -10.6780   -6.0040 O.2    74  GLY74      -0.2717
     21  N        -10.7920  -12.0500   -4.9800 N.am   75  ALA75      -0.1965
     22  CA       -11.4520  -13.3170   -5.3400 C.3    75  ALA75       0.1728
     23  C        -11.8180  -13.2740   -6.8580 C.2    75  ALA75       0.2617
     24  O        -10.9630  -13.0750   -7.6740 O.2    75  ALA75      -0.2715
     25  CB       -12.6790  -13.5500   -4.4910 C.3    75  ALA75       0.0334
     26  N        -13.0980  -13.4370   -7.1950 N.am   76  GLY76      -0.1940
     27  CA       -13.5930  -13.1400   -8.5640 C.3    76  GLY76       0.2014
     28  C        -13.6900  -14.2740   -9.5690 C.2    76  GLY76       0.2639
     29  O        -14.0590  -14.0520  -10.7350 O.2    76  GLY76      -0.2714
     30  N        -13.3150  -15.4780   -9.1460 N.am   77  VAL77      -0.1963
     31  CA       -13.5030  -16.7000   -9.9040 C.3    77  VAL77       0.1727
     32  C        -14.8820  -17.2820   -9.5800 C.2    77  VAL77       0.2616
     33  O        -15.1100  -17.9070   -8.5440 O.2    77  VAL77      -0.2715
     34  CB       -12.3850  -17.7260   -9.6260 C.3    77  VAL77       0.0290
     35  CG1      -12.6210  -19.0750  -10.3960 C.3    77  VAL77       0.0023
     36  CG2      -10.9830  -17.1080   -9.9340 C.3    77  VAL77       0.0023
     37  N        -15.8230  -17.0890  -10.4910 N.am   78  VAL78      -0.1977
     38  CA       -17.1980  -17.5820  -10.2340 C.3    78  VAL78       0.1596
     39  C        -17.3430  -18.8210  -11.1200 C.2    78  VAL78       0.2287
     40  O        -17.3900  -18.7160  -12.3380 O.2    78  VAL78      -0.2864
     41  CB       -18.2830  -16.4770  -10.5160 C.3    78  VAL78       0.0276
     42  CG1      -19.7700  -17.0380  -10.2510 C.3    78  VAL78       0.0022
     43  CG2      -18.0340  -15.1760   -9.6660 C.3    78  VAL78       0.0022
     44  N        -21.8550  -22.3150   -9.7770 N.3    82  TYR82      -0.1241
     45  CA       -22.2140  -21.4730   -8.6200 C.3    82  TYR82       0.1605
     46  C        -23.5970  -20.8370   -8.7590 C.2    82  TYR82       0.2264
     47  O        -23.8720  -20.1560   -9.7690 O.2    82  TYR82      -0.2867
     48  CB       -21.1670  -20.4000   -8.3930 C.3    82  TYR82       0.0534
     49  CG       -21.3870  -19.6230   -7.1270 C.ar   82  TYR82      -0.0201
     50  CD1      -21.3580  -20.2600   -5.8850 C.ar   82  TYR82      -0.0009
     51  CD2      -21.6700  -18.2510   -7.1710 C.ar   82  TYR82      -0.0009
     52  CE1      -21.5700  -19.5580   -4.7180 C.ar   82  TYR82       0.0417
     53  CE2      -21.8960  -17.5410   -6.0140 C.ar   82  TYR82       0.0417
     54  CZ       -21.8130  -18.1990   -4.7830 C.ar   82  TYR82       0.1957
     55  OH       -22.0290  -17.4880   -3.6200 O.3    82  TYR82      -0.2866
     56  N        -25.5470  -15.9940   -4.2430 N.3    85  GLU85      -0.1231
     57  CA       -25.3540  -14.5950   -4.5870 C.3    85  GLU85       0.1699
     58  C        -23.8980  -14.3400   -4.8690 C.2    85  GLU85       0.2592
     59  O        -23.0120  -14.6860   -4.0490 O.2    85  GLU85      -0.2718
     60  CB       -25.7910  -13.6730   -3.4480 C.3    85  GLU85       0.0402
     61  CG       -25.6270  -12.2210   -3.8010 C.3    85  GLU85       0.1161
     62  CD       -25.8710  -11.2850   -2.6470 C.2    85  GLU85       0.3649
     63  OE1      -26.3410  -11.7550   -1.6270 O.co2  85  GLU85      -0.2457
     64  OE2      -25.5820  -10.0690   -2.7700 O.co2  85  GLU85      -0.2457
     65  N        -23.6620  -13.6720   -5.9930 N.am   86  VAL86      -0.1966
     66  CA       -22.3300  -13.2330   -6.3420 C.3    86  VAL86       0.1727
     67  C        -22.0240  -11.9050   -5.6610 C.2    86  VAL86       0.2616
     68  O        -22.5320  -10.8540   -6.0690 O.2    86  VAL86      -0.2715
     69  CB       -22.1630  -13.1130   -7.8720 C.3    86  VAL86       0.0290
     70  CG1      -20.7020  -12.6620   -8.2210 C.3    86  VAL86       0.0023
     71  CG2      -22.4370  -14.3920   -8.4870 C.3    86  VAL86       0.0023
     72  N        -21.2170  -11.9440   -4.6150 N.am   87  LYS87      -0.1963
     73  CA       -20.8020  -10.7310   -3.9600 C.3    87  LYS87       0.1728
     74  C        -19.4240  -10.3240   -4.4940 C.2    87  LYS87       0.2616
     75  O        -18.5750  -11.1870   -4.8250 O.2    87  LYS87      -0.2715
     76  CB       -20.7540  -10.9110   -2.4410 C.3    87  LYS87       0.0311
     77  CG       -22.1180  -11.2570   -1.8170 C.3    87  LYS87       0.0038
     78  CD       -21.9540  -11.4810   -0.3640 C.3    87  LYS87       0.0206
     79  CE       -23.3230  -11.6620    0.2560 C.3    87  LYS87       0.1093
     80  NZ       -23.2610  -12.2130    1.6390 N.3    87  LYS87      -0.1314
     81  N        -19.2000   -9.0120   -4.5760 N.am   88  VAL88      -0.1963
     82  CA       -17.9110   -8.4720   -5.0480 C.3    88  VAL88       0.1727
     83  C        -16.9520   -8.1340   -3.8760 C.2    88  VAL88       0.2616
     84  O        -17.2800   -7.2710   -3.0510 O.2    88  VAL88      -0.2715
     85  CB       -18.1670   -7.2360   -5.8990 C.3    88  VAL88       0.0290
     86  CG1      -16.8470   -6.6550   -6.3980 C.3    88  VAL88       0.0023
     87  CG2      -19.0760   -7.6190   -7.1100 C.3    88  VAL88       0.0023
     88  N        -15.7840   -8.7830   -3.8420 N.am   89  VAL89      -0.1977
     89  CA       -14.7210   -8.4600   -2.8600 C.3    89  VAL89       0.1596
     90  C        -13.9450   -7.2730   -3.4250 C.2    89  VAL89       0.2287
     91  O        -13.4240   -7.3660   -4.5330 O.2    89  VAL89      -0.2864
     92  CB       -13.7470   -9.6600   -2.6220 C.3    89  VAL89       0.0276
     93  CG1      -12.5570   -9.2550   -1.6300 C.3    89  VAL89       0.0022
     94  CG2      -14.5330  -10.8690   -2.0430 C.3    89  VAL89       0.0022
@<TRIPOS>BOND
     1    40    39    2
     2     9    10    1
     3    11    10    1
     4    11    12    2
     5    10    13    1
     6    39    38    1
     7    16    14    1
     8    29    28    2
     9    41    42    1
    10    41    38    1
    11    41    43    1
    12    37    38    1
    13    37    32   am
    14    35    34    1
    15    13    14    1
    16    13    15    1
    17    36    34    1
    18    31    34    1
    19    31    32    1
    20    31    30    1
    21    44    45    1
    22    47    46    2
    23    32    33    2
    24    28    30   am
    25    28    27    1
    26    46    45    1
    27    45    48    1
    28    27    26    1
    29    71    69    1
    30    48    49    1
    31    70    69    1
    32    69    66    1
    33    24    23    2
    34    26    23   am
    35    51    49   ar
    36    51    53   ar
    37    49    50   ar
    38    87    85    1
    39    23    22    1
    40    86    85    1
    41    66    65    1
    42    66    67    1
    43    68    67    2
    44    53    54   ar
    45    20    19    2
    46    65    58   am
    47    85    82    1
    48    50    52   ar
    49    67    72   am
    50    17    18    1
    51    19    18    1
    52    19    21   am
    53    22    21    1
    54    22    25    1
    55    82    81    1
    56    82    83    1
    57    58    57    1
    58    58    59    2
    59    75    74    2
    60    54    52   ar
    61    54    55    1
    62    72    73    1
    63    57    56    1
    64    57    60    1
    65    81    74   am
    66    91    90    2
    67    74    73    1
    68    73    76    1
    69    83    88   am
    70    83    84    2
    71    88    89    1
    72    61    60    1
    73    61    62    1
    74    90    89    1
    75    89    92    1
    76    64    62   ar
    77    62    63   ar
    78    92    94    1
    79    92    93    1
    80    76    77    1
    81    77    78    1
    82    78    79    1
    83     3     2    1
    84     3     4    2
    85    79    80    1
    86     2     5    1
    87     2     1    1
    88     7     6    1
    89     7     8    1
    90     6     5    1
