@<TRIPOS>MOLECULE
tmp/3hhuA00.pdb
 143 131 0 0 0
SMALL
GASTEIGER

@<TRIPOS>ATOM
      1  N         -0.6610  -33.8470   -8.6410 N.3    33  LEU33      -0.1245
      2  CA        -1.3190  -33.3200   -7.4460 C.3    33  LEU33       0.1561
      3  C         -2.6340  -34.0500   -7.1560 C.2    33  LEU33       0.2260
      4  O         -2.9430  -34.3390   -6.0010 O.2    33  LEU33      -0.2867
      5  CB        -1.5790  -31.8140   -7.5940 C.3    33  LEU33       0.0270
      6  CG        -0.3220  -30.9470   -7.7500 C.3    33  LEU33       0.0019
      7  CD1       -0.7190  -29.5020   -7.9930 C.3    33  LEU33       0.0001
      8  CD2        0.5420  -31.0620   -6.5010 C.3    33  LEU33       0.0001
      9  N         -1.7240  -37.3210   -5.5780 N.3    36  ASN36      -0.1225
     10  CA        -1.3920  -37.1990   -4.1620 C.3    36  ASN36       0.1785
     11  C         -2.6600  -37.0680   -3.3270 C.2    36  ASN36       0.2597
     12  O         -2.7500  -37.6180   -2.2280 O.2    36  ASN36      -0.2718
     13  CB        -0.4960  -35.9790   -3.9150 C.3    36  ASN36       0.1169
     14  CG         0.9400  -36.2030   -4.3480 C.2    36  ASN36       0.2627
     15  OD1        1.3430  -37.3220   -4.6770 O.2    36  ASN36      -0.2716
     16  ND2        1.7280  -35.1300   -4.3420 N.am   36  ASN36      -0.0877
     17  N         -3.6390  -36.3360   -3.8510 N.am   37  SER37      -0.1952
     18  CA        -4.8900  -36.1250   -3.1320 C.3    37  SER37       0.1924
     19  C         -5.6130  -37.4570   -2.9800 C.2    37  SER37       0.2314
     20  O         -6.1380  -37.7690   -1.9120 O.2    37  SER37      -0.2863
     21  CB        -5.7800  -35.1290   -3.8810 C.3    37  SER37       0.2116
     22  OG        -5.2740  -33.8020   -3.7970 O.3    37  SER37      -0.2180
     23  N         -4.2920  -40.4240   -2.9080 N.3    39  ASP39      -0.1225
     24  CA        -3.5760  -41.2360   -1.9250 C.3    39  ASP39       0.1805
     25  C         -3.9650  -40.8270   -0.5010 C.2    39  ASP39       0.2597
     26  O         -4.1900  -41.6770    0.3580 O.2    39  ASP39      -0.2718
     27  CB        -2.0600  -41.0840   -2.1060 C.3    39  ASP39       0.1424
     28  CG        -1.5520  -41.7120   -3.3950 C.2    39  ASP39       0.3668
     29  OD1       -2.3060  -42.4720   -4.0400 O.co2  39  ASP39      -0.2456
     30  OD2       -0.3890  -41.4420   -3.7640 O.co2  39  ASP39      -0.2456
     31  N         -4.0430  -39.5230   -0.2550 N.am   40  ALA40      -0.1979
     32  CA        -4.3880  -39.0120    1.0720 C.3    40  ALA40       0.1597
     33  C         -5.8160  -39.3940    1.4310 C.2    40  ALA40       0.2287
     34  O         -6.1320  -39.6430    2.5980 O.2    40  ALA40      -0.2864
     35  CB        -4.2320  -37.4910    1.1070 C.3    40  ALA40       0.0319
     36  N         -6.0920  -42.9870    2.4350 N.3    43  LYS43      -0.1245
     37  CA        -5.5750  -43.1920    3.7790 C.3    43  LYS43       0.1561
     38  C         -6.6240  -42.9320    4.8520 C.2    43  LYS43       0.2260
     39  O         -6.7730  -43.7240    5.7790 O.2    43  LYS43      -0.2867
     40  CB        -4.3510  -42.3060    4.0220 C.3    43  LYS43       0.0271
     41  CG        -3.0780  -42.8370    3.3800 C.3    43  LYS43       0.0035
     42  CD        -1.8620  -42.0290    3.8160 C.3    43  LYS43       0.0206
     43  CE        -0.5600  -42.6660    3.3400 C.3    43  LYS43       0.1093
     44  NZ        -0.3520  -42.5230    1.8690 N.3    43  LYS43      -0.1314
     45  N         -8.3020  -31.0590   -1.1950 N.3    78  ASP78      -0.1239
     46  CA        -8.8610  -32.3700   -0.8770 C.3    78  ASP78       0.1674
     47  C         -9.1990  -32.4950    0.6020 C.2    78  ASP78       0.2266
     48  O         -8.7090  -31.7290    1.4350 O.2    78  ASP78      -0.2867
     49  CB        -7.9070  -33.5030   -1.3050 C.3    78  ASP78       0.1410
     50  CG        -6.6400  -33.5720   -0.4650 C.2    78  ASP78       0.3668
     51  OD1       -6.7410  -33.8520    0.7490 O.co2  78  ASP78      -0.2456
     52  OD2       -5.5410  -33.3600   -1.0250 O.co2  78  ASP78      -0.2456
     53  N         -6.3620  -37.2340    4.5190 N.3    81  ILE81      -0.1231
     54  CA        -5.9450  -37.4000    5.9030 C.3    81  ILE81       0.1692
     55  C         -5.1200  -36.2250    6.4300 C.2    81  ILE81       0.2593
     56  O         -4.9470  -36.0740    7.6400 O.2    81  ILE81      -0.2718
     57  CB        -5.1530  -38.7180    6.0760 C.3    81  ILE81       0.0266
     58  CG1       -5.0170  -39.0560    7.5610 C.3    81  ILE81       0.0019
     59  CG2       -3.7870  -38.5990    5.4180 C.3    81  ILE81       0.0020
     60  CD1       -4.4910  -40.4530    7.8110 C.3    81  ILE81       0.0001
     61  N         -4.6210  -35.3860    5.5270 N.am   82  GLY82      -0.1942
     62  CA        -3.8810  -34.2100    5.9560 C.3    82  GLY82       0.2014
     63  C         -2.4760  -34.5380    6.4290 C.2    82  GLY82       0.2638
     64  O         -2.0450  -35.6910    6.3670 O.2    82  GLY82      -0.2714
     65  N         -1.7540  -33.5230    6.8970 N.am   83  MET83      -0.1976
     66  CA        -0.3750  -33.7070    7.3520 C.3    83  MET83       0.1605
     67  C         -0.1000  -32.9460    8.6470 C.2    83  MET83       0.2287
     68  O         -0.5870  -31.8320    8.8370 O.2    83  MET83      -0.2864
     69  CB         0.6070  -33.2360    6.2700 C.3    83  MET83       0.0413
     70  CG         0.6520  -34.1260    5.0330 C.3    83  MET83       0.0598
     71  SD         1.6250  -33.4060    3.6820 S.3    83  MET83      -0.1393
     72  CE         0.6150  -31.9740    3.2610 C.3    83  MET83       0.0692
     73  N          5.4400  -33.7130    9.4520 N.3    87  ASP87      -0.1239
     74  CA         5.4490  -34.2820    8.1130 C.3    87  ASP87       0.1674
     75  C          5.5850  -33.2000    7.0440 C.2    87  ASP87       0.2266
     76  O          6.2170  -33.4230    6.0100 O.2    87  ASP87      -0.2867
     77  CB         4.1830  -35.1090    7.8810 C.3    87  ASP87       0.1410
     78  CG         4.2590  -36.4830    8.5310 C.2    87  ASP87       0.3668
     79  OD1        5.2640  -36.7670    9.2170 O.co2  87  ASP87      -0.2456
     80  OD2        3.3180  -37.2830    8.3560 O.co2  87  ASP87      -0.2456
     81  N          7.0060  -32.7130    3.2400 N.3    92  LEU92      -0.1231
     82  CA         5.5690  -32.8540    3.0120 C.3    92  LEU92       0.1693
     83  C          5.1150  -34.3080    2.8560 C.2    92  LEU92       0.2593
     84  O          4.3070  -34.6330    1.9810 O.2    92  LEU92      -0.2718
     85  CB         5.1570  -32.0340    1.7860 C.3    92  LEU92       0.0284
     86  CG         5.6850  -30.5930    1.8160 C.3    92  LEU92       0.0019
     87  CD1        6.9830  -30.5190    1.0250 C.3    92  LEU92       0.0001
     88  CD2        4.6530  -29.6370    1.2410 C.3    92  LEU92       0.0001
     89  N          5.6440  -35.1790    3.7090 N.am   93  GLY93      -0.1942
     90  CA         5.1610  -36.5450    3.7690 C.3    93  GLY93       0.2014
     91  C          5.6910  -37.4530    2.6770 C.2    93  GLY93       0.2640
     92  O          5.2500  -38.5980    2.5590 O.2    93  GLY93      -0.2714
     93  N          6.6310  -36.9590    1.8770 N.am   94  THR94      -0.1936
     94  CA         7.1830  -37.7590    0.7870 C.3    94  THR94       0.2028
     95  C          8.5200  -38.3890    1.1730 C.2    94  THR94       0.2642
     96  O          9.1870  -37.9370    2.1050 O.2    94  THR94      -0.2714
     97  CB         7.4020  -36.9140   -0.4930 C.3    94  THR94       0.1808
     98  OG1        8.4560  -35.9680   -0.2700 O.3    94  THR94      -0.2208
     99  CG2        6.1240  -36.1700   -0.8720 C.3    94  THR94       0.0379
    100  N          8.8990  -39.4400    0.4510 N.am   95  ILE95      -0.1977
    101  CA        10.2310  -40.0190    0.5780 C.3    95  ILE95       0.1596
    102  C         11.1710  -39.3080   -0.3920 C.2    95  ILE95       0.2287
    103  O         11.7520  -39.9280   -1.2860 O.2    95  ILE95      -0.2864
    104  CB        10.2160  -41.5350    0.2630 C.3    95  ILE95       0.0276
    105  CG1        9.6120  -41.7810   -1.1210 C.3    95  ILE95       0.0022
    106  CG2        9.4060  -42.2780    1.3190 C.3    95  ILE95       0.0022
    107  CD1        9.7590  -43.2110   -1.6060 C.3    95  ILE95       0.0001
    108  N          7.5950  -40.8820   -6.0690 N.3   120  GLY120     -0.1225
    109  CA         7.0930  -40.3180   -4.8300 C.3   120  GLY120      0.1811
    110  C          7.2920  -38.8220   -4.6890 C.2   120  GLY120      0.2280
    111  O          6.9450  -38.2470   -3.6570 O.2   120  GLY120     -0.2866
    112  N          4.9210  -34.0590   -6.3290 N.3   123  PHE123     -0.1241
    113  CA         4.5280  -32.7330   -5.8560 C.3   123  PHE123      0.1605
    114  C          5.3740  -31.6240   -6.4790 C.2   123  PHE123      0.2264
    115  O          4.8530  -30.5660   -6.8410 O.2   123  PHE123     -0.2867
    116  CB         4.6390  -32.6370   -4.3280 C.3   123  PHE123      0.0534
    117  CG         4.6320  -31.2170   -3.8140 C.ar  123  PHE123     -0.0203
    118  CD1        3.4640  -30.4680   -3.8240 C.ar  123  PHE123     -0.0042
    119  CD2        5.7970  -30.6260   -3.3500 C.ar  123  PHE123     -0.0042
    120  CE1        3.4550  -29.1530   -3.3850 C.ar  123  PHE123     -0.0003
    121  CE2        5.7960  -29.3090   -2.9090 C.ar  123  PHE123     -0.0003
    122  CZ         4.6230  -28.5710   -2.9270 C.ar  123  PHE123     -0.0000
    123  N          1.1130  -24.5680    0.6630 N.3   135  VAL135     -0.1245
    124  CA         0.4090  -25.7820    1.0610 C.3   135  VAL135      0.1561
    125  C         -0.1930  -25.6220    2.4520 C.2   135  VAL135      0.2260
    126  O          0.5300  -25.5390    3.4440 O.2   135  VAL135     -0.2867
    127  CB         1.3500  -27.0040    1.0740 C.3   135  VAL135      0.0252
    128  CG1        0.5890  -28.2330    1.5400 C.3   135  VAL135      0.0019
    129  CG2        1.9290  -27.2310   -0.3180 C.3   135  VAL135      0.0019
    130  N         -5.9320  -31.1390    2.7810 N.3   169  THR169     -0.1218
    131  CA        -4.8300  -30.3400    2.2680 C.3   169  THR169      0.1862
    132  C         -5.2670  -29.4660    1.0980 C.2   169  THR169      0.2287
    133  O         -6.0590  -29.8870    0.2490 O.2   169  THR169     -0.2866
    134  CB        -3.6640  -31.2470    1.8230 C.3   169  THR169      0.1770
    135  OG1       -3.1860  -31.9890    2.9540 O.3   169  THR169     -0.2211
    136  CG2       -2.5200  -30.4120    1.2460 C.3   169  THR169      0.0375
    137  N         -3.5310  -27.1070   -1.9130 N.3   171  VAL171     -0.1245
    138  CA        -2.3300  -26.6690   -2.6210 C.3   171  VAL171      0.1561
    139  C         -2.6450  -25.4710   -3.5090 C.2   171  VAL171      0.2260
    140  O         -3.4200  -25.5750   -4.4630 O.2   171  VAL171     -0.2867
    141  CB        -1.7520  -27.7960   -3.4970 C.3   171  VAL171      0.0252
    142  CG1       -0.4980  -27.3170   -4.2160 C.3   171  VAL171      0.0019
    143  CG2       -1.4440  -29.0090   -2.6400 C.3   171  VAL171      0.0019
@<TRIPOS>BOND
     1     1     2    1
     2     7     6    1
     3     6     5    1
     4     6     8    1
     5     5     2    1
     6     2     3    1
     7     3     4    2
     8   115   114    2
     9   114   113    1
    10   112   113    1
    11   108   109    1
    12   113   116    1
    13     9    10    1
    14   109   110    1
    15   110   111    2
    16    15    14    2
    17   140   139    2
    18    14    16   am
    19    14    13    1
    20   116   117    1
    21   142   141    1
    22    10    13    1
    23    10    11    1
    24    29    28   ar
    25    21    22    1
    26    21    18    1
    27    17    11   am
    28    17    18    1
    29   118   117   ar
    30   118   120   ar
    31   117   119   ar
    32    30    28   ar
    33   139   138    1
    34   141   143    1
    35   141   138    1
    36    28    27    1
    37   120   122   ar
    38   119   121   ar
    39    11    12    2
    40    18    19    1
    41    19    20    2
    42   122   121   ar
    43    23    24    1
    44   138   137    1
    45    27    24    1
    46    24    25    1
    47   107   105    1
    48    49    46    1
    49    49    50    1
    50   103   102    2
    51    45    46    1
    52   105   104    1
    53    52    50   ar
    54    46    47    1
    55    99    97    1
    56    25    31   am
    57    25    26    2
    58    97    98    1
    59    97    94    1
    60    50    51   ar
    61   102   101    1
    62   129   127    1
    63    31    32    1
    64   133   132    2
    65   104   101    1
    66   104   106    1
    67   100   101    1
    68   100    95   am
    69    47    48    2
    70   123   124    1
    71    94    95    1
    72    94    93    1
    73    87    86    1
    74   124   127    1
    75   124   125    1
    76    32    35    1
    77    32    33    1
    78   127   128    1
    79   132   131    1
    80    95    96    2
    81    88    86    1
    82   136   134    1
    83    33    34    2
    84    85    86    1
    85    85    82    1
    86   134   131    1
    87   134   135    1
    88    44    43    1
    89    93    91   am
    90    84    83    2
    91   131   130    1
    92    36    37    1
    93   125   126    2
    94    92    91    2
    95    91    90    1
    96    83    82    1
    97    83    89   am
    98    82    81    1
    99    72    71    1
   100    43    42    1
   101    41    42    1
   102    41    40    1
   103    71    70    1
   104    89    90    1
   105    37    40    1
   106    37    38    1
   107    53    54    1
   108    38    39    2
   109    70    69    1
   110    59    57    1
   111    61    62    1
   112    61    55   am
   113    54    57    1
   114    54    55    1
   115    62    63    1
   116    76    75    2
   117    57    58    1
   118    69    66    1
   119    64    63    2
   120    63    65   am
   121    55    56    2
   122    65    66    1
   123    75    74    1
   124    66    67    1
   125    58    60    1
   126    77    74    1
   127    77    78    1
   128    74    73    1
   129    80    78   ar
   130    78    79   ar
   131    67    68    2
