@<TRIPOS>MOLECULE
tmp/3hhxA01.pdb
 123 117 0 0 0
SMALL
GASTEIGER

@<TRIPOS>ATOM
      1  N          1.2180   -4.7340   27.1400 N.3    53  LEU53      -0.1245
      2  CA         0.4040   -4.0950   26.1260 C.3    53  LEU53       0.1561
      3  C         -0.1960   -2.7460   26.5590 C.2    53  LEU53       0.2260
      4  O         -0.0340   -1.7380   25.8740 O.2    53  LEU53      -0.2867
      5  CB        -0.7350   -5.0330   25.6550 C.3    53  LEU53       0.0270
      6  CG        -1.5340   -4.4760   24.4660 C.3    53  LEU53       0.0019
      7  CD1       -0.6300   -4.1650   23.3060 C.3    53  LEU53       0.0001
      8  CD2       -2.7030   -5.4190   24.0160 C.3    53  LEU53       0.0001
      9  N          1.3030    0.8760   25.1260 N.3    57  VAL57      -0.1245
     10  CA         0.3960    1.6720   24.2820 C.3    57  VAL57       0.1561
     11  C          0.0850    3.0240   24.9570 C.2    57  VAL57       0.2260
     12  O          0.2140    4.1150   24.3690 O.2    57  VAL57      -0.2867
     13  CB        -0.9340    0.9220   23.9560 C.3    57  VAL57       0.0252
     14  CG1       -1.8830    1.8600   23.2340 C.3    57  VAL57       0.0019
     15  CG2       -0.6730   -0.3000   23.1170 C.3    57  VAL57       0.0019
     16  N          8.8960    4.5920   21.5060 N.3    78  ILE78      -0.1245
     17  CA         8.6670    3.5450   22.5080 C.3    78  ILE78       0.1561
     18  C          9.2540    2.2100   22.0030 C.2    78  ILE78       0.2260
     19  O          9.3940    2.0440   20.8150 O.2    78  ILE78      -0.2867
     20  CB         7.1650    3.4250   22.8500 C.3    78  ILE78       0.0252
     21  CG1        6.3640    2.8340   21.6900 C.3    78  ILE78       0.0019
     22  CG2        6.6140    4.7970   23.2370 C.3    78  ILE78       0.0019
     23  CD1        4.8160    2.7310   21.9810 C.3    78  ILE78       0.0001
     24  N          7.7340   -0.7210   22.7910 N.3    80  GLY80      -0.1210
     25  CA         6.6020   -1.6390   22.5810 C.3    80  GLY80       0.1940
     26  C          6.8650   -3.0040   23.2370 C.2    80  GLY80       0.2454
     27  O          7.9820   -3.2680   23.6590 O.2    80  GLY80      -0.2732
     28  N          5.8460   -3.8810   23.3050 N.am   81  PRO81      -0.2717
     29  CA         5.9000   -5.1590   24.0400 C.3    81  PRO81       0.1535
     30  C          6.6680   -6.2840   23.3520 C.2    81  PRO81       0.2598
     31  O          6.9530   -7.3210   24.0050 O.2    81  PRO81      -0.2715
     32  CB         4.4220   -5.5620   24.1750 C.3    81  PRO81       0.0310
     33  CG         3.6010   -4.4260   23.4570 C.3    81  PRO81       0.0237
     34  CD         4.5530   -3.6820   22.6170 C.3    81  PRO81       0.0939
     35  N          7.0510   -6.0950   22.0830 N.am   82  TYR82      -0.1974
     36  CA         7.4690   -7.2310   21.2450 C.3    82  TYR82       0.1639
     37  C          8.9430   -7.3510   20.8770 C.2    82  TYR82       0.2290
     38  O          9.2670   -8.0060   19.8880 O.2    82  TYR82      -0.2864
     39  CB         6.6850   -7.2350   19.9210 C.3    82  TYR82       0.0560
     40  CG         5.2030   -7.2060   20.1040 C.ar   82  TYR82      -0.0198
     41  CD1        4.4970   -6.0170   20.0120 C.ar   82  TYR82      -0.0009
     42  CD2        4.5100   -8.3710   20.4050 C.ar   82  TYR82      -0.0009
     43  CE1        3.1180   -6.0060   20.1700 C.ar   82  TYR82       0.0417
     44  CE2        3.1620   -8.3600   20.5740 C.ar   82  TYR82       0.0417
     45  CZ         2.4720   -7.1800   20.4540 C.ar   82  TYR82       0.1957
     46  OH         1.1380   -7.2070   20.6430 O.3    82  TYR82      -0.2866
     47  N          3.6650  -10.6320   15.0700 N.3   138  TYR138     -0.1241
     48  CA         5.0800  -10.5730   15.3980 C.3   138  TYR138      0.1605
     49  C          5.5230  -11.9720   15.8020 C.2   138  TYR138      0.2264
     50  O          4.8340  -12.6510   16.5810 O.2   138  TYR138     -0.2867
     51  CB         5.3440   -9.6660   16.5950 C.3   138  TYR138      0.0534
     52  CG         5.3290   -8.1760   16.3500 C.ar  138  TYR138     -0.0201
     53  CD1        4.1340   -7.4770   16.3580 C.ar  138  TYR138     -0.0009
     54  CD2        6.5140   -7.4580   16.1740 C.ar  138  TYR138     -0.0009
     55  CE1        4.1190   -6.0990   16.1820 C.ar  138  TYR138      0.0417
     56  CE2        6.5030   -6.0550   15.9790 C.ar  138  TYR138      0.0417
     57  CZ         5.2950   -5.4150   15.9890 C.ar  138  TYR138      0.1957
     58  OH         5.2270   -4.0720   15.8080 O.3   138  TYR138     -0.2866
     59  N         -1.0120   -1.6510   11.6570 N.3   172  TYR172     -0.1241
     60  CA        -1.1260   -2.7900   12.5180 C.3   172  TYR172      0.1605
     61  C         -2.1850   -2.5240   13.6290 C.2   172  TYR172      0.2264
     62  O         -2.2030   -1.4560   14.2800 O.2   172  TYR172     -0.2867
     63  CB         0.2960   -3.1580   13.0080 C.3   172  TYR172      0.0534
     64  CG         0.3690   -3.8190   14.3500 C.ar  172  TYR172     -0.0201
     65  CD1        0.6050   -5.1930   14.4590 C.ar  172  TYR172     -0.0009
     66  CD2        0.2200   -3.0660   15.5240 C.ar  172  TYR172     -0.0009
     67  CE1        0.6630   -5.8010   15.7030 C.ar  172  TYR172      0.0417
     68  CE2        0.2480   -3.6590   16.7570 C.ar  172  TYR172      0.0417
     69  CZ         0.4940   -5.0340   16.8460 C.ar  172  TYR172      0.1957
     70  OH         0.5450   -5.6350   18.0890 O.3   172  TYR172     -0.2866
     71  N         -3.5450   -3.4700   17.2570 N.3   174  ILE174     -0.1245
     72  CA        -3.3130   -4.0970   18.5600 C.3   174  ILE174      0.1561
     73  C         -4.4060   -5.1390   18.8910 C.2   174  ILE174      0.2260
     74  O         -5.5090   -5.0650   18.3710 O.2   174  ILE174     -0.2867
     75  CB        -3.1060   -3.0140   19.7300 C.3   174  ILE174      0.0252
     76  CG1       -4.3940   -2.3670   20.1830 C.3   174  ILE174      0.0019
     77  CG2       -2.1190   -1.9180   19.3020 C.3   174  ILE174      0.0019
     78  CD1       -4.2690   -1.5830   21.5240 C.3   174  ILE174      0.0001
     79  N         -2.2490    1.1100   15.0610 N.3   193  ARG193     -0.1245
     80  CA        -0.9930    1.8260   14.9460 C.3   193  ARG193      0.1563
     81  C         -0.6230    1.9190   13.4600 C.2   193  ARG193      0.2260
     82  O         -0.8680    0.9660   12.6990 O.2   193  ARG193     -0.2867
     83  CB         0.1250    1.0890   15.6360 C.3   193  ARG193      0.0307
     84  CG        -0.0660    0.7500   17.0920 C.3   193  ARG193      0.0489
     85  CD         1.3220    0.6210   17.6980 C.3   193  ARG193      0.2205
     86  NE         1.9420    1.9290   17.5270 N.pl3 193  ARG193     -0.0865
     87  CZ         3.2430    2.1330   17.3380 C.cat 193  ARG193      0.5346
     88  NH1        4.0900    1.1120   17.2960 N.pl3 193  ARG193      0.1354
     89  NH2        3.6920    3.3750   17.1500 N.pl3 193  ARG193      0.1354
     90  N          4.9420    0.3480   10.7390 N.3   196  HIS196     -0.1241
     91  CA         6.2150    0.7830   11.3440 C.3   196  HIS196      0.1621
     92  C          7.2690   -0.2820   11.4160 C.2   196  HIS196      0.2264
     93  O          6.9660   -1.4620   11.4810 O.2   196  HIS196     -0.2867
     94  CB         5.9710    1.3710   12.7440 C.3   196  HIS196      0.0745
     95  CG         5.3710    0.3830   13.7140 C.ar  196  HIS196      0.0817
     96  ND1        4.0240    0.0750   13.7490 N.ar  196  HIS196     -0.2268
     97  CD2        5.9500   -0.3760   14.6700 C.ar  196  HIS196      0.1154
     98  CE1        3.7980   -0.8370   14.6800 C.ar  196  HIS196      0.1986
     99  NE2        4.9600   -1.1290   15.2500 N.ar  196  HIS196     -0.2212
    100  N         10.6260   -1.2590   13.8760 N.3   198  HIS198     -0.1241
    101  CA        11.1630   -1.0860   15.2380 C.3   198  HIS198      0.1621
    102  C         12.6720   -1.2850   15.1680 C.2   198  HIS198      0.2264
    103  O         13.1190   -2.2850   14.5810 O.2   198  HIS198     -0.2867
    104  CB        10.7120   -2.2350   16.1080 C.3   198  HIS198      0.0745
    105  CG         9.3760   -2.0770   16.7140 C.ar  198  HIS198      0.0817
    106  ND1        9.1730   -1.3210   17.8380 N.ar  198  HIS198     -0.2268
    107  CD2        8.1670   -2.5860   16.3760 C.ar  198  HIS198      0.1154
    108  CE1        7.8980   -1.3700   18.1780 C.ar  198  HIS198      0.1986
    109  NE2        7.2620   -2.1280   17.3070 N.ar  198  HIS198     -0.2212
    110  N         11.5040    4.0000   16.2290 N.3   212  GLN212     -0.1245
    111  CA        10.5490    3.4520   15.2740 C.3   212  GLN212      0.1566
    112  C         10.5290    4.3040   14.0200 C.2   212  GLN212      0.2260
    113  O         10.5810    5.5330   14.0830 O.2   212  GLN212     -0.2867
    114  CB         9.1420    3.3710   15.8630 C.3   212  GLN212      0.0367
    115  CG         8.9690    2.2400   16.9090 C.3   212  GLN212      0.0905
    116  CD         7.5550    2.1580   17.4450 C.2   212  GLN212      0.2608
    117  OE1        7.3030    2.1430   18.6880 O.2   212  GLN212     -0.2717
    118  NE2        6.6210    2.1140   16.5340 N.am  212  GLN212     -0.0878
    119  N         -0.8390    4.3750   20.2070 N.3   226  ALA226     -0.1245
    120  CA         0.2670    4.3830   21.1470 C.3   226  ALA226      0.1562
    121  C          0.9000    5.7760   21.2890 C.2   226  ALA226      0.2260
    122  O          1.7970    5.9450   22.1190 O.2   226  ALA226     -0.2867
    123  CB         1.3090    3.3460   20.7530 C.3   226  ALA226      0.0290
@<TRIPOS>BOND
     1    90    91    1
     2    91    92    1
     3    91    94    1
     4    92    93    2
     5    59    60    1
     6    60    63    1
     7    60    61    1
     8    82    81    2
     9    94    95    1
    10    63    64    1
    11    81    80    1
    12    61    62    2
    13    95    96   ar
    14    95    97   ar
    15    96    98   ar
    16   100   101    1
    17   112   113    2
    18   112   111    1
    19    64    65   ar
    20    64    66   ar
    21    65    67   ar
    22   103   102    2
    23    97    99   ar
    24    98    99   ar
    25    80    79    1
    26    80    83    1
    27    47    48    1
    28   102   101    1
    29   101   104    1
    30   111   114    1
    31   111   110    1
    32    48    49    1
    33    48    51    1
    34    66    68   ar
    35    83    84    1
    36    67    69   ar
    37    49    50    2
    38    58    57    1
    39   114   115    1
    40    56    57   ar
    41    56    54   ar
    42    57    55   ar
    43   104   105    1
    44    54    52   ar
    45    55    53   ar
    46    52    53   ar
    47    52    51    1
    48   107   105   ar
    49   107   109   ar
    50   118   116   am
    51   105   106   ar
    52    68    69   ar
    53    69    70    1
    54   115   116    1
    55    84    85    1
    56    89    87    1
    57    71    72    1
    58    88    87    1
    59   109   108   ar
    60    87    86    2
    61   116   117    2
    62    86    85    1
    63   106   108   ar
    64    74    73    2
    65    72    73    1
    66    72    75    1
    67    77    75    1
    68    75    76    1
    69    38    37    2
    70    39    40    1
    71    39    36    1
    72    41    40   ar
    73    41    43   ar
    74    40    42   ar
    75    43    45   ar
    76    76    78    1
    77   119   120    1
    78    42    44   ar
    79    45    44   ar
    80    45    46    1
    81   123   120    1
    82    19    18    2
    83    37    36    1
    84   120   121    1
    85    36    35    1
    86   121   122    2
    87    16    17    1
    88    21    23    1
    89    21    20    1
    90    18    17    1
    91    35    30   am
    92    17    20    1
    93    25    24    1
    94    25    26    1
    95    34    28    1
    96    34    33    1
    97    20    22    1
    98    15    13    1
    99    14    13    1
   100    26    28   am
   101    26    27    2
   102    28    29    1
   103     7     6    1
   104    30    31    2
   105    30    29    1
   106    33    32    1
   107    13    10    1
   108     8     6    1
   109    29    32    1
   110    10    11    1
   111    10     9    1
   112    12    11    2
   113     6     5    1
   114     5     2    1
   115     4     3    2
   116     2     3    1
   117     2     1    1
