@<TRIPOS>MOLECULE
tmp/3hhyA01.pdb
 122 117 0 0 0
SMALL
GASTEIGER

@<TRIPOS>ATOM
      1  N          0.8520   -4.7890   26.9010 N.3    53  LEU53      -0.1245
      2  CA         0.1650   -4.1540   25.8080 C.3    53  LEU53       0.1561
      3  C         -0.4460   -2.8260   26.2400 C.2    53  LEU53       0.2260
      4  O         -0.2280   -1.7610   25.6190 O.2    53  LEU53      -0.2867
      5  CB        -0.9480   -5.0720   25.2810 C.3    53  LEU53       0.0270
      6  CG        -1.8220   -4.4050   24.2330 C.3    53  LEU53       0.0019
      7  CD1       -1.0090   -4.1820   22.9740 C.3    53  LEU53       0.0001
      8  CD2       -2.9630   -5.4080   24.0090 C.3    53  LEU53       0.0001
      9  N          2.2520   -0.1700   27.2160 N.3    56  ASP56      -0.1225
     10  CA         3.0540    0.2830   26.0590 C.3    56  ASP56       0.1805
     11  C          2.2360    1.1440   25.1030 C.2    56  ASP56       0.2597
     12  O          2.7820    2.0480   24.4670 O.2    56  ASP56      -0.2718
     13  CB         3.7380   -0.8670   25.3280 C.3    56  ASP56       0.1424
     14  CG         4.8290   -1.5590   26.1720 C.2    56  ASP56       0.3668
     15  OD1        5.1540   -1.1100   27.2840 O.co2  56  ASP56      -0.2456
     16  OD2        5.3820   -2.5640   25.6950 O.co2  56  ASP56      -0.2456
     17  N          0.9280    0.8640   24.9950 N.am   57  VAL57      -0.1980
     18  CA         0.0690    1.6360   24.1050 C.3    57  VAL57       0.1595
     19  C         -0.2870    2.9690   24.7340 C.2    57  VAL57       0.2287
     20  O         -0.2020    4.0110   24.0830 O.2    57  VAL57      -0.2864
     21  CB        -1.2310    0.8720   23.7440 C.3    57  VAL57       0.0276
     22  CG1       -2.2100    1.7690   23.0090 C.3    57  VAL57       0.0022
     23  CG2       -0.9700   -0.3740   22.9170 C.3    57  VAL57       0.0022
     24  N          8.6270    4.6450   21.3530 N.3    78  ILE78      -0.1245
     25  CA         8.3700    3.5130   22.2500 C.3    78  ILE78       0.1561
     26  C          8.9570    2.1940   21.7250 C.2    78  ILE78       0.2260
     27  O          9.0910    2.0080   20.5040 O.2    78  ILE78      -0.2867
     28  CB         6.8620    3.3750   22.5710 C.3    78  ILE78       0.0252
     29  CG1        6.0170    2.9240   21.3650 C.3    78  ILE78       0.0019
     30  CG2        6.3260    4.6870   23.1450 C.3    78  ILE78       0.0019
     31  CD1        4.5020    2.7070   21.7300 C.3    78  ILE78       0.0001
     32  N          7.4140   -0.5770   22.5300 N.3    80  GLY80      -0.1210
     33  CA         6.2320   -1.4360   22.4260 C.3    80  GLY80       0.1940
     34  C          6.5160   -2.8300   22.9490 C.2    80  GLY80       0.2454
     35  O          7.6030   -3.1210   23.4630 O.2    80  GLY80      -0.2732
     36  N          5.5260   -3.7160   22.8520 N.am   81  PRO81      -0.2717
     37  CA         5.6240   -4.9760   23.6110 C.3    81  PRO81       0.1535
     38  C          6.2710   -6.1710   22.9210 C.2    81  PRO81       0.2598
     39  O          6.3750   -7.2450   23.5440 O.2    81  PRO81      -0.2715
     40  CB         4.1640   -5.2830   23.9350 C.3    81  PRO81       0.0310
     41  CG         3.4200   -4.7400   22.7540 C.3    81  PRO81       0.0237
     42  CD         4.2300   -3.5870   22.1670 C.3    81  PRO81       0.0939
     43  N          6.7210   -5.9870   21.6710 N.am   82  TYR82      -0.1974
     44  CA         7.1230   -7.0850   20.7990 C.3    82  TYR82       0.1639
     45  C          8.6150   -7.2620   20.5430 C.2    82  TYR82       0.2290
     46  O          9.0190   -8.0510   19.6930 O.2    82  TYR82      -0.2864
     47  CB         6.3520   -7.0210   19.4680 C.3    82  TYR82       0.0560
     48  CG         4.8630   -7.1010   19.5990 C.ar   82  TYR82      -0.0198
     49  CD1        4.0500   -6.0370   19.2110 C.ar   82  TYR82      -0.0009
     50  CD2        4.2610   -8.2250   20.1240 C.ar   82  TYR82      -0.0009
     51  CE1        2.7020   -6.0960   19.3380 C.ar   82  TYR82       0.0417
     52  CE2        2.8850   -8.3130   20.2100 C.ar   82  TYR82       0.0417
     53  CZ         2.1220   -7.2490   19.8150 C.ar   82  TYR82       0.1957
     54  OH         0.7600   -7.3310   19.9260 O.3    82  TYR82      -0.2866
     55  N          3.3540  -10.4730   14.6160 N.3   138  TYR138     -0.1241
     56  CA         4.7730  -10.4790   14.9800 C.3   138  TYR138      0.1605
     57  C          5.2330  -11.9140   15.2740 C.2   138  TYR138      0.2264
     58  O          4.5650  -12.6460   16.0210 O.2   138  TYR138     -0.2867
     59  CB         5.0040   -9.6330   16.2370 C.3   138  TYR138      0.0534
     60  CG         5.0080   -8.1360   16.0290 C.ar  138  TYR138     -0.0201
     61  CD1        3.8210   -7.4120   16.0550 C.ar  138  TYR138     -0.0009
     62  CD2        6.2000   -7.4530   15.8350 C.ar  138  TYR138     -0.0009
     63  CE1        3.8150   -6.0450   15.8820 C.ar  138  TYR138      0.0417
     64  CE2        6.2190   -6.0490   15.6840 C.ar  138  TYR138      0.0417
     65  CZ         5.0330   -5.3830   15.7010 C.ar  138  TYR138      0.1957
     66  OH         5.0440   -4.0540   15.5080 O.3   138  TYR138     -0.2866
     67  N         -0.9560   -1.8210   11.6610 N.3   172  TYR172     -0.1241
     68  CA        -1.0090   -2.8480   12.6830 C.3   172  TYR172      0.1605
     69  C         -2.1830   -2.6280   13.6450 C.2   172  TYR172      0.2264
     70  O         -2.2760   -1.6110   14.3360 O.2   172  TYR172     -0.2867
     71  CB         0.3200   -2.9480   13.4450 C.3   172  TYR172      0.0534
     72  CG         0.2540   -3.9590   14.5340 C.ar  172  TYR172     -0.0201
     73  CD1        0.0300   -3.5640   15.8410 C.ar  172  TYR172     -0.0009
     74  CD2        0.3540   -5.3250   14.2490 C.ar  172  TYR172     -0.0009
     75  CE1       -0.0640   -4.4720   16.8390 C.ar  172  TYR172      0.0417
     76  CE2        0.2470   -6.2710   15.2660 C.ar  172  TYR172      0.0417
     77  CZ         0.0390   -5.8240   16.5620 C.ar  172  TYR172      0.1957
     78  OH        -0.0780   -6.7210   17.5910 O.3   172  TYR172     -0.2866
     79  N         -4.0330   -3.5170   16.9690 N.3   174  ILE174     -0.1245
     80  CA        -3.6670   -4.1110   18.2310 C.3   174  ILE174      0.1561
     81  C         -4.7090   -5.1730   18.6300 C.2   174  ILE174      0.2260
     82  O         -5.8410   -5.1400   18.1610 O.2   174  ILE174     -0.2867
     83  CB        -3.4210   -3.0440   19.3090 C.3   174  ILE174      0.0252
     84  CG1       -4.7200   -2.4560   19.8090 C.3   174  ILE174      0.0019
     85  CG2       -2.4290   -1.9840   18.7890 C.3   174  ILE174      0.0019
     86  CD1       -4.5390   -1.6790   21.0930 C.3   174  ILE174      0.0001
     87  N         -2.4260    1.1340   14.7920 N.3   193  ARG193     -0.1245
     88  CA        -1.1800    1.8580   14.6620 C.3   193  ARG193      0.1563
     89  C         -0.8580    2.0070   13.1860 C.2   193  ARG193      0.2260
     90  O         -1.1630    1.1410   12.3890 O.2   193  ARG193     -0.2867
     91  CB        -0.0540    1.0580   15.2960 C.3   193  ARG193      0.0307
     92  CG        -0.2260    0.8960   16.8120 C.3   193  ARG193      0.0489
     93  CD         1.1350    0.8900   17.5660 C.3   193  ARG193      0.2205
     94  NE         1.8430    2.1630   17.3940 N.pl3 193  ARG193     -0.0865
     95  CZ         3.0990    2.3450   17.0130 C.cat 193  ARG193      0.5346
     96  NH1        3.9560    1.3220   16.9130 N.pl3 193  ARG193      0.1354
     97  NH2        3.5250    3.5910   16.8000 N.pl3 193  ARG193      0.1354
     98  N          4.8240    0.4520   10.5840 N.3   196  HIS196     -0.1241
     99  CA         6.0650    0.8740   11.2900 C.3   196  HIS196      0.1621
    100  C          7.1400   -0.2050   11.3740 C.2   196  HIS196      0.2264
    101  O          6.8610   -1.3900   11.5450 O.2   196  HIS196     -0.2867
    102  CB         5.7510    1.4400   12.6830 C.3   196  HIS196      0.0745
    103  CG         5.1260    0.4450   13.6080 C.ar  196  HIS196      0.0817
    104  ND1        3.7930    0.1170   13.5340 N.ar  196  HIS196     -0.2268
    105  CD2        5.6430   -0.3190   14.6060 C.ar  196  HIS196      0.1154
    106  CE1        3.5020   -0.7850   14.4420 C.ar  196  HIS196      0.1986
    107  NE2        4.6040   -1.0500   15.1280 N.ar  196  HIS196     -0.2212
    108  N         10.3160   -1.2000   13.8300 N.3   198  HIS198     -0.1241
    109  CA        10.9560   -1.0510   15.1600 C.3   198  HIS198      0.1621
    110  C         12.4680   -1.2320   15.0160 C.2   198  HIS198      0.2264
    111  O         12.9050   -2.2030   14.4200 O.2   198  HIS198     -0.2867
    112  CB        10.4590   -2.1350   16.1290 C.3   198  HIS198      0.0745
    113  CG         9.0450   -1.9800   16.6050 C.ar  198  HIS198      0.0817
    114  ND1        8.6800   -1.1440   17.6400 N.ar  198  HIS198     -0.2268
    115  CD2        7.9070   -2.5870   16.1840 C.ar  198  HIS198      0.1154
    116  CE1        7.3710   -1.2380   17.8360 C.ar  198  HIS198      0.1986
    117  NE2        6.8850   -2.1410   16.9930 N.ar  198  HIS198     -0.2212
    118  N         -1.1910    4.4610   19.9510 N.3   226  ALA226     -0.1245
    119  CA        -0.1340    4.4750   20.9600 C.3   226  ALA226      0.1562
    120  C          0.5150    5.8440   21.1280 C.2   226  ALA226      0.2260
    121  O          1.4350    6.0100   21.9340 O.2   226  ALA226     -0.2867
    122  CB         0.9060    3.4120   20.6270 C.3   226  ALA226      0.0290
@<TRIPOS>BOND
     1    98    99    1
     2    99   100    1
     3    99   102    1
     4   100   101    2
     5    67    68    1
     6    90    89    2
     7    68    71    1
     8    68    69    1
     9   102   103    1
    10    89    88    1
    11    71    72    1
    12   104   103   ar
    13   104   106   ar
    14   103   105   ar
    15    69    70    2
    16   108   109    1
    17    74    72   ar
    18    74    76   ar
    19   111   110    2
    20   106   107   ar
    21    72    73   ar
    22   105   107   ar
    23    55    56    1
    24    88    87    1
    25    88    91    1
    26    56    57    1
    27    56    59    1
    28   110   109    1
    29   109   112    1
    30    76    77   ar
    31    57    58    2
    32    91    92    1
    33    66    65    1
    34    64    65   ar
    35    64    62   ar
    36    65    63   ar
    37    62    60   ar
    38    73    75   ar
    39    63    61   ar
    40    60    61   ar
    41    60    59    1
    42   112   113    1
    43   115   113   ar
    44   115   117   ar
    45    77    75   ar
    46    77    78    1
    47   113   114   ar
    48    97    95    1
    49    92    93    1
    50    96    95    1
    51    79    80    1
    52   117   116   ar
    53    95    94    2
    54    94    93    1
    55   114   116   ar
    56    82    81    2
    57    80    81    1
    58    80    83    1
    59    85    83    1
    60    49    51   ar
    61    49    48   ar
    62    83    84    1
    63    51    53   ar
    64    47    48    1
    65    47    44    1
    66    48    50   ar
    67    46    45    2
    68    84    86    1
    69    53    54    1
    70    53    52   ar
    71   118   119    1
    72    50    52   ar
    73    27    26    2
    74    45    44    1
    75   122   119    1
    76    44    43    1
    77   119   120    1
    78   120   121    2
    79    24    25    1
    80    29    31    1
    81    29    28    1
    82    43    38   am
    83    26    25    1
    84    42    41    1
    85    42    36    1
    86    25    28    1
    87    33    32    1
    88    33    34    1
    89    28    30    1
    90    41    40    1
    91    36    34   am
    92    36    37    1
    93    23    21    1
    94    38    39    2
    95    38    37    1
    96    34    35    2
    97     7     6    1
    98    22    21    1
    99    37    40    1
   100    21    18    1
   101     8     6    1
   102    20    19    2
   103    18    19    1
   104    18    17    1
   105     6     5    1
   106    12    11    2
   107    17    11   am
   108    11    10    1
   109     5     2    1
   110    13    10    1
   111    13    14    1
   112     4     3    2
   113    16    14   ar
   114     2     3    1
   115     2     1    1
   116    10     9    1
   117    14    15   ar
