@<TRIPOS>MOLECULE
tmp/3hi0A00.pdb
 94 89 0 0 0
SMALL
GASTEIGER

@<TRIPOS>ATOM
      1  N        -14.3030   19.9400  127.4160 N.3     8  LEU8       -0.1245
      2  CA       -12.9420   20.3820  127.6680 C.3     8  LEU8        0.1561
      3  C        -12.0140   19.1720  127.7480 C.2     8  LEU8        0.2260
      4  O        -12.3330   18.1500  128.3640 O.2     8  LEU8       -0.2867
      5  CB       -12.8570   21.2160  128.9400 C.3     8  LEU8        0.0270
      6  CG       -13.3780   22.6460  128.7800 C.3     8  LEU8        0.0019
      7  CD1      -13.6110   23.2530  130.1390 C.3     8  LEU8        0.0001
      8  CD2      -12.4200   23.5040  127.9190 C.3     8  LEU8        0.0001
      9  N        -17.2950   17.9900  135.1180 N.3    30  GLU30      -0.1245
     10  CA       -16.4150   17.6960  133.9660 C.3    30  GLU30       0.1567
     11  C        -15.0590   17.1560  134.3510 C.2    30  GLU30       0.2260
     12  O        -14.5010   16.3290  133.6450 O.2    30  GLU30      -0.2867
     13  CB       -16.1410   18.9650  133.1720 C.3    30  GLU30       0.0388
     14  CG       -17.0550   19.2060  132.0530 C.3    30  GLU30       0.1160
     15  CD       -16.4710   20.2140  131.1190 C.2    30  GLU30       0.3649
     16  OE1      -16.2580   21.3590  131.5660 O.co2  30  GLU30      -0.2457
     17  OE2      -16.1820   19.8290  129.9710 O.co2  30  GLU30      -0.2457
     18  N        -12.3550   25.4980  137.3650 N.3    35  ALA35      -0.1231
     19  CA       -13.6650   25.9840  136.9620 C.3    35  ALA35       0.1679
     20  C        -14.3270   25.0480  135.9540 C.2    35  ALA35       0.2434
     21  O        -14.5490   25.4310  134.8110 O.2    35  ALA35      -0.2733
     22  CB       -13.5540   27.4170  136.4140 C.3    35  ALA35       0.0304
     23  N        -14.6830   23.8170  136.3940 N.am   36  PRO36      -0.2718
     24  CA       -15.3030   22.8270  135.4960 C.3    36  PRO36       0.1535
     25  C        -16.8290   23.0030  135.4290 C.2    36  PRO36       0.2598
     26  O        -17.4370   23.4560  136.4170 O.2    36  PRO36      -0.2715
     27  CB       -14.9700   21.4960  136.1870 C.3    36  PRO36       0.0310
     28  CG       -15.0250   21.8380  137.6580 C.3    36  PRO36       0.0237
     29  CD       -14.5590   23.2920  137.7740 C.3    36  PRO36       0.0939
     30  N        -17.4400   22.6490  134.2900 N.am   37  ALA37      -0.1964
     31  CA       -18.8970   22.6430  134.1980 C.3    37  ALA37       0.1728
     32  C        -19.4890   21.4050  134.8980 C.2    37  ALA37       0.2616
     33  O        -18.8150   20.3790  135.0970 O.2    37  ALA37      -0.2715
     34  CB       -19.3520   22.7110  132.7540 C.3    37  ALA37       0.0334
     35  N        -20.7570   21.5380  135.2820 N.am   38  VAL38      -0.1977
     36  CA       -21.5060   20.4840  135.9260 C.3    38  VAL38       0.1596
     37  C        -22.1220   19.6390  134.8310 C.2    38  VAL38       0.2287
     38  O        -22.9370   20.1170  134.0780 O.2    38  VAL38      -0.2864
     39  CB       -22.6280   21.0730  136.8430 C.3    38  VAL38       0.0276
     40  CG1      -23.5110   19.9710  137.4180 C.3    38  VAL38       0.0022
     41  CG2      -22.0270   21.9140  137.9360 C.3    38  VAL38       0.0022
     42  N        -12.6050   30.2390  133.4950 N.3   306  ALA306     -0.1245
     43  CA       -13.8550   29.8140  132.8540 C.3   306  ALA306      0.1562
     44  C        -14.1010   30.5600  131.5210 C.2   306  ALA306      0.2260
     45  O        -14.6000   29.9610  130.5800 O.2   306  ALA306     -0.2867
     46  CB       -15.0610   29.9730  133.8070 C.3   306  ALA306      0.0290
     47  N        -11.7950   29.0180  128.9780 N.3   309  GLU309     -0.1231
     48  CA       -12.3720   27.7410  128.5850 C.3   309  GLU309      0.1699
     49  C        -13.4780   27.9300  127.5700 C.2   309  GLU309      0.2592
     50  O        -13.6000   27.1390  126.6540 O.2   309  GLU309     -0.2718
     51  CB       -12.9290   26.9810  129.8050 C.3   309  GLU309      0.0402
     52  CG       -11.8600   26.3160  130.6630 C.3   309  GLU309      0.1161
     53  CD       -12.3910   25.7930  132.0070 C.2   309  GLU309      0.3649
     54  OE1      -13.4210   26.2890  132.5280 O.co2 309  GLU309     -0.2457
     55  OE2      -11.7690   24.8610  132.5350 O.co2 309  GLU309     -0.2457
     56  N        -14.2960   28.9640  127.7450 N.am  310  LEU310     -0.1980
     57  CA       -15.3920   29.2360  126.8110 C.3   310  LEU310      0.1596
     58  C        -14.8460   29.7160  125.4620 C.2   310  LEU310      0.2287
     59  O        -15.3940   29.3490  124.4220 O.2   310  LEU310     -0.2864
     60  CB       -16.4290   30.2070  127.3970 C.3   310  LEU310      0.0297
     61  CG       -17.4820   29.5640  128.3190 C.3   310  LEU310      0.0022
     62  CD1      -18.1480   30.5680  129.2460 C.3   310  LEU310      0.0001
     63  CD2      -18.5450   28.8780  127.4990 C.3   310  LEU310      0.0001
     64  N        -13.6490   26.6300  123.8180 N.3   313  LEU313     -0.1245
     65  CA       -14.8380   25.9150  123.3450 C.3   313  LEU313      0.1561
     66  C        -15.5720   26.5240  122.1350 C.2   313  LEU313      0.2260
     67  O        -16.0400   25.7930  121.2740 O.2   313  LEU313     -0.2867
     68  CB       -15.8220   25.7720  124.5340 C.3   313  LEU313      0.0270
     69  CG       -15.4010   24.7560  125.6220 C.3   313  LEU313      0.0019
     70  CD1      -16.1480   24.9690  126.9530 C.3   313  LEU313      0.0001
     71  CD2      -15.6280   23.3470  125.1150 C.3   313  LEU313      0.0001
     72  N        -24.5750   32.0990  132.4960 N.3   376  SER376     -0.1202
     73  CA       -23.4470   31.2010  132.7310 C.3   376  SER376      0.2020
     74  C        -23.0960   31.1270  134.2200 C.2   376  SER376      0.2619
     75  O        -23.2110   32.1050  134.9310 O.2   376  SER376     -0.2717
     76  CB       -22.2290   31.6520  131.9120 C.3   376  SER376      0.2103
     77  OG       -22.4300   31.3730  130.5410 O.3   376  SER376     -0.2182
     78  N        -22.6290   29.9580  134.6630 N.am  377  SER377     -0.1937
     79  CA       -22.2910   29.6920  136.0630 C.3   377  SER377      0.2055
     80  C        -20.8990   30.1940  136.4730 C.2   377  SER377      0.2643
     81  O        -20.1350   29.4750  137.1020 O.2   377  SER377     -0.2714
     82  CB       -22.3930   28.1820  136.3540 C.3   377  SER377      0.2130
     83  OG       -23.6400   27.6330  135.9500 O.3   377  SER377     -0.2179
     84  N        -20.5870   31.4450  136.1710 N.am  378  PHE378     -0.1973
     85  CA       -19.3620   32.0730  136.6860 C.3   378  PHE378      0.1639
     86  C        -19.3940   32.2650  138.1850 C.2   378  PHE378      0.2290
     87  O        -20.4520   32.4830  138.7700 O.2   378  PHE378     -0.2864
     88  CB       -19.1040   33.4520  136.0550 C.3   378  PHE378      0.0560
     89  CG       -18.9470   33.4060  134.5930 C.ar  378  PHE378     -0.0200
     90  CD1      -17.9630   32.5980  134.0180 C.ar  378  PHE378     -0.0042
     91  CD2      -19.7940   34.1300  133.7680 C.ar  378  PHE378     -0.0042
     92  CE1      -17.8160   32.5360  132.6520 C.ar  378  PHE378     -0.0003
     93  CE2      -19.6520   34.0610  132.3980 C.ar  378  PHE378     -0.0003
     94  CZ       -18.6540   33.2640  131.8390 C.ar  378  PHE378     -0.0000
@<TRIPOS>BOND
     1    67    66    2
     2    66    65    1
     3    65    64    1
     4    65    68    1
     5    59    58    2
     6    68    69    1
     7    71    69    1
     8    58    57    1
     9    69    70    1
    10    50    49    2
    11    57    60    1
    12    57    56    1
    13    60    61    1
    14     1     2    1
    15    63    61    1
    16    49    56   am
    17    49    48    1
    18     2     3    1
    19     2     5    1
    20     3     4    2
    21     8     6    1
    22    61    62    1
    23    48    47    1
    24    48    51    1
    25     6     5    1
    26     6     7    1
    27    51    52    1
    28    17    15   ar
    29    77    76    1
    30    45    44    2
    31    52    53    1
    32    15    16   ar
    33    15    14    1
    34    44    43    1
    35    94    93   ar
    36    94    92   ar
    37    76    73    1
    38    53    54   ar
    39    53    55   ar
    40    14    13    1
    41    93    91   ar
    42    72    73    1
    43    92    90   ar
    44    73    74    1
    45    34    31    1
    46    43    42    1
    47    43    46    1
    48    13    10    1
    49    12    11    2
    50    91    89   ar
    51    10    11    1
    52    10     9    1
    53    90    89   ar
    54    38    37    2
    55    31    30    1
    56    31    32    1
    57    74    78   am
    58    74    75    2
    59    30    25   am
    60    89    88    1
    61    78    79    1
    62    21    20    2
    63    37    36    1
    64    32    33    2
    65    32    35   am
    66    35    36    1
    67    25    24    1
    68    25    26    2
    69    24    27    1
    70    24    23    1
    71    36    39    1
    72    83    82    1
    73    20    23   am
    74    20    19    1
    75    88    85    1
    76    79    82    1
    77    79    80    1
    78    84    80   am
    79    84    85    1
    80    27    28    1
    81    23    29    1
    82    22    19    1
    83    80    81    2
    84    85    86    1
    85    39    40    1
    86    39    41    1
    87    19    18    1
    88    28    29    1
    89    86    87    2
