@<TRIPOS>MOLECULE
tmp/3hi7A00.pdb
 124 120 0 0 0
SMALL
GASTEIGER

@<TRIPOS>ATOM
      1  N        -61.0720  -13.8140   84.9540 N.3    27  GLU27      -0.1231
      2  CA       -60.7050  -15.2170   85.1710 C.3    27  GLU27       0.1699
      3  C        -59.2960  -15.5610   84.6810 C.2    27  GLU27       0.2592
      4  O        -58.7040  -16.5450   85.1210 O.2    27  GLU27      -0.2718
      5  CB       -61.7390  -16.1560   84.5460 C.3    27  GLU27       0.0402
      6  CG       -61.8180  -16.1610   83.0290 C.3    27  GLU27       0.1161
      7  CD       -62.6710  -15.0380   82.4520 C.2    27  GLU27       0.3649
      8  OE1      -62.9110  -14.0120   83.1390 O.co2  27  GLU27      -0.2457
      9  OE2      -63.0920  -15.1900   81.2880 O.co2  27  GLU27      -0.2457
     10  N        -58.7560  -14.7410   83.7820 N.am   28  LEU28      -0.1980
     11  CA       -57.4090  -14.9550   83.2650 C.3    28  LEU28       0.1596
     12  C        -56.3490  -14.5460   84.2720 C.2    28  LEU28       0.2287
     13  O        -55.1960  -14.9400   84.1350 O.2    28  LEU28      -0.2864
     14  CB       -57.2150  -14.1960   81.9400 C.3    28  LEU28       0.0297
     15  CG       -58.1040  -14.6840   80.7950 C.3    28  LEU28       0.0022
     16  CD1      -57.9170  -13.8260   79.5290 C.3    28  LEU28       0.0001
     17  CD2      -57.8280  -16.1590   80.4980 C.3    28  LEU28       0.0001
     18  N        -49.4830  -18.8670   80.8540 N.3    77  PHE77      -0.1241
     19  CA       -50.2450  -19.2480   82.0550 C.3    77  PHE77       0.1605
     20  C        -49.3250  -19.8720   83.1060 C.2    77  PHE77       0.2264
     21  O        -49.2410  -21.0810   83.2330 O.2    77  PHE77      -0.2867
     22  CB       -51.3540  -20.2110   81.6810 C.3    77  PHE77       0.0534
     23  CG       -52.5260  -19.5640   81.0030 C.ar   77  PHE77      -0.0203
     24  CD1      -53.3780  -18.7260   81.7230 C.ar   77  PHE77      -0.0042
     25  CD2      -52.8190  -19.8310   79.6650 C.ar   77  PHE77      -0.0042
     26  CE1      -54.4820  -18.1650   81.1240 C.ar   77  PHE77      -0.0003
     27  CE2      -53.9220  -19.2490   79.0460 C.ar   77  PHE77      -0.0003
     28  CZ       -54.7570  -18.4180   79.7660 C.ar   77  PHE77      -0.0000
     29  N        -50.6490  -21.3690   87.8790 N.3    80  GLN80      -0.1245
     30  CA       -51.4750  -22.5680   87.9730 C.3    80  GLN80       0.1566
     31  C        -50.5700  -23.7590   88.2160 C.2    80  GLN80       0.2260
     32  O        -49.3420  -23.6690   88.0230 O.2    80  GLN80      -0.2867
     33  CB       -52.3100  -22.7800   86.7050 C.3    80  GLN80       0.0367
     34  CG       -51.4800  -22.9980   85.4040 C.3    80  GLN80       0.0905
     35  CD       -52.3150  -22.8440   84.1350 C.2    80  GLN80       0.2608
     36  OE1      -53.2190  -22.0240   84.0770 O.2    80  GLN80      -0.2717
     37  NE2      -52.0070  -23.6370   83.1120 N.am   80  GLN80      -0.0878
     38  N        -50.0810  -26.6380   86.6720 N.3    82  HIS82      -0.1241
     39  CA       -49.3650  -27.1080   85.4880 C.3    82  HIS82       0.1621
     40  C        -49.2520  -25.9710   84.4740 C.2    82  HIS82       0.2264
     41  O        -50.0860  -25.8710   83.5780 O.2    82  HIS82      -0.2867
     42  CB       -50.1190  -28.2700   84.8570 C.3    82  HIS82       0.0745
     43  CG       -50.2910  -29.4340   85.7830 C.ar   82  HIS82       0.0817
     44  ND1      -49.2450  -30.2510   86.1450 N.ar   82  HIS82      -0.2268
     45  CD2      -51.3770  -29.8860   86.4530 C.ar   82  HIS82       0.1154
     46  CE1      -49.6840  -31.1760   86.9820 C.ar   82  HIS82       0.1986
     47  NE2      -50.9750  -30.9770   87.1820 N.ar   82  HIS82      -0.2212
     48  N        -48.5140  -23.5020   81.3920 N.3    84  ASN84      -0.1240
     49  CA       -48.3800  -23.7100   79.9620 C.3    84  ASN84       0.1653
     50  C        -48.4400  -22.3860   79.1960 C.2    84  ASN84       0.2266
     51  O        -48.6830  -21.3410   79.7830 O.2    84  ASN84      -0.2867
     52  CB       -49.4320  -24.6980   79.4540 C.3    84  ASN84       0.1155
     53  CG       -50.8210  -24.1010   79.3240 C.2    84  ASN84       0.2627
     54  OD1      -51.0070  -23.0150   78.7540 O.2    84  ASN84      -0.2716
     55  ND2      -51.8290  -24.8360   79.8330 N.am   84  ASN84      -0.0877
     56  N        -50.5540  -20.8370   75.9780 N.3    86  THR86      -0.1218
     57  CA       -51.6780  -21.0210   75.0940 C.3    86  THR86       0.1862
     58  C        -51.8440  -19.7720   74.2370 C.2    86  THR86       0.2287
     59  O        -51.6950  -18.6630   74.7490 O.2    86  THR86      -0.2866
     60  CB       -52.9750  -21.2120   75.8950 C.3    86  THR86       0.1770
     61  OG1      -52.7960  -22.3000   76.8030 O.3    86  THR86      -0.2211
     62  CG2      -54.1400  -21.5250   74.9660 C.3    86  THR86       0.0375
     63  N        -54.3590  -17.5710   71.4130 N.3    88  PHE88      -0.1241
     64  CA       -55.7290  -17.3040   71.0110 C.3    88  PHE88       0.1605
     65  C        -55.7490  -16.3590   69.8270 C.2    88  PHE88       0.2264
     66  O        -54.8180  -15.5460   69.6630 O.2    88  PHE88      -0.2867
     67  CB       -56.4920  -16.6510   72.1610 C.3    88  PHE88       0.0534
     68  CG       -56.4820  -17.4640   73.4250 C.ar   88  PHE88      -0.0203
     69  CD1      -55.4690  -17.2980   74.3710 C.ar   88  PHE88      -0.0042
     70  CD2      -57.4650  -18.4060   73.6520 C.ar   88  PHE88      -0.0042
     71  CE1      -55.4530  -18.0670   75.5430 C.ar   88  PHE88      -0.0003
     72  CE2      -57.4640  -19.1670   74.8240 C.ar   88  PHE88      -0.0003
     73  CZ       -56.4540  -19.0010   75.7580 C.ar   88  PHE88      -0.0000
     74  N        -62.2610  -14.6780   72.0430 N.3    99  MET99      -0.1245
     75  CA       -60.9290  -15.2520   71.9570 C.3    99  MET99       0.1570
     76  C        -61.0650  -16.7580   71.6660 C.2    99  MET99       0.2261
     77  O        -61.5840  -17.5260   72.5040 O.2    99  MET99      -0.2867
     78  CB       -60.1070  -14.9560   73.2130 C.3    99  MET99       0.0387
     79  CG       -60.6740  -15.4540   74.5330 C.3    99  MET99       0.0595
     80  SD       -59.7980  -14.7710   75.9490 S.3    99  MET99      -0.1393
     81  CE       -58.1940  -15.5780   75.8510 C.3    99  MET99       0.0692
     82  N        -51.9430  -27.5310   70.5390 N.3   105  ARG105     -0.1231
     83  CA       -51.0540  -28.6960   70.4440 C.3   105  ARG105      0.1679
     84  C        -51.3700  -29.6730   71.5710 C.2   105  ARG105      0.2434
     85  O        -50.5810  -29.8490   72.5020 O.2   105  ARG105     -0.2733
     86  CB       -49.5980  -28.2670   70.5010 C.3   105  ARG105      0.0321
     87  CG       -48.6470  -29.3270   70.0120 C.3   105  ARG105      0.0489
     88  CD       -47.2190  -28.8400   70.0110 C.3   105  ARG105      0.2205
     89  NE       -46.3280  -29.9640   69.7780 N.pl3 105  ARG105     -0.0865
     90  CZ       -45.0110  -29.9210   69.8850 C.cat 105  ARG105      0.5346
     91  NH1      -44.3830  -28.7910   70.2200 N.pl3 105  ARG105      0.1354
     92  NH2      -44.3240  -31.0150   69.6610 N.pl3 105  ARG105      0.1354
     93  N        -52.5430  -30.3080   71.4880 N.am  106  PRO106     -0.2718
     94  CA       -52.9710  -31.1880   72.5760 C.3   106  PRO106      0.1535
     95  C        -52.0470  -32.3940   72.7020 C.2   106  PRO106      0.2599
     96  O        -51.5390  -32.9000   71.7030 O.2   106  PRO106     -0.2715
     97  CB       -54.3970  -31.5880   72.1610 C.3   106  PRO106      0.0310
     98  CG       -54.4250  -31.4600   70.6960 C.3   106  PRO106      0.0237
     99  CD       -53.5250  -30.2750   70.3890 C.3   106  PRO106      0.0939
    100  N        -51.7930  -32.8240   73.9310 N.am  107  GLY107     -0.1941
    101  CA       -50.8640  -33.9370   74.1730 C.3   107  GLY107      0.2014
    102  C        -49.4010  -33.5550   74.3510 C.2   107  GLY107      0.2639
    103  O        -48.5990  -34.3740   74.8020 O.2   107  GLY107     -0.2714
    104  N        -49.0310  -32.3180   74.0090 N.am  108  TYR108     -0.1959
    105  CA       -47.6550  -31.8640   74.1920 C.3   108  TYR108      0.1771
    106  C        -47.5540  -31.2920   75.5860 C.2   108  TYR108      0.2619
    107  O        -48.4130  -30.5050   75.9850 O.2   108  TYR108     -0.2715
    108  CB       -47.3230  -30.7780   73.1750 C.3   108  TYR108      0.0574
    109  CG       -45.9740  -30.1130   73.3400 C.ar  108  TYR108     -0.0198
    110  CD1      -45.8920  -28.7420   73.6040 C.ar  108  TYR108     -0.0009
    111  CD2      -44.7850  -30.8240   73.1790 C.ar  108  TYR108     -0.0009
    112  CE1      -44.6800  -28.1050   73.7300 C.ar  108  TYR108      0.0417
    113  CE2      -43.5420  -30.1870   73.3160 C.ar  108  TYR108      0.0417
    114  CZ       -43.5090  -28.8160   73.5750 C.ar  108  TYR108      0.1957
    115  OH       -42.3000  -28.1520   73.6900 O.3   108  TYR108     -0.2866
    116  N        -46.5120  -31.6720   76.3130 N.am  109  GLN109     -0.1977
    117  CA       -46.4480  -31.3540   77.7330 C.3   109  GLN109      0.1601
    118  C        -45.3380  -30.3760   78.1320 C.2   109  GLN109      0.2287
    119  O        -45.2430  -29.9950   79.3060 O.2   109  GLN109     -0.2864
    120  CB       -46.3650  -32.6470   78.5480 C.3   109  GLN109      0.0394
    121  CG       -47.5920  -33.5400   78.4620 C.3   109  GLN109      0.0908
    122  CD       -48.6810  -33.1270   79.4330 C.2   109  GLN109      0.2608
    123  OE1      -49.2150  -32.0160   79.3570 O.2   109  GLN109     -0.2717
    124  NE2      -49.0040  -34.0310   80.3520 N.am  109  GLN109     -0.0878
@<TRIPOS>BOND
     1    92    90    1
     2    66    65    2
     3    89    90    2
     4    89    88    1
     5    65    64    1
     6    90    91    1
     7    88    87    1
     8    87    86    1
     9    99    98    1
    10    99    93    1
    11    83    86    1
    12    83    82    1
    13    83    84    1
    14    98    97    1
    15    64    63    1
    16    64    67    1
    17    93    84   am
    18    93    94    1
    19    84    85    2
    20    76    75    1
    21    76    77    2
    22    96    95    2
    23    75    74    1
    24    75    78    1
    25    97    94    1
    26    67    68    1
    27    94    95    1
    28    95   100   am
    29   108   109    1
    30   108   105    1
    31   111   113   ar
    32   111   109   ar
    33    78    79    1
    34   113   114   ar
    35   109   110   ar
    36    68    70   ar
    37    68    69   ar
    38   114   115    1
    39   114   112   ar
    40   110   112   ar
    41    70    72   ar
    42   100   101    1
    43   104   105    1
    44   104   102   am
    45   101   102    1
    46   105   106    1
    47    58    59    2
    48    58    57    1
    49   102   103    2
    50    69    71   ar
    51    79    80    1
    52    72    73   ar
    53    62    60    1
    54    57    60    1
    55    57    56    1
    56    71    73   ar
    57   106   107    2
    58   106   116   am
    59    81    80    1
    60    60    61    1
    61   116   117    1
    62   117   118    1
    63   117   120    1
    64   118   119    2
    65   121   120    1
    66   121   122    1
    67    54    53    2
    68    27    25   ar
    69    27    28   ar
    70    50    51    2
    71    50    49    1
    72    53    52    1
    73    53    55   am
    74   123   122    2
    75   122   124   am
    76    52    49    1
    77    16    15    1
    78    25    23   ar
    79    28    26   ar
    80    49    48    1
    81    17    15    1
    82    15    14    1
    83    18    19    1
    84    23    22    1
    85    23    24   ar
    86    26    24   ar
    87     9     7   ar
    88    22    19    1
    89    14    11    1
    90    19    20    1
    91     7     6    1
    92     7     8   ar
    93     6     5    1
    94    20    21    2
    95    37    35   am
    96    11    10    1
    97    11    12    1
    98    41    40    2
    99    10     3   am
   100    36    35    2
   101    35    34    1
   102    13    12    2
   103    40    39    1
   104     5     2    1
   105     3     4    2
   106     3     2    1
   107    42    39    1
   108    42    43    1
   109     1     2    1
   110    34    33    1
   111    39    38    1
   112    43    44   ar
   113    43    45   ar
   114    44    46   ar
   115    45    47   ar
   116    33    30    1
   117    46    47   ar
   118    29    30    1
   119    30    31    1
   120    32    31    2
