@<TRIPOS>MOLECULE
tmp/3higB00.pdb
 133 131 0 0 0
SMALL
GASTEIGER

@<TRIPOS>ATOM
      1  N        -10.7660   -4.3820    9.8020 N.3   118  THR118     -0.1218
      2  CA       -11.6850   -3.5770    8.9990 C.3   118  THR118      0.1862
      3  C        -11.5030   -3.8040    7.4950 C.2   118  THR118      0.2287
      4  O        -12.4890   -3.9710    6.7790 O.2   118  THR118     -0.2866
      5  CB       -11.5580   -2.0840    9.3590 C.3   118  THR118      0.1770
      6  OG1      -11.9120   -1.9360   10.7320 O.3   118  THR118     -0.2211
      7  CG2      -12.5240   -1.2230    8.5280 C.3   118  THR118      0.0375
      8  N        -13.0690   -7.0970    6.4170 N.3   121  TYR121     -0.1241
      9  CA       -14.5270   -6.9410    6.3450 C.3   121  TYR121      0.1605
     10  C        -14.9780   -6.2150    5.0940 C.2   121  TYR121      0.2264
     11  O        -15.9440   -6.6290    4.4670 O.2   121  TYR121     -0.2867
     12  CB       -15.0790   -6.1850    7.5490 C.3   121  TYR121      0.0534
     13  CG       -15.2170   -7.0110    8.8030 C.ar  121  TYR121     -0.0201
     14  CD1      -15.9790   -8.1760    8.8050 C.ar  121  TYR121     -0.0009
     15  CD2      -14.6230   -6.6100    9.9890 C.ar  121  TYR121     -0.0009
     16  CE1      -16.1310   -8.9390    9.9540 C.ar  121  TYR121      0.0417
     17  CE2      -14.7740   -7.3570   11.1500 C.ar  121  TYR121      0.0417
     18  CZ       -15.5460   -8.5230   11.1200 C.ar  121  TYR121      0.1957
     19  OH       -15.7100   -9.2830   12.2480 O.3   121  TYR121     -0.2866
     20  N        -17.4380   -7.8360    2.2980 N.3   125  TYR125     -0.1241
     21  CA       -18.6540   -7.2140    1.7730 C.3   125  TYR125      0.1605
     22  C        -18.6440   -7.2320    0.2450 C.2   125  TYR125      0.2264
     23  O        -19.6390   -7.5820   -0.3750 O.2   125  TYR125     -0.2867
     24  CB       -18.8930   -5.7930    2.3060 C.3   125  TYR125      0.0534
     25  CG       -19.8240   -5.7660    3.4870 C.ar  125  TYR125     -0.0201
     26  CD1      -21.2040   -5.9310    3.3150 C.ar  125  TYR125     -0.0009
     27  CD2      -19.3330   -5.5930    4.8040 C.ar  125  TYR125     -0.0009
     28  CE1      -22.0850   -5.9390    4.4270 C.ar  125  TYR125      0.0417
     29  CE2      -20.2160   -5.5830    5.9280 C.ar  125  TYR125      0.0417
     30  CZ       -21.5940   -5.7670    5.7310 C.ar  125  TYR125      0.1957
     31  OH       -22.4730   -5.7810    6.8290 O.3   125  TYR125     -0.2866
     32  N        -24.1380   -8.3640    7.3990 N.3   157  PHE157     -0.1227
     33  CA       -23.7740   -9.6460    7.9800 C.3   157  PHE157      0.1736
     34  C        -23.0540   -9.5940    9.3330 C.2   157  PHE157      0.2596
     35  O        -22.2690   -8.6870    9.6230 O.2   157  PHE157     -0.2718
     36  CB       -22.9520  -10.4870    6.9830 C.3   157  PHE157      0.0547
     37  CG       -21.5490  -10.0280    6.8060 C.ar  157  PHE157     -0.0202
     38  CD1      -21.2140   -9.2040    5.7660 C.ar  157  PHE157     -0.0042
     39  CD2      -20.5570  -10.4410    7.6860 C.ar  157  PHE157     -0.0042
     40  CE1      -19.9010   -8.7690    5.6000 C.ar  157  PHE157     -0.0003
     41  CE2      -19.2380   -9.9990    7.5400 C.ar  157  PHE157     -0.0003
     42  CZ       -18.9140   -9.1660    6.4910 C.ar  157  PHE157     -0.0000
     43  N        -23.3190  -10.6190   10.1410 N.am  158  THR158     -0.1939
     44  CA       -22.6260  -10.8640   11.3930 C.3   158  THR158      0.2028
     45  C        -21.7420  -12.0830   11.1660 C.2   158  THR158      0.2642
     46  O        -22.2440  -13.1490   10.7840 O.2   158  THR158     -0.2714
     47  CB       -23.6470  -11.1420   12.5040 C.3   158  THR158      0.1808
     48  OG1      -24.2880   -9.9060   12.8400 O.3   158  THR158     -0.2208
     49  CG2      -22.9980  -11.7750   13.7470 C.3   158  THR158      0.0379
     50  N        -20.4240  -11.9390   11.3200 N.am  159  ASP159     -0.1971
     51  CA       -19.5800  -13.1140   11.2040 C.3   159  ASP159      0.1709
     52  C        -19.5030  -13.8750   12.5110 C.2   159  ASP159      0.2293
     53  O        -19.7210  -13.3420   13.6150 O.2   159  ASP159     -0.2864
     54  CB       -18.1620  -12.8370   10.6430 C.3   159  ASP159      0.1436
     55  CG       -17.3340  -11.9850   11.5410 C.2   159  ASP159      0.3671
     56  OD1      -17.9110  -11.0410   12.1020 O.co2 159  ASP159     -0.2456
     57  OD2      -16.1140  -12.2430   11.6730 O.co2 159  ASP159     -0.2456
     58  N        -17.9630  -16.6410   24.9320 N.3   316  ALA316     -0.1245
     59  CA       -19.3810  -16.9990   24.8490 C.3   316  ALA316      0.1562
     60  C        -19.5290  -18.2280   23.9480 C.2   316  ALA316      0.2260
     61  O        -19.2150  -18.1670   22.7510 O.2   316  ALA316     -0.2867
     62  CB       -20.2670  -15.8100   24.3510 C.3   316  ALA316      0.0290
     63  N        -17.1310  -17.5460   20.6870 N.3   330  TYR330     -0.1241
     64  CA       -16.4600  -16.2820   20.6520 C.3   330  TYR330      0.1605
     65  C        -15.4790  -16.1820   21.7960 C.2   330  TYR330      0.2264
     66  O        -15.8450  -16.4330   22.9500 O.2   330  TYR330     -0.2867
     67  CB       -17.4760  -15.1300   20.7810 C.3   330  TYR330      0.0534
     68  CG       -18.2840  -14.8510   19.5470 C.ar  330  TYR330     -0.0201
     69  CD1      -17.6720  -14.6420   18.3180 C.ar  330  TYR330     -0.0009
     70  CD2      -19.6700  -14.7430   19.6080 C.ar  330  TYR330     -0.0009
     71  CE1      -18.4320  -14.3590   17.1850 C.ar  330  TYR330      0.0417
     72  CE2      -20.4200  -14.4570   18.4940 C.ar  330  TYR330      0.0417
     73  CZ       -19.8080  -14.2600   17.2890 C.ar  330  TYR330      0.1957
     74  OH       -20.5820  -13.9700   16.1780 O.3   330  TYR330     -0.2866
     75  N        -13.1510  -13.1610   23.1340 N.3   332  ASP332     -0.1239
     76  CA       -13.0890  -11.7170   22.8910 C.3   332  ASP332      0.1674
     77  C        -11.7060  -11.1130   22.8470 C.2   332  ASP332      0.2266
     78  O        -11.5270  -10.0270   22.2690 O.2   332  ASP332     -0.2867
     79  CB       -13.9040  -10.9610   23.9310 C.3   332  ASP332      0.1410
     80  CG       -15.4160  -11.0660   23.6930 C.2   332  ASP332      0.3668
     81  OD1      -15.8720  -11.5390   22.6140 O.co2 332  ASP332     -0.2456
     82  OD2      -16.1500  -10.6670   24.6160 O.co2 332  ASP332     -0.2456
     83  N        -10.4330  -10.2000   19.5670 N.3   335  TRP335     -0.1241
     84  CA       -11.0770   -9.0300   18.9610 C.3   335  TRP335      0.1605
     85  C        -10.6640   -7.7080   19.6190 C.2   335  TRP335      0.2264
     86  O        -11.3210   -6.6910   19.4300 O.2   335  TRP335     -0.2867
     87  CB       -12.5940   -9.1590   19.0920 C.3   335  TRP335      0.0550
     88  CG       -13.1290  -10.3880   18.4860 C.ar  335  TRP335      0.0003
     89  CD1      -13.1700  -11.6250   19.0360 C.ar  335  TRP335      0.0946
     90  CD2      -13.7080  -10.4970   17.1860 C.ar  335  TRP335      0.0152
     91  NE1      -13.7550  -12.5190   18.1590 N.ar  335  TRP335     -0.2442
     92  CE2      -14.1000  -11.8470   17.0150 C.ar  335  TRP335      0.0810
     93  CE3      -13.9520   -9.5770   16.1580 C.ar  335  TRP335      0.0012
     94  CZ2      -14.7000  -12.3110   15.8440 C.ar  335  TRP335      0.0191
     95  CZ3      -14.5360  -10.0300   14.9860 C.ar  335  TRP335      0.0001
     96  CH2      -14.9130  -11.3950   14.8360 C.ar  335  TRP335      0.0015
     97  N        -17.5150   -5.3700   21.9330 N.3   417  VAL417     -0.1231
     98  CA       -16.9130   -5.8750   20.6990 C.3   417  VAL417      0.1692
     99  C        -17.8520   -5.7170   19.4790 C.2   417  VAL417      0.2592
    100  O        -17.4250   -5.3080   18.3770 O.2   417  VAL417     -0.2718
    101  CB       -16.5070   -7.3430   20.8350 C.3   417  VAL417      0.0266
    102  CG1      -16.0180   -7.8300   19.4490 C.3   417  VAL417      0.0020
    103  CG2      -15.4280   -7.4980   21.9440 C.3   417  VAL417      0.0020
    104  N        -19.1240   -6.0290   19.6790 N.am  418  TYR418     -0.1962
    105  CA       -20.0910   -6.0010   18.5980 C.3   418  TYR418      0.1771
    106  C        -21.4820   -5.8280   19.2150 C.2   418  TYR418      0.2619
    107  O        -21.9220   -4.7000   19.4210 O.2   418  TYR418     -0.2715
    108  CB       -19.9280   -7.2940   17.7510 C.3   418  TYR418      0.0574
    109  CG       -20.7630   -7.3660   16.5160 C.ar  418  TYR418     -0.0198
    110  CD1      -21.7990   -8.2760   16.4050 C.ar  418  TYR418     -0.0009
    111  CD2      -20.5210   -6.5320   15.4360 C.ar  418  TYR418     -0.0009
    112  CE1      -22.5460   -8.3530   15.2700 C.ar  418  TYR418      0.0417
    113  CE2      -21.3020   -6.6120   14.2840 C.ar  418  TYR418      0.0417
    114  CZ       -22.2890   -7.5290   14.2150 C.ar  418  TYR418      0.1957
    115  OH       -23.0680   -7.6230   13.0730 O.3   418  TYR418     -0.2866
    116  N        -22.1230   -6.9290   19.6030 N.am  419  ASN419     -0.1972
    117  CA       -23.4960   -6.9090   20.1270 C.3   419  ASN419      0.1688
    118  C        -23.5930   -6.7140   21.6400 C.2   419  ASN419      0.2292
    119  O        -24.4800   -6.0120   22.1120 O.2   419  ASN419     -0.2864
    120  CB       -24.2320   -8.2020   19.7780 C.3   419  ASN419      0.1181
    121  CG       -23.4500   -9.4410   20.1420 C.2   419  ASN419      0.2629
    122  OD1      -22.3530   -9.6410   19.6420 O.2   419  ASN419     -0.2716
    123  ND2      -24.0320  -10.3050   20.9740 N.am  419  ASN419     -0.0877
    124  N        -26.6730  -12.6310   20.9030 N.3   444  HIS444     -0.1241
    125  CA       -26.3260  -13.2870   19.6340 C.3   444  HIS444      0.1621
    126  C        -27.5280  -14.1520   19.2550 C.2   444  HIS444      0.2264
    127  O        -27.8900  -15.0670   19.9850 O.2   444  HIS444     -0.2867
    128  CB       -25.0900  -14.1550   19.8620 C.3   444  HIS444      0.0745
    129  CG       -24.5480  -14.8120   18.6320 C.ar  444  HIS444      0.0817
    130  ND1      -24.2960  -14.1240   17.4640 N.ar  444  HIS444     -0.2268
    131  CD2      -24.1530  -16.0890   18.4100 C.ar  444  HIS444      0.1154
    132  CE1      -23.7990  -14.9560   16.5660 C.ar  444  HIS444      0.1986
    133  NE2      -23.7100  -16.1580   17.1120 N.ar  444  HIS444     -0.2212
@<TRIPOS>BOND
     1    23    22    2
     2    22    21    1
     3    21    20    1
     4    21    24    1
     5    24    25    1
     6    26    25   ar
     7    26    28   ar
     8    25    27   ar
     9    28    30   ar
    10    11    10    2
    11    27    29   ar
    12    10     9    1
    13    40    38   ar
    14    40    42   ar
    15    30    29   ar
    16    30    31    1
    17    38    37   ar
    18     9     8    1
    19     9    12    1
    20    42    41   ar
    21     4     3    2
    22    37    36    1
    23    37    39   ar
    24    36    33    1
    25    32    33    1
    26     3     2    1
    27    41    39   ar
    28    12    13    1
    29    33    34    1
    30     7     5    1
    31    13    14   ar
    32    13    15   ar
    33    14    16   ar
    34     2     5    1
    35     2     1    1
    36    34    35    2
    37    34    43   am
    38     5     6    1
    39    16    18   ar
    40    15    17   ar
    41    43    44    1
    42    54    51    1
    43    54    55    1
    44    46    45    2
    45    18    17   ar
    46    18    19    1
    47    45    50   am
    48    45    44    1
    49    51    50    1
    50    51    52    1
    51    44    47    1
    52    55    57   ar
    53    55    56   ar
    54    47    48    1
    55    47    49    1
    56    52    53    2
    57   115   114    1
    58   114   113   ar
    59   114   112   ar
    60   113   111   ar
    61    96    95   ar
    62    96    94   ar
    63    95    93   ar
    64   112   110   ar
    65   111   109   ar
    66    94    92   ar
    67    93    90   ar
    68    74    73    1
    69   110   109   ar
    70   109   108    1
    71   132   133   ar
    72   132   130   ar
    73    92    90   ar
    74    92    91   ar
    75   133   131   ar
    76    71    73   ar
    77    71    69   ar
    78    90    88   ar
    79    73    72   ar
    80   130   129   ar
    81   108   105    1
    82    91    89   ar
    83    69    68   ar
    84   100    99    2
    85   131   129   ar
    86    88    89   ar
    87    88    87    1
    88    72    70   ar
    89   105   106    1
    90   105   104    1
    91   129   128    1
    92    84    87    1
    93    84    83    1
    94    84    85    1
    95   106   107    2
    96   106   116   am
    97   126   125    1
    98   126   127    2
    99    86    85    2
   100   102   101    1
   101    99   104   am
   102    99    98    1
   103    68    70   ar
   104    68    67    1
   105   116   117    1
   106   125   128    1
   107   125   124    1
   108   122   121    2
   109   120   117    1
   110   120   121    1
   111   117   118    1
   112   121   123   am
   113    64    63    1
   114    64    67    1
   115    64    65    1
   116    98   101    1
   117    98    97    1
   118   101   103    1
   119   118   119    2
   120    65    66    2
   121    78    77    2
   122    81    80   ar
   123    61    60    2
   124    77    76    1
   125    76    75    1
   126    76    79    1
   127    80    79    1
   128    80    82   ar
   129    60    59    1
   130    62    59    1
   131    59    58    1
