@<TRIPOS>MOLECULE
tmp/3hiiB01.pdb
 106 100 0 0 0
SMALL
GASTEIGER

@<TRIPOS>ATOM
      1  N         12.6650   -2.0400    4.7730 N.3    26  GLU26      -0.1231
      2  CA        12.5890   -3.4650    4.4380 C.3    26  GLU26       0.1699
      3  C         11.3280   -4.1580    4.9850 C.2    26  GLU26       0.2592
      4  O         11.0050   -5.2620    4.5650 O.2    26  GLU26      -0.2718
      5  CB        13.8650   -4.2140    4.8750 C.3    26  GLU26       0.0402
      6  CG        14.0090   -4.5190    6.3800 C.3    26  GLU26       0.1161
      7  CD        14.4230   -3.3160    7.2100 C.2    26  GLU26       0.3649
      8  OE1       14.4020   -2.1810    6.6840 O.co2  26  GLU26      -0.2457
      9  OE2       14.7610   -3.5040    8.4020 O.co2  26  GLU26      -0.2457
     10  N         10.6230   -3.5170    5.9130 N.am   27  LEU27      -0.1980
     11  CA         9.3540   -4.0480    6.4190 C.3    27  LEU27       0.1596
     12  C          8.1880   -3.8680    5.4320 C.2    27  LEU27       0.2287
     13  O          7.1710   -4.5460    5.5510 O.2    27  LEU27      -0.2864
     14  CB         9.0080   -3.4050    7.7670 C.3    27  LEU27       0.0297
     15  CG         9.9860   -3.6860    8.9220 C.3    27  LEU27       0.0022
     16  CD1        9.4670   -3.0900   10.2190 C.3    27  LEU27       0.0001
     17  CD2       10.2410   -5.1830    9.1120 C.3    27  LEU27       0.0001
     18  N          2.6100   -9.9370    8.4770 N.3    76  PHE76      -0.1241
     19  CA         3.4460  -10.0150    7.2670 C.3    76  PHE76       0.1605
     20  C          2.7080  -10.7510    6.1470 C.2    76  PHE76       0.2264
     21  O          2.9230  -11.9480    5.9130 O.2    76  PHE76      -0.2867
     22  CB         4.7730  -10.7210    7.5510 C.3    76  PHE76       0.0534
     23  CG         5.7390   -9.9040    8.3640 C.ar   76  PHE76      -0.0203
     24  CD1        6.0520  -10.2630    9.6650 C.ar   76  PHE76      -0.0042
     25  CD2        6.3300   -8.7750    7.8290 C.ar   76  PHE76      -0.0042
     26  CE1        6.9460   -9.5120   10.4120 C.ar   76  PHE76      -0.0003
     27  CE2        7.2250   -8.0150    8.5710 C.ar   76  PHE76      -0.0003
     28  CZ         7.5330   -8.3860    9.8650 C.ar   76  PHE76      -0.0000
     29  N          4.4350  -11.4650    1.4450 N.3    79  GLN79      -0.1245
     30  CA         5.5180  -12.4270    1.2620 C.3    79  GLN79       0.1566
     31  C          4.8900  -13.7520    0.8690 C.2    79  GLN79       0.2260
     32  O          3.6800  -13.9280    1.0310 O.2    79  GLN79      -0.2867
     33  CB         6.3650  -12.5700    2.5310 C.3    79  GLN79       0.0367
     34  CG         5.5740  -12.9340    3.7840 C.3    79  GLN79       0.0905
     35  CD         6.3690  -12.7660    5.0640 C.2    79  GLN79       0.2608
     36  OE1        6.9610  -11.7140    5.3070 O.2    79  GLN79      -0.2717
     37  NE2        6.3700  -13.7980    5.9050 N.am   79  GLN79      -0.0878
     38  N          2.8210  -14.5360    7.5620 N.3    83  ASN83      -0.1240
     39  CA         2.7180  -14.8650    8.9760 C.3    83  ASN83       0.1653
     40  C          2.4700  -13.6470    9.8430 C.2    83  ASN83       0.2266
     41  O          2.4730  -12.5180    9.3510 O.2    83  ASN83      -0.2867
     42  CB         3.9440  -15.6670    9.4420 C.3    83  ASN83       0.1155
     43  CG         5.1690  -14.8060    9.7120 C.2    83  ASN83       0.2627
     44  OD1        5.0890  -13.7840   10.3960 O.2    83  ASN83      -0.2716
     45  ND2        6.3270  -15.2380    9.1870 N.am   83  ASN83      -0.0877
     46  N          4.2000  -11.9680   13.1990 N.3    85  THR85      -0.1218
     47  CA         5.3090  -11.9970   14.1640 C.3    85  THR85       0.1862
     48  C          5.1890  -10.8240   15.1250 C.2    85  THR85       0.2287
     49  O          4.8390   -9.7120   14.7350 O.2    85  THR85      -0.2866
     50  CB         6.6910  -11.9470   13.4690 C.3    85  THR85       0.1770
     51  OG1        6.7660  -12.9760   12.4790 O.3    85  THR85      -0.2211
     52  CG2        7.8220  -12.1190   14.4740 C.3    85  THR85       0.0375
     53  N          6.9870   -8.3560   18.0940 N.3    87  PHE87      -0.1241
     54  CA         8.2720   -7.8130   18.4880 C.3    87  PHE87       0.1605
     55  C          8.1850   -6.9980   19.7690 C.2    87  PHE87       0.2264
     56  O          7.1580   -6.3940   20.0730 O.2    87  PHE87      -0.2867
     57  CB         8.8110   -6.9180   17.3760 C.3    87  PHE87       0.0534
     58  CG         8.9480   -7.6140   16.0600 C.ar   87  PHE87      -0.0203
     59  CD1        7.8610   -7.7170   15.2030 C.ar   87  PHE87      -0.0042
     60  CD2       10.1600   -8.1660   15.6800 C.ar   87  PHE87      -0.0042
     61  CE1        7.9790   -8.3690   13.9750 C.ar   87  PHE87      -0.0003
     62  CE2       10.2970   -8.8160   14.4500 C.ar   87  PHE87      -0.0003
     63  CZ         9.1990   -8.9200   13.5980 C.ar   87  PHE87      -0.0000
     64  N         14.1370   -3.8180   17.8000 N.3    98  MET98      -0.1245
     65  CA        12.9320   -4.5100   17.4390 C.3    98  MET98       0.1570
     66  C         13.2980   -5.9840   17.5680 C.2    98  MET98       0.2261
     67  O         14.0590   -6.4950   16.7560 O.2    98  MET98      -0.2867
     68  CB        12.6000   -4.1200   16.0030 C.3    98  MET98       0.0387
     69  CG        11.4620   -4.8490   15.3440 C.3    98  MET98       0.0595
     70  SD        11.2660   -4.2280   13.6500 S.3    98  MET98      -0.1393
     71  CE         9.9840   -5.3460   13.0690 C.3    98  MET98       0.0692
     72  N         12.0880  -10.0020   17.9470 N.3   100  ALA100     -0.1245
     73  CA        11.0260  -10.9900   17.7570 C.3   100  ALA100      0.1562
     74  C         10.7170  -11.7590   19.0450 C.2   100  ALA100      0.2260
     75  O         11.6190  -12.0870   19.8050 O.2   100  ALA100     -0.2867
     76  CB        11.4130  -11.9590   16.6510 C.3   100  ALA100      0.0290
     77  N          8.6590  -17.4980   19.4220 N.3   103  PRO103     -0.2102
     78  CA         8.6170  -18.4110   18.2640 C.3   103  PRO103      0.1504
     79  C          7.8760  -19.7210   18.5590 C.2   103  PRO103      0.2575
     80  O          7.8790  -20.1750   19.6980 O.2   103  PRO103     -0.2718
     81  CB        10.0970  -18.6970   17.9900 C.3   103  PRO103      0.0282
     82  CG        10.8140  -18.3360   19.2710 C.3   103  PRO103      0.0208
     83  CD        10.0380  -17.2130   19.8550 C.3   103  PRO103      0.0893
     84  N          7.2440  -20.3090   17.5440 N.am  104  ARG104     -0.1980
     85  CA         6.5890  -21.6210   17.6640 C.3   104  ARG104      0.1597
     86  C          7.0920  -22.5580   16.5560 C.2   104  ARG104      0.2287
     87  O          6.4390  -22.6890   15.5280 O.2   104  ARG104     -0.2864
     88  CB         5.0590  -21.4970   17.5490 C.3   104  ARG104      0.0334
     89  CG         4.3580  -20.8450   18.7270 C.3   104  ARG104      0.0492
     90  CD         2.8300  -20.8920   18.5510 C.3   104  ARG104      0.2205
     91  NE         2.3010  -22.2460   18.7090 N.pl3 104  ARG104     -0.0865
     92  CZ         1.0270  -22.6030   18.5320 C.cat 104  ARG104      0.5346
     93  NH1        0.1050  -21.7140   18.1870 N.pl3 104  ARG104      0.1354
     94  NH2        0.6670  -23.8660   18.7060 N.pl3 104  ARG104      0.1354
     95  N          4.7860  -24.7920   13.9860 N.3   107  TYR107     -0.1241
     96  CA         3.4240  -24.2720   13.8650 C.3   107  TYR107      0.1605
     97  C          3.2710  -23.5310   12.5470 C.2   107  TYR107      0.2264
     98  O          4.0260  -22.6110   12.2690 O.2   107  TYR107     -0.2867
     99  CB         3.1000  -23.3310   15.0250 C.3   107  TYR107      0.0534
    100  CG         1.7060  -22.7430   14.9760 C.ar  107  TYR107     -0.0201
    101  CD1        1.5100  -21.3700   14.8600 C.ar  107  TYR107     -0.0009
    102  CD2        0.5840  -23.5570   15.0440 C.ar  107  TYR107     -0.0009
    103  CE1        0.2220  -20.8200   14.8140 C.ar  107  TYR107      0.0417
    104  CE2       -0.7070  -23.0150   15.0060 C.ar  107  TYR107      0.0417
    105  CZ        -0.8750  -21.6410   14.8910 C.ar  107  TYR107      0.1957
    106  OH        -2.1400  -21.0950   14.8450 O.3   107  TYR107     -0.2866
@<TRIPOS>BOND
     1    31    32    2
     2    31    30    1
     3    30    29    1
     4    30    33    1
     5    33    34    1
     6    34    35    1
     7     2     1    1
     8     2     5    1
     9     2     3    1
    10     4     3    2
    11     5     6    1
    12     3    10   am
    13    35    36    2
    14    35    37   am
    15    12    13    2
    16    12    11    1
    17    10    11    1
    18    21    20    2
    19    20    19    1
    20     6     7    1
    21    11    14    1
    22     8     7   ar
    23     7     9   ar
    24    19    22    1
    25    19    18    1
    26    22    23    1
    27    38    39    1
    28    14    15    1
    29    25    23   ar
    30    25    27   ar
    31    23    24   ar
    32    27    28   ar
    33    15    17    1
    34    15    16    1
    35    39    42    1
    36    39    40    1
    37    45    43   am
    38    41    40    2
    39    42    43    1
    40    24    26   ar
    41    43    44    2
    42    28    26   ar
    43    98    97    2
    44    51    50    1
    45    97    96    1
    46    71    70    1
    47    46    47    1
    48    50    47    1
    49    50    52    1
    50    63    61   ar
    51    63    62   ar
    52    70    69    1
    53    96    95    1
    54    96    99    1
    55    61    59   ar
    56    47    48    1
    57    62    60   ar
    58    49    48    2
    59   103   101   ar
    60   103   105   ar
    61   106   105    1
    62   101   100   ar
    63   105   104   ar
    64   100    99    1
    65   100   102   ar
    66   104   102   ar
    67    59    58   ar
    68    69    68    1
    69    87    86    2
    70    60    58   ar
    71    68    65    1
    72    58    57    1
    73    86    85    1
    74    76    73    1
    75    67    66    2
    76    57    54    1
    77    65    66    1
    78    65    64    1
    79    84    85    1
    80    84    79   am
    81    88    85    1
    82    88    89    1
    83    73    72    1
    84    73    74    1
    85    81    78    1
    86    81    82    1
    87    53    54    1
    88    93    92    1
    89    78    79    1
    90    78    77    1
    91    54    55    1
    92    92    94    1
    93    92    91    2
    94    90    91    1
    95    90    89    1
    96    79    80    2
    97    74    75    2
    98    82    83    1
    99    77    83    1
   100    55    56    2
