@<TRIPOS>MOLECULE
tmp/3hiiB00.pdb
 193 190 0 0 0
SMALL
GASTEIGER

@<TRIPOS>ATOM
      1  N         -9.5230  -10.7950   12.4960 N.3   116  ILE116     -0.1245
      2  CA       -10.1240  -10.1130   11.3560 C.3   116  ILE116      0.1561
      3  C         -9.8280   -8.6170   11.4750 C.2   116  ILE116      0.2260
      4  O         -9.4090   -8.1430   12.5420 O.2   116  ILE116     -0.2867
      5  CB       -11.6430  -10.4450   11.2510 C.3   116  ILE116      0.0252
      6  CG1      -12.1840  -10.1350    9.8520 C.3   116  ILE116      0.0019
      7  CG2      -12.4470   -9.7460   12.3560 C.3   116  ILE116      0.0019
      8  CD1      -13.3350  -11.0260    9.4550 C.3   116  ILE116      0.0001
      9  N        -12.9370   -7.0360    6.2480 N.3   121  TYR121     -0.1241
     10  CA       -14.3860   -6.8130    6.1670 C.3   121  TYR121      0.1605
     11  C        -14.8390   -6.1330    4.8770 C.2   121  TYR121      0.2264
     12  O        -15.8170   -6.5640    4.2550 O.2   121  TYR121     -0.2867
     13  CB       -14.8730   -5.9890    7.3610 C.3   121  TYR121      0.0534
     14  CG       -15.0890   -6.7920    8.6190 C.ar  121  TYR121     -0.0201
     15  CD1      -15.9100   -7.9100    8.6100 C.ar  121  TYR121     -0.0009
     16  CD2      -14.5170   -6.4080    9.8320 C.ar  121  TYR121     -0.0009
     17  CE1      -16.1360   -8.6500    9.7590 C.ar  121  TYR121      0.0417
     18  CE2      -14.7380   -7.1430   10.9910 C.ar  121  TYR121      0.0417
     19  CZ       -15.5600   -8.2680   10.9400 C.ar  121  TYR121      0.1957
     20  OH       -15.8110   -9.0210   12.0600 O.3   121  TYR121     -0.2866
     21  N        -24.1370   -8.3180    7.4040 N.3   157  PHE157     -0.1227
     22  CA       -23.7940   -9.6240    7.9260 C.3   157  PHE157      0.1736
     23  C        -23.0370   -9.5620    9.2520 C.2   157  PHE157      0.2596
     24  O        -22.3660   -8.5700    9.5520 O.2   157  PHE157     -0.2718
     25  CB       -23.0070  -10.4310    6.8880 C.3   157  PHE157      0.0547
     26  CG       -21.6040   -9.9480    6.6620 C.ar  157  PHE157     -0.0202
     27  CD1      -20.5580  -10.4390    7.4380 C.ar  157  PHE157     -0.0042
     28  CD2      -21.3210   -9.0270    5.6710 C.ar  157  PHE157     -0.0042
     29  CE1      -19.2500  -10.0170    7.2250 C.ar  157  PHE157     -0.0003
     30  CE2      -20.0110   -8.5890    5.4540 C.ar  157  PHE157     -0.0003
     31  CZ       -18.9770   -9.0860    6.2310 C.ar  157  PHE157     -0.0000
     32  N        -23.1710  -10.6320   10.0330 N.am  158  THR158     -0.1939
     33  CA       -22.4120  -10.8430   11.2490 C.3   158  THR158      0.2028
     34  C        -21.6150  -12.1320   11.0590 C.2   158  THR158      0.2642
     35  O        -22.1900  -13.2090   10.8390 O.2   158  THR158     -0.2714
     36  CB       -23.3580  -10.9930   12.4610 C.3   158  THR158      0.1808
     37  OG1      -24.0280   -9.7480   12.7000 O.3   158  THR158     -0.2208
     38  CG2      -22.6020  -11.4290   13.7190 C.3   158  THR158      0.0379
     39  N        -20.2940  -12.0330   11.1070 N.am  159  ASP159     -0.1971
     40  CA       -19.4880  -13.2430   11.0660 C.3   159  ASP159      0.1709
     41  C        -19.4210  -13.8930   12.4440 C.2   159  ASP159      0.2293
     42  O        -19.4650  -13.2060   13.4850 O.2   159  ASP159     -0.2864
     43  CB       -18.0930  -12.9890   10.4890 C.3   159  ASP159      0.1436
     44  CG       -17.3010  -11.9930   11.2730 C.2   159  ASP159      0.3671
     45  OD1      -17.8680  -10.9510   11.6670 O.co2 159  ASP159     -0.2456
     46  OD2      -16.0960  -12.2390   11.4580 O.co2 159  ASP159     -0.2456
     47  N        -18.0610  -16.5690   24.9500 N.3   316  ALA316     -0.1245
     48  CA       -19.4700  -16.9150   24.8510 C.3   316  ALA316      0.1562
     49  C        -19.5700  -18.1270   23.9210 C.2   316  ALA316      0.2260
     50  O        -19.2370  -18.0530   22.7300 O.2   316  ALA316     -0.2867
     51  CB       -20.2890  -15.7360   24.3350 C.3   316  ALA316      0.0290
     52  N        -17.2020  -17.5020   20.6860 N.3   330  TYR330     -0.1241
     53  CA       -16.5360  -16.2170   20.6290 C.3   330  TYR330      0.1605
     54  C        -15.5360  -16.1360   21.7740 C.2   330  TYR330      0.2264
     55  O        -15.8620  -16.4650   22.9170 O.2   330  TYR330     -0.2867
     56  CB       -17.5210  -15.0480   20.7500 C.3   330  TYR330      0.0534
     57  CG       -18.2860  -14.6740   19.4970 C.ar  330  TYR330     -0.0201
     58  CD1      -17.6300  -14.4010   18.2900 C.ar  330  TYR330     -0.0009
     59  CD2      -19.6720  -14.5340   19.5300 C.ar  330  TYR330     -0.0009
     60  CE1      -18.3550  -14.0250   17.1520 C.ar  330  TYR330      0.0417
     61  CE2      -20.3900  -14.1660   18.4090 C.ar  330  TYR330      0.0417
     62  CZ       -19.7360  -13.9170   17.2210 C.ar  330  TYR330      0.1957
     63  OH       -20.4780  -13.5410   16.1030 O.3   330  TYR330     -0.2866
     64  N        -13.2230  -13.1340   23.0960 N.3   332  ASP332     -0.1239
     65  CA       -13.2030  -11.7030   22.8290 C.3   332  ASP332      0.1674
     66  C        -11.8330  -11.0480   22.8840 C.2   332  ASP332      0.2266
     67  O        -11.6730   -9.9420   22.3810 O.2   332  ASP332     -0.2867
     68  CB       -14.1860  -10.9880   23.7600 C.3   332  ASP332      0.1410
     69  CG       -15.6210  -11.3900   23.4890 C.2   332  ASP332      0.3668
     70  OD1      -15.9610  -11.7380   22.3260 O.co2 332  ASP332     -0.2456
     71  OD2      -16.4160  -11.3780   24.4390 O.co2 332  ASP332     -0.2456
     72  N        -10.6350  -10.1750   19.6300 N.3   335  TRP335     -0.1227
     73  CA       -11.2610   -8.9850   19.0340 C.3   335  TRP335      0.1737
     74  C        -10.7900   -7.6780   19.6840 C.2   335  TRP335      0.2596
     75  O        -11.4280   -6.6450   19.5180 O.2   335  TRP335     -0.2718
     76  CB       -12.7930   -9.0850   19.1730 C.3   335  TRP335      0.0564
     77  CG       -13.3490  -10.2850   18.4860 C.ar  335  TRP335      0.0003
     78  CD1      -13.3970  -11.5450   18.9650 C.ar  335  TRP335      0.0946
     79  CD2      -13.9160  -10.3290   17.1700 C.ar  335  TRP335      0.0152
     80  NE1      -13.9690  -12.3890   18.0370 N.ar  335  TRP335     -0.2442
     81  CE2      -14.2930  -11.6630   16.9230 C.ar  335  TRP335      0.0810
     82  CE3      -14.1390   -9.3670   16.1790 C.ar  335  TRP335      0.0012
     83  CZ2      -14.8790  -12.0660   15.7220 C.ar  335  TRP335      0.0191
     84  CZ3      -14.7130   -9.7660   14.9820 C.ar  335  TRP335      0.0001
     85  CH2      -15.0780  -11.1060   14.7630 C.ar  335  TRP335      0.0015
     86  N         -9.6840   -7.7090   20.4200 N.am  336  GLY336     -0.1957
     87  CA        -9.2240   -6.5170   21.1500 C.3   336  GLY336      0.1869
     88  C        -10.1980   -6.0890   22.2340 C.2   336  GLY336      0.2309
     89  O        -10.7600   -5.0070   22.1840 O.2   336  GLY336     -0.2863
     90  N         -9.6700   -2.6450   23.6790 N.3   339  SER339     -0.1202
     91  CA        -9.6680   -1.4430   22.8410 C.3   339  SER339      0.2020
     92  C        -11.0290   -1.1090   22.2180 C.2   339  SER339      0.2618
     93  O        -11.1130   -0.2990   21.2940 O.2   339  SER339     -0.2717
     94  CB        -8.5750   -1.5390   21.7650 C.3   339  SER339      0.2103
     95  OG        -8.7450   -2.6620   20.9350 O.3   339  SER339     -0.2182
     96  N        -12.0870   -1.7220   22.7420 N.am  340  VAL340     -0.1979
     97  CA       -13.4470   -1.3930   22.3690 C.3   340  VAL340      0.1595
     98  C        -14.1030   -0.7230   23.5810 C.2   340  VAL340      0.2287
     99  O        -15.2990   -0.8960   23.8690 O.2   340  VAL340     -0.2864
    100  CB       -14.2340   -2.6280   21.8700 C.3   340  VAL340      0.0276
    101  CG1      -13.8850   -2.9220   20.3900 C.3   340  VAL340      0.0022
    102  CG2      -14.0000   -3.8480   22.7520 C.3   340  VAL340      0.0022
    103  N        -15.5110    2.0340   24.5900 N.3   342  HIS342     -0.1241
    104  CA       -16.1380    3.1910   23.9700 C.3   342  HIS342      0.1621
    105  C        -16.7540    4.1180   25.0090 C.2   342  HIS342      0.2264
    106  O        -16.8580    3.7710   26.1940 O.2   342  HIS342     -0.2867
    107  CB       -17.1210    2.7580   22.8710 C.3   342  HIS342      0.0745
    108  CG       -16.4350    2.3820   21.5950 C.ar  342  HIS342      0.0817
    109  ND1      -15.7960    3.3070   20.7970 N.ar  342  HIS342     -0.2268
    110  CD2      -16.2430    1.1810   21.0040 C.ar  342  HIS342      0.1154
    111  CE1      -15.2650    2.6940   19.7550 C.ar  342  HIS342      0.1986
    112  NE2      -15.5150    1.4010   19.8610 N.ar  342  HIS342     -0.2212
    113  N         -4.9680   -0.2600   17.4950 N.3   363  TYR363     -0.1227
    114  CA        -5.4240   -1.6080   17.1930 C.3   363  TYR363      0.1736
    115  C         -6.1770   -1.5300   15.8650 C.2   363  TYR363      0.2595
    116  O         -7.2040   -0.8620   15.7890 O.2   363  TYR363     -0.2718
    117  CB        -6.3470   -2.1360   18.3190 C.3   363  TYR363      0.0548
    118  CG        -6.9120   -3.5220   18.0620 C.ar  363  TYR363     -0.0200
    119  CD1       -6.4060   -4.6490   18.7140 C.ar  363  TYR363     -0.0009
    120  CD2       -7.9370   -3.7100   17.1500 C.ar  363  TYR363     -0.0009
    121  CE1       -6.9300   -5.9350   18.4530 C.ar  363  TYR363      0.0417
    122  CE2       -8.4580   -4.9780   16.8780 C.ar  363  TYR363      0.0417
    123  CZ        -7.9640   -6.0800   17.5270 C.ar  363  TYR363      0.1957
    124  OH        -8.5100   -7.3190   17.2180 O.3   363  TYR363     -0.2866
    125  N         -5.6740   -2.2230   14.8420 N.am  364  ASP364     -0.1974
    126  CA        -6.2350   -2.1580   13.4830 C.3   364  ASP364      0.1709
    127  C         -6.5080   -0.7010   13.0560 C.2   364  ASP364      0.2293
    128  O         -7.6290   -0.3360   12.7090 O.2   364  ASP364     -0.2864
    129  CB        -7.5130   -3.0130   13.3790 C.3   364  ASP364      0.1436
    130  CG        -8.0190   -3.1500   11.9460 C.2   364  ASP364      0.3671
    131  OD1       -7.2020   -3.0150   11.0020 O.co2 364  ASP364     -0.2456
    132  OD2       -9.2330   -3.4000   11.7580 O.co2 364  ASP364     -0.2456
    133  N         -9.6610    7.6970   22.5680 N.3   371  TYR371     -0.1241
    134  CA       -10.9450    7.1830   23.0460 C.3   371  TYR371      0.1605
    135  C        -11.4070    8.0190   24.2280 C.2   371  TYR371      0.2264
    136  O        -10.8620    7.8800   25.3240 O.2   371  TYR371     -0.2867
    137  CB       -10.8090    5.7170   23.4590 C.3   371  TYR371      0.0534
    138  CG       -10.8810    4.7650   22.2940 C.ar  371  TYR371     -0.0201
    139  CD1       -9.8810    4.7510   21.3150 C.ar  371  TYR371     -0.0009
    140  CD2      -11.9530    3.8950   22.1500 C.ar  371  TYR371     -0.0009
    141  CE1       -9.9490    3.8830   20.2250 C.ar  371  TYR371      0.0417
    142  CE2      -12.0370    3.0320   21.0680 C.ar  371  TYR371      0.0417
    143  CZ       -11.0330    3.0260   20.1120 C.ar  371  TYR371      0.1957
    144  OH       -11.1250    2.1660   19.0530 O.3   371  TYR371     -0.2866
    145  N        -17.4890   -5.2030   21.6340 N.3   417  VAL417     -0.1231
    146  CA       -16.8880   -5.6220   20.3720 C.3   417  VAL417      0.1692
    147  C        -17.8880   -5.3460   19.2440 C.2   417  VAL417      0.2592
    148  O        -17.5140   -4.8300   18.1710 O.2   417  VAL417     -0.2718
    149  CB       -16.5000   -7.1130   20.3780 C.3   417  VAL417      0.0266
    150  CG1      -15.8820   -7.5430   19.0520 C.3   417  VAL417      0.0020
    151  CG2      -15.4680   -7.3450   21.4850 C.3   417  VAL417      0.0020
    152  N        -19.1560   -5.6440   19.5030 N.am  418  TYR418     -0.1962
    153  CA       -20.1680   -5.6160   18.4640 C.3   418  TYR418      0.1771
    154  C        -21.5660   -5.5490   19.0760 C.2   418  TYR418      0.2619
    155  O        -22.0930   -4.4560   19.2730 O.2   418  TYR418     -0.2715
    156  CB       -19.9840   -6.8630   17.5930 C.3   418  TYR418      0.0574
    157  CG       -20.7880   -6.9330   16.3210 C.ar  418  TYR418     -0.0198
    158  CD1      -20.5440   -6.0520   15.2740 C.ar  418  TYR418     -0.0009
    159  CD2      -21.7540   -7.9240   16.1350 C.ar  418  TYR418     -0.0009
    160  CE1      -21.2620   -6.1370   14.0770 C.ar  418  TYR418      0.0417
    161  CE2      -22.4670   -8.0230   14.9480 C.ar  418  TYR418      0.0417
    162  CZ       -22.2170   -7.1250   13.9260 C.ar  418  TYR418      0.1957
    163  OH       -22.9070   -7.2140   12.7460 O.3   418  TYR418     -0.2866
    164  N        -22.1390   -6.7010   19.4150 N.am  419  ASN419     -0.1972
    165  CA       -23.5250   -6.7880   19.8860 C.3   419  ASN419      0.1688
    166  C        -23.6720   -6.5840   21.3960 C.2   419  ASN419      0.2292
    167  O        -24.5020   -5.7860   21.8390 O.2   419  ASN419     -0.2864
    168  CB       -24.1500   -8.1280   19.4670 C.3   419  ASN419      0.1181
    169  CG       -23.3750   -9.3210   19.9730 C.2   419  ASN419      0.2629
    170  OD1      -22.2100   -9.4840   19.6430 O.2   419  ASN419     -0.2716
    171  ND2      -24.0170  -10.1590   20.7900 N.am  419  ASN419     -0.0877
    172  N        -19.8700   -5.4730   27.7500 N.3   421  TYR421     -0.1241
    173  CA       -19.4840   -5.8930   29.0750 C.3   421  TYR421      0.1605
    174  C        -19.0100   -4.6920   29.8750 C.2   421  TYR421      0.2264
    175  O        -18.3630   -3.7810   29.3540 O.2   421  TYR421     -0.2867
    176  CB       -18.4720   -7.0250   29.0040 C.3   421  TYR421      0.0534
    177  CG       -19.0330   -8.1980   28.2330 C.ar  421  TYR421     -0.0201
    178  CD1      -20.0340   -8.9900   28.7690 C.ar  421  TYR421     -0.0009
    179  CD2      -18.6030   -8.4760   26.9490 C.ar  421  TYR421     -0.0009
    180  CE1      -20.5660  -10.0430   28.0600 C.ar  421  TYR421      0.0417
    181  CE2      -19.1260   -9.5320   26.2360 C.ar  421  TYR421      0.0417
    182  CZ       -20.1070  -10.3130   26.7960 C.ar  421  TYR421      0.1957
    183  OH       -20.6150  -11.3700   26.0760 O.3   421  TYR421     -0.2866
    184  N        -26.5080  -12.5210   20.9370 N.3   444  HIS444     -0.1241
    185  CA       -26.1480  -13.1810   19.6860 C.3   444  HIS444      0.1621
    186  C        -27.3190  -14.0810   19.2970 C.2   444  HIS444      0.2264
    187  O        -27.6830  -14.9850   20.0400 O.2   444  HIS444     -0.2867
    188  CB       -24.8720  -13.9910   19.8870 C.3   444  HIS444      0.0745
    189  CG       -24.3370  -14.6210   18.6400 C.ar  444  HIS444      0.0817
    190  ND1      -24.0680  -13.8990   17.4980 N.ar  444  HIS444     -0.2268
    191  CD2      -23.9760  -15.9020   18.3740 C.ar  444  HIS444      0.1154
    192  CE1      -23.5790  -14.7100   16.5750 C.ar  444  HIS444      0.1986
    193  NE2      -23.5120  -15.9310   17.0820 N.ar  444  HIS444     -0.2212
@<TRIPOS>BOND
     1    12    11    2
     2    11    10    1
     3    30    28   ar
     4    30    31   ar
     5    28    26   ar
     6    10     9    1
     7    10    13    1
     8    31    29   ar
     9    26    25    1
    10    26    27   ar
    11    25    22    1
    12    29    27   ar
    13    13    14    1
    14    21    22    1
    15    22    23    1
    16    15    14   ar
    17    15    17   ar
    18    14    16   ar
    19    23    24    2
    20    23    32   am
    21     8     6    1
    22    17    19   ar
    23    16    18   ar
    24     6     5    1
    25    32    33    1
    26    43    40    1
    27    43    44    1
    28    35    34    2
    29    19    18   ar
    30    19    20    1
    31   131   130   ar
    32    34    39   am
    33    34    33    1
    34    40    39    1
    35    40    41    1
    36    33    36    1
    37     5     2    1
    38     5     7    1
    39    44    46   ar
    40    44    45   ar
    41     2     3    1
    42     2     1    1
    43     3     4    2
    44   132   130   ar
    45   130   129    1
    46    41    42    2
    47    36    37    1
    48    36    38    1
    49   128   127    2
    50   163   162    1
    51   127   126    1
    52   129   126    1
    53   126   125    1
    54   162   160   ar
    55   162   161   ar
    56   160   158   ar
    57    85    84   ar
    58    85    83   ar
    59   125   115   am
    60   161   159   ar
    61    84    82   ar
    62   158   157   ar
    63    83    81   ar
    64   116   115    2
    65   115   114    1
    66    63    62    1
    67   159   157   ar
    68    82    79   ar
    69   157   156    1
    70   192   193   ar
    71   192   190   ar
    72   122   120   ar
    73   122   123   ar
    74    81    79   ar
    75    81    80   ar
    76   193   191   ar
    77   120   118   ar
    78    60    62   ar
    79    60    58   ar
    80    79    77   ar
    81   114   113    1
    82   114   117    1
    83   124   123    1
    84    62    61   ar
    85   190   189   ar
    86   123   121   ar
    87   156   153    1
    88    80    78   ar
    89   118   117    1
    90   118   119   ar
    91   148   147    2
    92    58    57   ar
    93   191   189   ar
    94    61    59   ar
    95   121   119   ar
    96   153   154    1
    97   153   152    1
    98    77    78   ar
    99    77    76    1
   100   189   188    1
   101    73    76    1
   102    73    72    1
   103    73    74    1
   104   150   149    1
   105   144   143    1
   106   154   155    2
   107   154   164   am
   108   147   152   am
   109   147   146    1
   110   186   185    1
   111   186   187    2
   112   164   165    1
   113   168   165    1
   114   168   169    1
   115    57    59   ar
   116    57    56    1
   117    75    74    2
   118   170   169    2
   119    74    86   am
   120   185   188    1
   121   185   184    1
   122   111   112   ar
   123   111   109   ar
   124   112   110   ar
   125   165   166    1
   126   169   171   am
   127   143   141   ar
   128   143   142   ar
   129   141   139   ar
   130   146   149    1
   131   146   145    1
   132   149   151    1
   133   101   100    1
   134    86    87    1
   135    53    52    1
   136    53    56    1
   137    53    54    1
   138   109   108   ar
   139    95    94    1
   140   110   108   ar
   141   142   140   ar
   142    87    88    1
   143    93    92    2
   144   139   138   ar
   145   166   167    2
   146   108   107    1
   147    94    91    1
   148    54    55    2
   149   100    97    1
   150   100   102    1
   151   140   138   ar
   152    89    88    2
   153    92    96   am
   154    92    91    1
   155   138   137    1
   156    70    69   ar
   157    97    96    1
   158    97    98    1
   159    67    66    2
   160   133   134    1
   161    50    49    2
   162    65    66    1
   163    65    64    1
   164    65    68    1
   165    91    90    1
   166   107   104    1
   167   134   137    1
   168   134   135    1
   169    69    68    1
   170    69    71   ar
   171    98    99    2
   172    49    48    1
   173   104   103    1
   174   104   105    1
   175   135   136    2
   176    51    48    1
   177    48    47    1
   178   105   106    2
   179   183   182    1
   180   181   182   ar
   181   181   179   ar
   182   182   180   ar
   183   179   177   ar
   184   172   173    1
   185   180   178   ar
   186   177   178   ar
   187   177   176    1
   188   176   173    1
   189   173   174    1
   190   175   174    2
