@<TRIPOS>MOLECULE
tmp/3hikA00.pdb
 150 149 0 0 0
SMALL
GASTEIGER

@<TRIPOS>ATOM
      1  N         -3.9510   -4.5480  -13.4040 N.3    42  SER42      -0.1202
      2  CA        -5.1780   -5.3220  -13.4030 C.3    42  SER42       0.2020
      3  C         -6.0080   -5.1870  -12.1470 C.2    42  SER42       0.2619
      4  O         -7.2320   -5.3550  -12.2010 O.2    42  SER42      -0.2717
      5  CB        -4.8880   -6.7960  -13.6510 C.3    42  SER42       0.2103
      6  OG        -3.8240   -7.2360  -12.8860 O.3    42  SER42      -0.2182
      7  N         -5.3300   -4.8410  -11.0510 N.am   43  LYS43      -0.1965
      8  CA        -6.0200   -4.5080   -9.7650 C.3    43  LYS43       0.1728
      9  C         -5.2240   -3.4350   -9.0060 C.2    43  LYS43       0.2616
     10  O         -4.0270   -3.3360   -9.1840 O.2    43  LYS43      -0.2715
     11  CB        -6.1320   -5.7500   -8.8700 C.3    43  LYS43       0.0311
     12  CG        -6.7160   -6.9560   -9.5850 C.3    43  LYS43       0.0038
     13  CD        -6.7080   -8.2140   -8.6560 C.3    43  LYS43       0.0206
     14  CE        -7.3650   -9.3790   -9.4350 C.3    43  LYS43       0.1093
     15  NZ        -7.4260  -10.5980   -8.5160 N.3    43  LYS43      -0.1314
     16  N         -5.9100   -2.6880   -8.1600 N.am   44  TRP44      -0.1960
     17  CA        -5.2430   -1.7210   -7.2740 C.3    44  TRP44       0.1771
     18  C         -6.1160   -1.4780   -6.0050 C.2    44  TRP44       0.2620
     19  O         -7.3590   -1.6560   -5.9830 O.2    44  TRP44      -0.2715
     20  CB        -4.8820   -0.3940   -8.0150 C.3    44  TRP44       0.0590
     21  CG        -6.0710    0.3190   -8.5150 C.ar   44  TRP44       0.0006
     22  CD1       -6.5860    0.2520   -9.8130 C.ar   44  TRP44       0.0946
     23  CD2       -6.9280    1.2320   -7.8020 C.ar   44  TRP44       0.0152
     24  NE1       -7.7030    1.0000   -9.9110 N.ar   44  TRP44      -0.2442
     25  CE2       -7.9470    1.6280   -8.7070 C.ar   44  TRP44       0.0810
     26  CE3       -6.9430    1.7600   -6.4780 C.ar   44  TRP44       0.0012
     27  CZ2       -8.9670    2.5090   -8.3520 C.ar   44  TRP44       0.0191
     28  CZ3       -7.9840    2.6410   -6.1170 C.ar   44  TRP44       0.0001
     29  CH2       -8.9660    3.0270   -7.0550 C.ar   44  TRP44       0.0015
     30  N         -5.3970   -1.0860   -4.9440 N.am   45  VAL45      -0.1963
     31  CA        -5.9640   -0.7490   -3.6280 C.3    45  VAL45       0.1727
     32  C         -5.2100    0.4840   -3.0670 C.2    45  VAL45       0.2616
     33  O         -3.9960    0.4230   -2.8350 O.2    45  VAL45      -0.2715
     34  CB        -6.1270   -1.9510   -2.6530 C.3    45  VAL45       0.0290
     35  CG1       -4.8750   -2.7740   -2.5360 C.3    45  VAL45       0.0023
     36  CG2       -6.6370   -1.4790   -1.2650 C.3    45  VAL45       0.0023
     37  N         -5.9570    1.5590   -2.8480 N.am   46  ASP46      -0.1971
     38  CA        -5.4270    2.7740   -2.2470 C.3    46  ASP46       0.1709
     39  C         -5.5490    2.6710   -0.7260 C.2    46  ASP46       0.2293
     40  O         -6.6110    2.9420   -0.1770 O.2    46  ASP46      -0.2864
     41  CB        -6.1800    3.9960   -2.7120 C.3    46  ASP46       0.1436
     42  CG        -5.6080    5.2840   -2.0980 C.2    46  ASP46       0.3671
     43  OD1       -4.6110    5.1860   -1.3400 O.co2  46  ASP46      -0.2456
     44  OD2       -6.1400    6.3450   -2.3970 O.co2  46  ASP46      -0.2456
     45  N         -3.8660    6.3080    3.0760 N.3    49  ASP49      -0.1239
     46  CA        -4.1010    6.7720    4.4750 C.3    49  ASP49       0.1674
     47  C         -3.0790    6.1830    5.4600 C.2    49  ASP49       0.2266
     48  O         -2.6780    6.8640    6.4140 O.2    49  ASP49      -0.2867
     49  CB        -5.5110    6.4020    4.9440 C.3    49  ASP49       0.1410
     50  CG        -6.5700    7.3150    4.3540 C.2    49  ASP49       0.3668
     51  OD1       -6.6000    8.5090    4.7240 O.co2  49  ASP49      -0.2456
     52  OD2       -7.3720    6.8450    3.5220 O.co2  49  ASP49      -0.2456
     53  N         -5.4990   -9.5060   -0.4010 N.3   115  TYR115     -0.1241
     54  CA        -6.7500   -8.7370   -0.5150 C.3   115  TYR115      0.1605
     55  C         -7.2710   -8.7100   -1.9570 C.2   115  TYR115      0.2264
     56  O         -8.4620   -8.8780   -2.2320 O.2   115  TYR115     -0.2867
     57  CB        -6.6240   -7.2560   -0.0590 C.3   115  TYR115      0.0534
     58  CG        -7.9910   -6.5730   -0.1690 C.ar  115  TYR115     -0.0201
     59  CD1       -9.0120   -6.8630    0.7430 C.ar  115  TYR115     -0.0009
     60  CD2       -8.3170   -5.7340   -1.2550 C.ar  115  TYR115     -0.0009
     61  CE1      -10.3020   -6.2800    0.6170 C.ar  115  TYR115      0.0417
     62  CE2       -9.5790   -5.1670   -1.3970 C.ar  115  TYR115      0.0417
     63  CZ       -10.5800   -5.4330   -0.4670 C.ar  115  TYR115      0.1957
     64  OH       -11.8560   -4.8820   -0.6200 O.3   115  TYR115     -0.2866
     65  N        -10.7710  -10.4700   -3.4030 N.3   119  HIS119     -0.1226
     66  CA       -11.9240   -9.5470   -3.5550 C.3   119  HIS119      0.1752
     67  C        -12.1970   -8.8490   -4.9200 C.2   119  HIS119      0.2596
     68  O        -13.3480   -8.5570   -5.2590 O.2   119  HIS119     -0.2718
     69  CB       -11.8910   -8.4800   -2.4830 C.3   119  HIS119      0.0759
     70  CG       -12.0000   -9.0240   -1.0940 C.ar  119  HIS119      0.0818
     71  ND1      -10.9180   -9.1070   -0.2450 N.ar  119  HIS119     -0.2268
     72  CD2      -13.0530   -9.5420   -0.4200 C.ar  119  HIS119      0.1154
     73  CE1      -11.3040   -9.6260    0.9060 C.ar  119  HIS119      0.1986
     74  NE2      -12.5910   -9.9070    0.8240 N.ar  119  HIS119     -0.2212
     75  N        -11.1450   -8.6270   -5.6880 N.am  120  LEU120     -0.1966
     76  CA       -11.1880   -7.7040   -6.8390 C.3   120  LEU120      0.1728
     77  C        -11.1580   -8.4700   -8.1600 C.2   120  LEU120      0.2616
     78  O        -10.5600   -9.5160   -8.2420 O.2   120  LEU120     -0.2715
     79  CB        -9.9810   -6.7600   -6.7620 C.3   120  LEU120      0.0311
     80  CG        -9.9230   -5.9030   -5.4760 C.3   120  LEU120      0.0022
     81  CD1       -8.8180   -4.8490   -5.5840 C.3   120  LEU120      0.0001
     82  CD2      -11.2250   -5.2160   -5.1000 C.3   120  LEU120      0.0001
     83  N        -11.8050   -7.9230   -9.1810 N.am  121  LEU121     -0.1977
     84  CA       -11.8030   -8.5430  -10.5200 C.3   121  LEU121      0.1596
     85  C        -10.5080   -8.1860  -11.2590 C.2   121  LEU121      0.2287
     86  O         -9.9090   -7.1370  -10.9890 O.2   121  LEU121     -0.2864
     87  CB       -13.0210   -8.0680  -11.3250 C.3   121  LEU121      0.0297
     88  CG       -14.3920   -8.0680  -10.6560 C.3   121  LEU121      0.0022
     89  CD1      -15.4990   -7.6970  -11.6210 C.3   121  LEU121      0.0001
     90  CD2      -14.7140   -9.4190  -10.0170 C.3   121  LEU121      0.0001
     91  N         -5.4980   10.6000   -8.4600 N.3   146  ARG146     -0.1245
     92  CA        -6.8920   10.4400   -8.7700 C.3   146  ARG146      0.1563
     93  C         -7.4830   11.7920   -9.0710 C.2   146  ARG146      0.2260
     94  O         -7.0030   12.8180   -8.5680 O.2   146  ARG146     -0.2867
     95  CB        -7.6190    9.7850   -7.6000 C.3   146  ARG146      0.0307
     96  CG        -7.4030   10.5250   -6.2860 C.3   146  ARG146      0.0489
     97  CD        -8.3650    9.9950   -5.1900 C.3   146  ARG146      0.2205
     98  NE        -7.9820    8.6690   -4.6750 N.pl3 146  ARG146     -0.0865
     99  CZ        -8.6620    7.5470   -4.8880 C.cat 146  ARG146      0.5346
    100  NH1       -8.2180    6.4020   -4.3550 N.pl3 146  ARG146      0.1354
    101  NH2       -9.7830    7.5710   -5.5960 N.pl3 146  ARG146      0.1354
    102  N         -8.0780    4.6320  -15.5230 N.3   163  ASN163     -0.1225
    103  CA        -9.3510    3.9380  -15.2360 C.3   163  ASN163      0.1785
    104  C        -10.4640    4.9030  -14.8830 C.2   163  ASN163      0.2597
    105  O        -10.3870    5.6220  -13.8910 O.2   163  ASN163     -0.2718
    106  CB        -9.2360    2.8350  -14.0780 C.3   163  ASN163      0.1169
    107  CG        -8.2510    1.7190  -14.3650 C.2   163  ASN163      0.2627
    108  OD1       -8.1250    0.7930  -13.5350 O.2   163  ASN163     -0.2716
    109  ND2       -7.5690    1.7380  -15.4980 N.am  163  ASN163     -0.0877
    110  N        -11.4930    4.9540  -15.7280 N.am  164  PHE164     -0.1962
    111  CA       -12.6620    5.8150  -15.5080 C.3   164  PHE164      0.1771
    112  C        -13.6050    5.1150  -14.5210 C.2   164  PHE164      0.2619
    113  O        -13.9930    3.9650  -14.7550 O.2   164  PHE164     -0.2715
    114  CB       -13.3360    6.1280  -16.8400 C.3   164  PHE164      0.0574
    115  CG       -12.4920    7.0050  -17.7020 C.ar  164  PHE164     -0.0200
    116  CD1      -12.5050    8.3830  -17.5140 C.ar  164  PHE164     -0.0042
    117  CD2      -11.6130    6.4650  -18.6230 C.ar  164  PHE164     -0.0042
    118  CE1      -11.6950    9.2360  -18.2860 C.ar  164  PHE164     -0.0003
    119  CE2      -10.7870    7.3120  -19.4120 C.ar  164  PHE164     -0.0003
    120  CZ       -10.8430    8.6860  -19.2290 C.ar  164  PHE164     -0.0000
    121  N        -13.8980    5.7920  -13.4100 N.am  165  PHE165     -0.1974
    122  CA       -14.6550    5.1930  -12.2880 C.3   165  PHE165      0.1639
    123  C        -16.0890    4.8710  -12.6380 C.2   165  PHE165      0.2290
    124  O        -16.5990    3.7800  -12.3310 O.2   165  PHE165     -0.2864
    125  CB       -14.6550    6.1120  -11.0670 C.3   165  PHE165      0.0560
    126  CG       -13.2890    6.4040  -10.5060 C.ar  165  PHE165     -0.0200
    127  CD1      -12.3370    5.4080  -10.3330 C.ar  165  PHE165     -0.0042
    128  CD2      -12.9770    7.6860  -10.0920 C.ar  165  PHE165     -0.0042
    129  CE1      -11.0660    5.7290   -9.7620 C.ar  165  PHE165     -0.0003
    130  CE2      -11.7410    7.9810   -9.5320 C.ar  165  PHE165     -0.0003
    131  CZ       -10.7950    7.0180   -9.3760 C.ar  165  PHE165     -0.0000
    132  N        -16.3990    2.1330  -15.8830 N.3   168  HIS168     -0.1241
    133  CA       -15.4020    1.0670  -15.9040 C.3   168  HIS168      0.1621
    134  C        -14.5530    1.0030  -17.1660 C.2   168  HIS168      0.2264
    135  O        -13.8770    0.0020  -17.4050 O.2   168  HIS168     -0.2867
    136  CB       -16.0070   -0.2980  -15.5120 C.3   168  HIS168      0.0745
    137  CG       -16.8550   -0.2090  -14.2900 C.ar  168  HIS168      0.0817
    138  ND1      -16.3250    0.0990  -13.0600 N.ar  168  HIS168     -0.2268
    139  CD2      -18.1970   -0.2500  -14.1230 C.ar  168  HIS168      0.1154
    140  CE1      -17.3010    0.1910  -12.1690 C.ar  168  HIS168      0.1986
    141  NE2      -18.4470   -0.0170  -12.7900 N.ar  168  HIS168     -0.2212
    142  N        -11.3680    2.0300  -19.6340 N.3   170  LYS170     -0.1245
    143  CA        -9.9690    2.1650  -19.2940 C.3   170  LYS170      0.1561
    144  C         -9.1570    2.4050  -20.5630 C.2   170  LYS170      0.2260
    145  O         -9.4150    1.7820  -21.5980 O.2   170  LYS170     -0.2867
    146  CB        -9.4240    0.9160  -18.5910 C.3   170  LYS170      0.0271
    147  CG       -10.2650    0.4640  -17.3660 C.3   170  LYS170      0.0035
    148  CD        -9.7110   -0.8400  -16.7690 C.3   170  LYS170      0.0206
    149  CE       -10.4930   -1.2050  -15.4910 C.3   170  LYS170      0.1093
    150  NZ       -11.9060   -1.4310  -15.8560 N.3   170  LYS170     -0.1314
@<TRIPOS>BOND
     1   145   144    2
     2   144   143    1
     3   142   143    1
     4   119   120   ar
     5   119   117   ar
     6   143   146    1
     7   120   118   ar
     8   117   115   ar
     9   146   147    1
    10   118   116   ar
    11   115   116   ar
    12   115   114    1
    13   135   134    2
    14   147   148    1
    15   134   133    1
    16   114   111    1
    17   148   149    1
    18   133   132    1
    19   133   136    1
    20   150   149    1
    21   110   111    1
    22   110   104   am
    23   102   103    1
    24   136   137    1
    25   111   112    1
    26   109   107   am
    27   103   104    1
    28   103   106    1
    29   104   105    2
    30   113   112    2
    31   112   121   am
    32   107   106    1
    33   107   108    2
    34   137   139   ar
    35   137   138   ar
    36   139   141   ar
    37     5     2    1
    38     5     6    1
    39   121   122    1
    40     1     2    1
    41     2     3    1
    42   138   140   ar
    43   141   140   ar
    44   123   124    2
    45   123   122    1
    46   122   125    1
    47     4     3    2
    48     3     7   am
    49    89    88    1
    50    87    88    1
    51    87    84    1
    52    85    86    2
    53    85    84    1
    54   125   126    1
    55     7     8    1
    56    88    90    1
    57    84    83    1
    58   126   127   ar
    59   126   128   ar
    60   127   129   ar
    61   128   130   ar
    62    24    22   ar
    63    24    25   ar
    64    22    21   ar
    65     8     9    1
    66     8    11    1
    67   129   131   ar
    68    12    11    1
    69    12    13    1
    70   130   131   ar
    71    14    13    1
    72    14    15    1
    73    10     9    2
    74    83    77   am
    75    93    92    1
    76    93    94    2
    77     9    16   am
    78    92    91    1
    79    92    95    1
    80    25    27   ar
    81    25    23   ar
    82    21    20    1
    83    21    23   ar
    84    27    29   ar
    85    78    77    2
    86    77    76    1
    87    16    17    1
    88    20    17    1
    89    23    26   ar
    90    95    96    1
    91    17    18    1
    92    29    28   ar
    93    76    79    1
    94    76    75    1
    95    79    80    1
    96    26    28   ar
    97    96    97    1
    98    18    19    2
    99    18    30   am
   100    75    67   am
   101   101    99    1
   102    81    80    1
   103    80    82    1
   104    68    67    2
   105    97    98    1
   106    30    31    1
   107    67    66    1
   108    99    98    2
   109    99   100    1
   110    31    32    1
   111    31    34    1
   112    66    65    1
   113    66    69    1
   114    32    37   am
   115    32    33    2
   116    37    38    1
   117    41    38    1
   118    41    42    1
   119    34    35    1
   120    34    36    1
   121    69    70    1
   122    44    42   ar
   123    38    39    1
   124    56    55    2
   125    42    43   ar
   126    55    54    1
   127    62    60   ar
   128    62    63   ar
   129    60    58   ar
   130    70    72   ar
   131    70    71   ar
   132    39    40    2
   133    64    63    1
   134    54    53    1
   135    54    57    1
   136    63    61   ar
   137    72    74   ar
   138    71    73   ar
   139    58    57    1
   140    58    59   ar
   141    61    59   ar
   142    74    73   ar
   143    45    46    1
   144    52    50   ar
   145    50    51   ar
   146    50    49    1
   147    46    49    1
   148    46    47    1
   149    47    48    2
