@<TRIPOS>MOLECULE
tmp/3hj0A00.pdb
 72 66 0 0 0
SMALL
GASTEIGER

@<TRIPOS>ATOM
      1  N          3.8330  -11.0020    0.5750 N.3     3  MET3       -0.1245
      2  CA         2.5240  -10.3720    0.7060 C.3     3  MET3        0.1570
      3  C          2.0210  -10.0260   -0.6760 C.2     3  MET3        0.2261
      4  O          2.7760   -9.7270   -1.5780 O.2     3  MET3       -0.2867
      5  CB         2.5810   -9.1270    1.5970 C.3     3  MET3        0.0387
      6  CG         1.2470   -8.4600    1.9540 C.3     3  MET3        0.0595
      7  SD         0.6570   -7.2060    0.7820 S.3     3  MET3       -0.1393
      8  CE         1.5280   -5.7390    1.3430 C.3     3  MET3        0.0692
      9  N         -1.0410   -7.7300   -2.7840 N.3     5  LYS5       -0.1245
     10  CA        -1.9850   -6.6400   -2.6090 C.3     5  LYS5        0.1561
     11  C         -2.6680   -6.3880   -3.9190 C.2     5  LYS5        0.2260
     12  O         -1.9630   -6.3530   -4.9410 O.2     5  LYS5       -0.2867
     13  CB        -1.2660   -5.3790   -2.1530 C.3     5  LYS5        0.0271
     14  CG        -2.2910   -4.2850   -1.9980 C.3     5  LYS5        0.0035
     15  CD        -1.6440   -2.9210   -1.8640 C.3     5  LYS5        0.0206
     16  CE        -2.3280   -2.1640   -0.7320 C.3     5  LYS5        0.1093
     17  NZ        -1.2500   -1.6850    0.0670 N.3     5  LYS5       -0.1314
     18  N         -5.7070   -4.2550   -6.1900 N.3     7  LEU7       -0.1245
     19  CA        -6.5640   -3.0710   -6.3170 C.3     7  LEU7        0.1561
     20  C         -7.4210   -3.2190   -7.5670 C.2     7  LEU7        0.2260
     21  O         -7.0480   -3.8740   -8.5430 O.2     7  LEU7       -0.2867
     22  CB        -5.6900   -1.8240   -6.4660 C.3     7  LEU7        0.0270
     23  CG        -4.8250   -1.4400   -5.2690 C.3     7  LEU7        0.0019
     24  CD1       -4.0300   -0.1600   -5.5980 C.3     7  LEU7        0.0001
     25  CD2       -5.6920   -1.2710   -4.0190 C.3     7  LEU7        0.0001
     26  N         -5.4320   -6.9090    0.7710 N.3    44  GLU44      -0.1245
     27  CA        -4.1450   -7.4800    1.1600 C.3    44  GLU44       0.1567
     28  C         -4.2710   -8.9210    1.6080 C.2    44  GLU44       0.2260
     29  O         -5.2400   -9.3240    2.2290 O.2    44  GLU44      -0.2867
     30  CB        -3.4930   -6.6530    2.2810 C.3    44  GLU44       0.0388
     31  CG        -3.1830   -5.2250    1.8200 C.3    44  GLU44       0.1160
     32  CD        -2.3560   -4.3810    2.7630 C.2    44  GLU44       0.3649
     33  OE1       -1.9370   -4.8520    3.8350 O.co2  44  GLU44      -0.2457
     34  OE2       -2.1750   -3.1870    2.4070 O.co2  44  GLU44      -0.2457
     35  N          2.1210   -6.6390   -6.0270 N.3    98  ALA98      -0.1231
     36  CA         0.9350   -5.8240   -6.1760 C.3    98  ALA98       0.1694
     37  C          0.3790   -5.9450   -7.5790 C.2    98  ALA98       0.2592
     38  O          1.1250   -6.0790   -8.5630 O.2    98  ALA98      -0.2718
     39  CB         1.2700   -4.3810   -5.8660 C.3    98  ALA98       0.0304
     40  N         -0.9400   -5.8950   -7.6650 N.am   99  ALA99      -0.1966
     41  CA        -1.6400   -5.9680   -8.9260 C.3    99  ALA99       0.1728
     42  C         -2.7970   -4.9790   -8.9340 C.2    99  ALA99       0.2616
     43  O         -3.4700   -4.7780   -7.9210 O.2    99  ALA99      -0.2715
     44  CB        -2.1510   -7.3830   -9.1860 C.3    99  ALA99       0.0334
     45  N         -3.0360   -4.4350  -10.1190 N.am  100  LEU100     -0.1977
     46  CA        -4.1130   -3.4680  -10.3870 C.3   100  LEU100      0.1596
     47  C         -4.9330   -4.0210  -11.5290 C.2   100  LEU100      0.2287
     48  O         -4.3930   -4.2280  -12.6130 O.2   100  LEU100     -0.2864
     49  CB        -3.4900   -2.1140  -10.7390 C.3   100  LEU100      0.0297
     50  CG        -4.4430   -1.0220  -11.1290 C.3   100  LEU100      0.0022
     51  CD1       -5.4070   -0.6610  -10.0220 C.3   100  LEU100      0.0001
     52  CD2       -3.6360    0.2270  -11.5690 C.3   100  LEU100      0.0001
     53  N         -1.9780   -4.6470  -14.3720 N.3   107  SER107     -0.1202
     54  CA        -0.6030   -4.2020  -14.0720 C.3   107  SER107      0.2020
     55  C         -0.1310   -4.9510  -12.8290 C.2   107  SER107      0.2619
     56  O         -0.9290   -5.1550  -11.9100 O.2   107  SER107     -0.2717
     57  CB        -0.6490   -2.6820  -13.8210 C.3   107  SER107      0.2103
     58  OG         0.5650   -2.1000  -13.3450 O.3   107  SER107     -0.2182
     59  N          1.1420   -5.2950  -12.7720 N.am  108  THR108     -0.1938
     60  CA         1.7150   -5.8530  -11.5890 C.3   108  THR108      0.2028
     61  C          3.0970   -5.2850  -11.3490 C.2   108  THR108      0.2642
     62  O          3.8180   -5.0250  -12.3100 O.2   108  THR108     -0.2714
     63  CB         1.6920   -7.3870  -11.7280 C.3   108  THR108      0.1808
     64  OG1        2.1510   -7.9740  -10.5090 O.3   108  THR108     -0.2208
     65  CG2        2.5390   -7.8930  -12.9620 C.3   108  THR108      0.0379
     66  N          3.4620   -5.1290  -10.0870 N.am  109  THR109     -0.1950
     67  CA         4.8040   -4.7120   -9.7040 C.3   109  THR109      0.1897
     68  C          5.2380   -5.4600   -8.4630 C.2   109  THR109      0.2313
     69  O          4.4390   -6.0870   -7.7970 O.2   109  THR109     -0.2863
     70  CB         4.9090   -3.1800   -9.5120 C.3   109  THR109      0.1794
     71  OG1        6.2940   -2.8230   -9.5610 O.3   109  THR109     -0.2208
     72  CG2        4.2510   -2.7090   -8.2310 C.3   109  THR109      0.0378
@<TRIPOS>BOND
     1    53    54    1
     2    54    57    1
     3    54    55    1
     4    57    58    1
     5    65    63    1
     6    55    59   am
     7    55    56    2
     8    59    60    1
     9    48    47    2
    10    62    61    2
    11    63    60    1
    12    63    64    1
    13    60    61    1
    14    52    50    1
    15    47    46    1
    16    61    66   am
    17    50    49    1
    18    50    51    1
    19    49    46    1
    20    46    45    1
    21    45    42   am
    22    66    67    1
    23    67    70    1
    24    67    68    1
    25    71    70    1
    26    70    72    1
    27    44    41    1
    28    42    41    1
    29    42    43    2
    30    41    40    1
    31    38    37    2
    32    21    20    2
    33    68    69    2
    34    40    37   am
    35    37    36    1
    36    20    19    1
    37    22    19    1
    38    22    23    1
    39    19    18    1
    40    36    35    1
    41    36    39    1
    42    24    23    1
    43    23    25    1
    44    12    11    2
    45    11    10    1
    46     9    10    1
    47    10    13    1
    48    13    14    1
    49    14    15    1
    50    15    16    1
    51     4     3    2
    52    16    17    1
    53     3     2    1
    54     1     2    1
    55     2     5    1
    56    26    27    1
    57     7     8    1
    58     7     6    1
    59    27    28    1
    60    27    30    1
    61     5     6    1
    62    28    29    2
    63    31    30    1
    64    31    32    1
    65    34    32   ar
    66    32    33   ar
