@<TRIPOS>MOLECULE
tmp/3hj1B00.pdb
 187 173 0 0 0
SMALL
GASTEIGER

@<TRIPOS>ATOM
      1  N         17.0150   30.4800   26.5190 N.3    54  PHE54      -0.1227
      2  CA        17.6080   31.8000   26.3140 C.3    54  PHE54       0.1736
      3  C         19.1020   31.7900   26.7040 C.2    54  PHE54       0.2596
      4  O         19.6700   30.7390   27.0350 O.2    54  PHE54      -0.2718
      5  CB        16.8090   32.9080   27.0270 C.3    54  PHE54       0.0547
      6  CG        16.8240   32.8310   28.5380 C.ar   54  PHE54      -0.0202
      7  CD1       16.0420   31.8950   29.2130 C.ar   54  PHE54      -0.0042
      8  CD2       17.5740   33.7450   29.2850 C.ar   54  PHE54      -0.0042
      9  CE1       16.0240   31.8520   30.6110 C.ar   54  PHE54      -0.0003
     10  CE2       17.5790   33.7150   30.6940 C.ar   54  PHE54      -0.0003
     11  CZ        16.8080   32.7620   31.3580 C.ar   54  PHE54      -0.0000
     12  N         19.7510   32.9450   26.6260 N.am   55  GLY55      -0.1942
     13  CA        21.1890   32.9900   26.7820 C.3    55  GLY55       0.2014
     14  C         21.9140   32.7080   25.4810 C.2    55  GLY55       0.2639
     15  O         21.3320   32.8080   24.3770 O.2    55  GLY55      -0.2714
     16  N         23.1930   32.3710   25.6130 N.am   56  SER56      -0.1949
     17  CA        24.1140   32.3010   24.4610 C.3    56  SER56       0.1924
     18  C         23.8060   31.2370   23.4160 C.2    56  SER56       0.2314
     19  O         24.1850   31.4160   22.2680 O.2    56  SER56      -0.2863
     20  CB        25.5750   32.2170   24.8860 C.3    56  SER56       0.2116
     21  OG        25.7490   31.2830   25.9270 O.3    56  SER56      -0.2180
     22  N         21.3120   33.3450   21.4140 N.3    59  SER59      -0.1217
     23  CA        21.9480   34.4860   20.7520 C.3    59  SER59       0.1889
     24  C         22.9390   33.9720   19.7190 C.2    59  SER59       0.2288
     25  O         23.1400   34.5730   18.6600 O.2    59  SER59      -0.2866
     26  CB        22.6740   35.3710   21.7660 C.3    59  SER59       0.2089
     27  OG        23.7850   34.6660   22.2800 O.3    59  SER59      -0.2183
     28  N         26.0880   33.5320   20.5070 N.3    61  PHE61      -0.1241
     29  CA        27.4120   33.9010   21.0130 C.3    61  PHE61       0.1605
     30  C         27.8860   32.8580   22.0150 C.2    61  PHE61       0.2264
     31  O         28.1490   33.1680   23.1810 O.2    61  PHE61      -0.2867
     32  CB        27.3850   35.2920   21.6720 C.3    61  PHE61       0.0534
     33  CG        27.0780   36.4430   20.7190 C.ar   61  PHE61      -0.0203
     34  CD1       27.8110   36.6330   19.5570 C.ar   61  PHE61      -0.0042
     35  CD2       26.0770   37.3600   21.0340 C.ar   61  PHE61      -0.0042
     36  CE1       27.5330   37.7050   18.7070 C.ar   61  PHE61      -0.0003
     37  CE2       25.7860   38.4390   20.2040 C.ar   61  PHE61      -0.0003
     38  CZ        26.5090   38.6130   19.0380 C.ar   61  PHE61      -0.0000
     39  N         28.9020   26.0350   26.4360 N.3    66  SER66      -0.1202
     40  CA        28.1900   27.1050   27.1380 C.3    66  SER66       0.2020
     41  C         27.0440   26.5390   27.9520 C.2    66  SER66       0.2618
     42  O         26.3970   25.5640   27.5430 O.2    66  SER66      -0.2717
     43  CB        27.6610   28.1490   26.1590 C.3    66  SER66       0.2103
     44  OG        28.7350   28.8000   25.5090 O.3    66  SER66      -0.2182
     45  N         26.7820   27.1320   29.1080 N.am   67  ASP67      -0.1973
     46  CA        25.5980   26.7010   29.8270 C.3    67  ASP67       0.1709
     47  C         24.2820   27.0820   29.1400 C.2    67  ASP67       0.2293
     48  O         24.2650   27.8260   28.1590 O.2    67  ASP67      -0.2864
     49  CB        25.6590   26.9220   31.3620 C.3    67  ASP67       0.1436
     50  CG        25.8810   28.3500   31.7860 C.2    67  ASP67       0.3671
     51  OD1       25.2980   29.2780   31.2040 O.co2  67  ASP67      -0.2456
     52  OD2       26.6180   28.5270   32.7850 O.co2  67  ASP67      -0.2456
     53  N         20.3320   28.4670   29.5660 N.3    69  ASP69      -0.1239
     54  CA        19.3350   29.1740   30.3680 C.3    69  ASP69       0.1674
     55  C         17.9750   28.7900   29.8640 C.2    69  ASP69       0.2266
     56  O         17.7180   28.8130   28.6480 O.2    69  ASP69      -0.2867
     57  CB        19.5430   30.6800   30.2410 C.3    69  ASP69       0.1410
     58  CG        20.9150   31.1080   30.7080 C.2    69  ASP69       0.3668
     59  OD1       21.1220   31.1630   31.9370 O.co2  69  ASP69      -0.2456
     60  OD2       21.7920   31.3640   29.8380 O.co2  69  ASP69      -0.2456
     61  N         11.0550   33.6380   32.7010 N.3   137  ASN137     -0.1240
     62  CA        12.0790   34.6390   32.4810 C.3   137  ASN137      0.1653
     63  C         11.8590   35.3090   31.1270 C.2   137  ASN137      0.2266
     64  O         12.6140   35.0880   30.1750 O.2   137  ASN137     -0.2867
     65  CB        13.4680   34.0120   32.5360 C.3   137  ASN137      0.1155
     66  CG        14.5250   35.0110   32.9040 C.2   137  ASN137      0.2627
     67  OD1       14.5540   36.1280   32.3780 O.2   137  ASN137     -0.2716
     68  ND2       15.3950   34.6260   33.8190 N.am  137  ASN137     -0.0877
     69  N         14.6990   37.5840   29.7900 N.3   140  GLY140     -0.1225
     70  CA        15.7730   36.7040   29.3350 C.3   140  GLY140      0.1811
     71  C         15.5480   36.2030   27.9050 C.2   140  GLY140      0.2280
     72  O         16.4340   36.3190   27.0820 O.2   140  GLY140     -0.2866
     73  N         15.5580   39.3320   25.3100 N.3   143  ASN143     -0.1225
     74  CA        16.8390   39.9910   25.0250 C.3   143  ASN143      0.1785
     75  C         17.8260   39.0400   24.2850 C.2   143  ASN143      0.2597
     76  O         18.6440   39.4830   23.4570 O.2   143  ASN143     -0.2718
     77  CB        17.4260   40.7340   26.2640 C.3   143  ASN143      0.1169
     78  CG        17.8710   39.8020   27.3670 C.2   143  ASN143      0.2627
     79  OD1       18.2010   38.6480   27.1070 O.2   143  ASN143     -0.2716
     80  ND2       17.9300   40.3140   28.6120 N.am  143  ASN143     -0.0877
     81  N         17.6810   37.7340   24.5280 N.am  144  SER144     -0.1952
     82  CA        18.4330   36.7330   23.7740 C.3   144  SER144      0.1924
     83  C         18.0170   36.6790   22.2990 C.2   144  SER144      0.2314
     84  O         18.8610   36.4850   21.4360 O.2   144  SER144     -0.2863
     85  CB        18.3600   35.3620   24.4600 C.3   144  SER144      0.2116
     86  OG        18.8730   35.4300   25.8150 O.3   144  SER144     -0.2180
     87  N         19.6510   39.7320   20.6850 N.3   147  LEU147     -0.1245
     88  CA        21.0730   39.4550   20.5270 C.3   147  LEU147      0.1561
     89  C         21.3020   38.5380   19.3420 C.2   147  LEU147      0.2260
     90  O         22.2230   38.7770   18.5470 O.2   147  LEU147     -0.2867
     91  CB        21.7020   38.8620   21.8040 C.3   147  LEU147      0.0270
     92  CG        21.9260   39.7860   23.0020 C.3   147  LEU147      0.0019
     93  CD1       22.6350   39.0830   24.1450 C.3   147  LEU147      0.0001
     94  CD2       22.6980   41.0440   22.6110 C.3   147  LEU147      0.0001
     95  N         34.5020   38.1070   25.4460 N.3   166  LYS166     -0.1245
     96  CA        34.1480   37.1780   26.5200 C.3   166  LYS166      0.1561
     97  C         35.3150   36.3190   26.9640 C.2   166  LYS166      0.2260
     98  O         35.5550   36.1780   28.1840 O.2   166  LYS166     -0.2867
     99  CB        32.9710   36.3000   26.1140 C.3   166  LYS166      0.0271
    100  CG        31.6560   37.0680   25.9770 C.3   166  LYS166      0.0035
    101  CD        30.6070   36.2890   25.1770 C.3   166  LYS166      0.0206
    102  CE        29.9660   35.1600   25.9810 C.3   166  LYS166      0.1093
    103  NZ        28.8490   34.5950   25.1670 N.3   166  LYS166     -0.1314
    104  N         36.5910   36.5160   30.7280 N.3   170  LYS170     -0.1245
    105  CA        36.6200   35.3750   31.6440 C.3   170  LYS170      0.1561
    106  C         38.0010   35.0650   32.1950 C.2   170  LYS170      0.2260
    107  O         38.1310   34.8180   33.4110 O.2   170  LYS170     -0.2867
    108  CB        35.9950   34.1310   31.0310 C.3   170  LYS170      0.0271
    109  CG        34.4980   34.2910   30.7690 C.3   170  LYS170      0.0035
    110  CD        33.8950   33.0700   30.1130 C.3   170  LYS170      0.0206
    111  CE        32.4290   33.3650   29.7430 C.3   170  LYS170      0.1093
    112  NZ        31.7950   32.3080   28.8810 N.3   170  LYS170     -0.1314
    113  N         28.7070   39.9290   34.6520 N.3   183  ASN183     -0.1225
    114  CA        28.2990   38.7020   33.9900 C.3   183  ASN183      0.1785
    115  C         28.4840   38.8890   32.5000 C.2   183  ASN183      0.2598
    116  O         28.7120   39.9970   32.0460 O.2   183  ASN183     -0.2718
    117  CB        26.8470   38.2800   34.3260 C.3   183  ASN183      0.1169
    118  CG        25.8120   39.3560   34.0230 C.2   183  ASN183      0.2627
    119  OD1       25.7220   39.9010   32.9000 O.2   183  ASN183     -0.2716
    120  ND2       24.9920   39.6470   35.0210 N.am  183  ASN183     -0.0877
    121  N         28.3800   37.7930   31.7620 N.am  184  SER184     -0.1938
    122  CA        28.6360   37.7600   30.3410 C.3   184  SER184      0.2055
    123  C         27.7100   38.6660   29.5450 C.2   184  SER184      0.2643
    124  O         28.1480   39.3200   28.6050 O.2   184  SER184     -0.2714
    125  CB        28.5560   36.3360   29.8080 C.3   184  SER184      0.2130
    126  OG        29.7620   35.6620   30.0800 O.3   184  SER184     -0.2179
    127  N         26.4510   38.7150   29.9590 N.am  185  PHE185     -0.1973
    128  CA        25.4190   39.5030   29.2600 C.3   185  PHE185      0.1639
    129  C         25.7490   40.9940   29.2810 C.2   185  PHE185      0.2290
    130  O         25.5740   41.6900   28.2850 O.2   185  PHE185     -0.2864
    131  CB        24.0320   39.2940   29.8680 C.3   185  PHE185      0.0560
    132  CG        22.9820   40.1730   29.2510 C.ar  185  PHE185     -0.0200
    133  CD1       22.5260   39.9290   27.9550 C.ar  185  PHE185     -0.0042
    134  CD2       22.4630   41.2520   29.9470 C.ar  185  PHE185     -0.0042
    135  CE1       21.5520   40.7450   27.3780 C.ar  185  PHE185     -0.0003
    136  CE2       21.5020   42.0720   29.3860 C.ar  185  PHE185     -0.0003
    137  CZ        21.0390   41.8200   28.0840 C.ar  185  PHE185     -0.0000
    138  N         28.7680   41.7760   27.1250 N.3   188  THR188     -0.1218
    139  CA        28.2960   41.6420   25.7440 C.3   188  THR188      0.1862
    140  C         27.6360   42.9400   25.3230 C.2   188  THR188      0.2287
    141  O         28.0000   43.5070   24.3110 O.2   188  THR188     -0.2866
    142  CB        27.3070   40.5050   25.6240 C.3   188  THR188      0.1770
    143  OG1       27.9800   39.2990   25.9830 O.3   188  THR188     -0.2211
    144  CG2       26.7460   40.3950   24.1620 C.3   188  THR188      0.0375
    145  N         19.7140   46.9370   30.5910 N.3   337  ASP337     -0.1239
    146  CA        19.0480   45.8890   29.8470 C.3   337  ASP337      0.1674
    147  C         17.9210   46.5560   29.0730 C.2   337  ASP337      0.2266
    148  O         17.0300   47.1590   29.6760 O.2   337  ASP337     -0.2867
    149  CB        18.5230   44.7940   30.7960 C.3   337  ASP337      0.1410
    150  CG        17.9500   43.5760   30.0570 C.2   337  ASP337      0.3668
    151  OD1       17.6120   43.7040   28.8720 O.co2 337  ASP337     -0.2456
    152  OD2       17.8450   42.4730   30.6630 O.co2 337  ASP337     -0.2456
    153  N         16.4270   47.1210   33.5700 N.3   342  VAL342     -0.1245
    154  CA        17.2320   46.5900   34.6760 C.3   342  VAL342      0.1561
    155  C         18.6770   47.0560   34.5650 C.2   342  VAL342      0.2260
    156  O         19.2590   47.1160   33.4880 O.2   342  VAL342     -0.2867
    157  CB        17.1330   45.0380   34.7250 C.3   342  VAL342      0.0252
    158  CG1       18.2010   44.4240   35.5710 C.3   342  VAL342      0.0019
    159  CG2       15.7280   44.6340   35.2610 C.3   342  VAL342      0.0019
    160  N         21.7460   45.6590   34.7740 N.3   344  CYS344     -0.1235
    161  CA        22.3810   44.3420   34.8340 C.3   344  CYS344      0.1677
    162  C         23.8010   44.3850   35.3850 C.2   344  CYS344      0.2270
    163  O         24.3350   43.3450   35.7480 O.2   344  CYS344     -0.2867
    164  CB        22.3500   43.6230   33.4820 C.3   344  CYS344      0.0956
    165  SG        23.0420   44.5310   32.1170 S.3   344  CYS344     -0.0801
    166  N         24.4260   46.1010   38.2020 N.3   346  ARG346     -0.1231
    167  CA        24.2510   46.6560   39.5520 C.3   346  ARG346      0.1694
    168  C         24.9650   45.9110   40.6800 C.2   346  ARG346      0.2591
    169  O         25.2480   46.4920   41.7210 O.2   346  ARG346     -0.2718
    170  CB        22.7600   46.7830   39.9010 C.3   346  ARG346      0.0321
    171  CG        22.0960   45.4840   40.2590 C.3   346  ARG346      0.0489
    172  CD        20.5690   45.6010   40.3050 C.3   346  ARG346      0.2205
    173  NE        20.0000   44.2850   40.5670 N.pl3 346  ARG346     -0.0865
    174  CZ        19.7590   43.3440   39.6570 C.cat 346  ARG346      0.5346
    175  NH1       19.9960   43.5340   38.3530 N.pl3 346  ARG346      0.1354
    176  NH2       19.2730   42.1900   40.0680 N.pl3 346  ARG346      0.1354
    177  N         25.2380   44.6230   40.4770 N.am  347  ARG347     -0.1980
    178  CA        25.8190   43.7940   41.5150 C.3   347  ARG347      0.1597
    179  C         27.3220   43.9410   41.6470 C.2   347  ARG347      0.2287
    180  O         27.8920   43.5190   42.6500 O.2   347  ARG347     -0.2864
    181  CB        25.4410   42.3170   41.3120 C.3   347  ARG347      0.0334
    182  CG        24.1550   41.9370   42.0300 C.3   347  ARG347      0.0492
    183  CD        23.5190   40.6930   41.4300 C.3   347  ARG347      0.2205
    184  NE        23.2230   40.8980   40.0100 N.pl3 347  ARG347     -0.0865
    185  CZ        22.3380   40.1920   39.3060 C.cat 347  ARG347      0.5346
    186  NH1       21.6310   39.2340   39.8990 N.pl3 347  ARG347      0.1354
    187  NH2       22.1510   40.4580   38.0130 N.pl3 347  ARG347      0.1354
@<TRIPOS>BOND
     1    90    89    2
     2    25    24    2
     3    36    38   ar
     4    36    34   ar
     5    38    37   ar
     6    89    88    1
     7    34    33   ar
     8    24    23    1
     9    37    35   ar
    10    28    29    1
    11    88    87    1
    12    88    91    1
    13    33    35   ar
    14    33    32    1
    15    23    22    1
    16    23    26    1
    17    29    32    1
    18    29    30    1
    19    84    83    2
    20    26    27    1
    21    91    92    1
    22    30    31    2
    23    19    18    2
    24    83    82    1
    25    94    92    1
    26    92    93    1
    27    18    17    1
    28    76    75    2
    29    82    85    1
    30    82    81    1
    31   144   142    1
    32    75    81   am
    33    75    74    1
    34   141   140    2
    35    15    14    2
    36    85    86    1
    37    17    20    1
    38    17    16    1
    39    20    21    1
    40    74    73    1
    41    74    77    1
    42   103   102    1
    43   101   100    1
    44   101   102    1
    45   140   139    1
    46    95    96    1
    47    14    16   am
    48    14    13    1
    49    44    43    1
    50   142   139    1
    51   142   143    1
    52   139   138    1
    53   100    99    1
    54    99    96    1
    55    43    40    1
    56    77    78    1
    57     2     1    1
    58     2     3    1
    59     2     5    1
    60    39    40    1
    61    96    97    1
    62    12     3   am
    63    12    13    1
    64     3     4    2
    65    97    98    2
    66     5     6    1
    67    72    71    2
    68    79    78    2
    69    40    41    1
    70    78    80   am
    71   135   133   ar
    72   135   137   ar
    73    42    41    2
    74    71    70    1
    75    41    45   am
    76   133   132   ar
    77   137   136   ar
    78    48    47    2
    79   130   129    2
    80     6     7   ar
    81     6     8   ar
    82   124   123    2
    83    56    55    2
    84   151   150   ar
    85   112   111    1
    86   147   148    2
    87   147   146    1
    88    45    46    1
    89    47    46    1
    90     7     9   ar
    91   132   131    1
    92   132   134   ar
    93   128   129    1
    94   128   131    1
    95   128   127    1
    96     8    10   ar
    97    70    69    1
    98   136   134   ar
    99   123   127   am
   100   123   122    1
   101    53    54    1
   102   111   110    1
   103   125   126    1
   104   125   122    1
   105    46    49    1
   106    60    58   ar
   107   146   145    1
   108   146   149    1
   109    55    54    1
   110   150   152   ar
   111   150   149    1
   112   110   109    1
   113    64    63    2
   114    57    54    1
   115    57    58    1
   116   122   121    1
   117     9    11   ar
   118    10    11   ar
   119    58    59   ar
   120   104   105    1
   121   109   108    1
   122   108   105    1
   123    63    62    1
   124    51    50   ar
   125    49    50    1
   126   105   106    1
   127   121   115   am
   128    50    52   ar
   129   116   115    2
   130   165   164    1
   131   106   107    2
   132    67    66    2
   133    62    65    1
   134    62    61    1
   135   115   114    1
   136    65    66    1
   137   119   118    2
   138    66    68   am
   139   164   161    1
   140   156   155    2
   141   153   154    1
   142   114   117    1
   143   114   113    1
   144   118   117    1
   145   118   120   am
   146   155   154    1
   147   154   157    1
   148   157   159    1
   149   157   158    1
   150   160   161    1
   151   161   162    1
   152   162   163    2
   153   187   185    1
   154   166   167    1
   155   175   174    1
   156   185   186    1
   157   185   184    2
   158   167   170    1
   159   167   168    1
   160   174   176    1
   161   174   173    2
   162   170   171    1
   163   184   183    1
   164   171   172    1
   165   172   173    1
   166   177   168   am
   167   177   178    1
   168   168   169    2
   169   181   178    1
   170   181   182    1
   171   183   182    1
   172   178   179    1
   173   179   180    2
