@<TRIPOS>MOLECULE
tmp/3hj9A02.pdb
 88 87 0 0 0
SMALL
GASTEIGER

@<TRIPOS>ATOM
      1  N        -22.3270   63.8580   23.1660 N.3    73  ARG73      -0.1245
      2  CA       -22.0410   64.4820   24.4370 C.3    73  ARG73       0.1563
      3  C        -20.6200   65.0700   24.4040 C.2    73  ARG73       0.2260
      4  O        -19.6340   64.3160   24.3110 O.2    73  ARG73      -0.2867
      5  CB       -22.1870   63.4550   25.5620 C.3    73  ARG73       0.0307
      6  CG       -23.6500   63.0600   25.8430 C.3    73  ARG73       0.0489
      7  CD       -23.7080   61.6770   26.4720 C.3    73  ARG73       0.2205
      8  NE       -23.4130   60.6570   25.4910 N.pl3  73  ARG73      -0.0865
      9  CZ       -23.0970   59.3850   25.7620 C.cat  73  ARG73       0.5346
     10  NH1      -22.9700   58.9420   27.0250 N.pl3  73  ARG73       0.1354
     11  NH2      -22.8670   58.5630   24.7440 N.pl3  73  ARG73       0.1354
     12  N        -18.7910   61.2800   24.3170 N.3    78  GLY78      -0.1210
     13  CA       -19.7720   60.2260   24.1880 C.3    78  GLY78       0.1956
     14  C        -20.3240   60.2110   22.7660 C.2    78  GLY78       0.2611
     15  O        -20.4810   61.2540   22.1290 O.2    78  GLY78      -0.2717
     16  N        -20.6240   59.0170   22.2930 N.am   79  ARG79      -0.1979
     17  CA       -21.0710   58.7980   20.9200 C.3    79  ARG79       0.1597
     18  C        -22.5350   58.3900   20.8090 C.2    79  ARG79       0.2287
     19  O        -23.1740   58.0330   21.7900 O.2    79  ARG79      -0.2864
     20  CB       -20.1520   57.7700   20.2510 C.3    79  ARG79       0.0334
     21  CG       -18.6090   58.0260   20.4040 C.3    79  ARG79       0.0492
     22  CD       -18.1670   59.3520   19.7970 C.3    79  ARG79       0.2205
     23  NE       -16.8200   59.7590   20.1870 N.pl3  79  ARG79      -0.0865
     24  CZ       -15.6820   59.3820   19.6120 C.cat  79  ARG79       0.5346
     25  NH1      -15.6480   58.5210   18.5850 N.pl3  79  ARG79       0.1354
     26  NH2      -14.5510   59.8810   20.0850 N.pl3  79  ARG79       0.1354
     27  N        -23.6090   55.7660   19.4560 N.3    81  ALA81      -0.1231
     28  CA       -23.6650   54.2970   19.5870 C.3    81  ALA81       0.1679
     29  C        -22.7280   53.8630   20.7230 C.2    81  ALA81       0.2434
     30  O        -21.6910   54.5120   20.9840 O.2    81  ALA81      -0.2733
     31  CB       -23.2640   53.6200   18.2680 C.3    81  ALA81       0.0304
     32  N        -23.0840   52.7770   21.4190 N.am   82  PRO82      -0.2718
     33  CA       -22.2240   52.3020   22.4990 C.3    82  PRO82       0.1535
     34  C        -20.9220   51.6590   21.9890 C.2    82  PRO82       0.2599
     35  O        -20.7550   51.3880   20.7890 O.2    82  PRO82      -0.2715
     36  CB       -23.1070   51.2750   23.2000 C.3    82  PRO82       0.0310
     37  CG       -23.9300   50.7120   22.0520 C.3    82  PRO82       0.0237
     38  CD       -24.2230   51.8680   21.1860 C.3    82  PRO82       0.0939
     39  N        -20.0030   51.4610   22.9110 N.am   83  SER83      -0.1937
     40  CA       -18.7320   50.7710   22.6210 C.3    83  SER83       0.2040
     41  C        -18.1590   50.1880   23.9060 C.2    83  SER83       0.2485
     42  O        -18.2210   50.8550   24.9130 O.2    83  SER83      -0.2729
     43  CB       -17.7170   51.7250   21.9640 C.3    83  SER83       0.2129
     44  OG       -17.2920   52.7340   22.8750 O.3    83  SER83      -0.2179
     45  N        -17.5570   48.9750   23.8610 N.am   84  PRO84      -0.2715
     46  CA       -17.0080   48.3240   25.0620 C.3    84  PRO84       0.1536
     47  C        -15.9600   49.2000   25.7690 C.2    84  PRO84       0.2599
     48  O        -15.1050   49.7870   25.0970 O.2    84  PRO84      -0.2715
     49  CB       -16.3810   47.0350   24.5010 C.3    84  PRO84       0.0310
     50  CG       -16.0600   47.3570   23.1400 C.3    84  PRO84       0.0237
     51  CD       -17.1630   48.2360   22.6460 C.3    84  PRO84       0.0939
     52  N        -16.0900   49.3400   27.0900 N.am   85  TYR85      -0.1960
     53  CA       -15.2120   50.2150   27.9090 C.3    85  TYR85       0.1771
     54  C        -15.1280   51.7000   27.4650 C.2    85  TYR85       0.2620
     55  O        -14.2380   52.4140   27.8870 O.2    85  TYR85      -0.2715
     56  CB       -13.7620   49.6600   28.0000 C.3    85  TYR85       0.0574
     57  CG       -13.5140   48.4240   28.8210 C.ar   85  TYR85      -0.0198
     58  CD1      -14.1150   48.2360   30.0710 C.ar   85  TYR85      -0.0009
     59  CD2      -12.5240   47.5070   28.4290 C.ar   85  TYR85      -0.0009
     60  CE1      -13.8200   47.1050   30.8490 C.ar   85  TYR85       0.0417
     61  CE2      -12.2110   46.3870   29.1970 C.ar   85  TYR85       0.0417
     62  CZ       -12.8580   46.1940   30.4060 C.ar   85  TYR85       0.1957
     63  OH       -12.5670   45.0820   31.1360 O.3    85  TYR85      -0.2866
     64  N        -16.0300   52.1740   26.6100 N.am   86  GLY86      -0.1954
     65  CA       -15.9500   53.5490   26.0850 C.3    86  GLY86       0.1869
     66  C        -14.8100   53.8040   25.0900 C.2    86  GLY86       0.2309
     67  O        -14.6450   54.9340   24.6420 O.2    86  GLY86      -0.2863
     68  N        -17.6910   41.8640   20.4870 N.3   151  PHE151     -0.1241
     69  CA       -17.7270   43.3050   20.8400 C.3   151  PHE151      0.1605
     70  C        -17.6100   44.2020   19.6160 C.2   151  PHE151      0.2264
     71  O        -18.3750   45.1560   19.4860 O.2   151  PHE151     -0.2867
     72  CB       -16.6540   43.6160   21.8610 C.3   151  PHE151      0.0534
     73  CG       -16.9280   43.0970   23.2570 C.ar  151  PHE151     -0.0203
     74  CD1      -18.0020   42.2430   23.5760 C.ar  151  PHE151     -0.0042
     75  CD2      -16.0170   43.3710   24.2410 C.ar  151  PHE151     -0.0042
     76  CE1      -18.1950   41.7770   24.8320 C.ar  151  PHE151     -0.0003
     77  CE2      -16.1960   42.8670   25.5400 C.ar  151  PHE151     -0.0003
     78  CZ       -17.2950   42.0930   25.8370 C.ar  151  PHE151     -0.0000
     79  N        -20.9130   43.6980   17.4490 N.3   154  ALA154     -0.1231
     80  CA       -22.0670   44.3290   18.1410 C.3   154  ALA154      0.1694
     81  C        -22.0380   45.8570   18.0310 C.2   154  ALA154      0.2591
     82  O        -23.0600   46.4720   17.6490 O.2   154  ALA154     -0.2718
     83  CB       -22.1540   43.9080   19.6200 C.3   154  ALA154      0.0304
     84  N        -20.8650   46.4470   18.3140 N.am  155  ALA155     -0.1980
     85  CA       -20.6090   47.9050   18.1630 C.3   155  ALA155      0.1597
     86  C        -20.8680   48.3290   16.7240 C.2   155  ALA155      0.2287
     87  O        -21.6390   49.2630   16.5090 O.2   155  ALA155     -0.2864
     88  CB       -19.1590   48.2680   18.5750 C.3   155  ALA155      0.0319
@<TRIPOS>BOND
     1    87    86    2
     2    86    85    1
     3    79    80    1
     4    82    81    2
     5    81    80    1
     6    81    84   am
     7    80    83    1
     8    85    84    1
     9    85    88    1
    10    31    28    1
    11    25    24    1
    12    27    28    1
    13    71    70    2
    14    28    29    1
    15    24    26    1
    16    24    23    2
    17    70    69    1
    18    22    23    1
    19    22    21    1
    20    20    21    1
    21    20    17    1
    22    68    69    1
    23    29    30    2
    24    29    32   am
    25    35    34    2
    26    18    17    1
    27    18    19    2
    28    69    72    1
    29    17    16    1
    30    38    32    1
    31    38    37    1
    32    32    33    1
    33    72    73    1
    34    43    40    1
    35    43    44    1
    36    34    33    1
    37    34    39   am
    38    37    36    1
    39    15    14    2
    40    16    14   am
    41    33    36    1
    42    40    39    1
    43    40    41    1
    44    51    50    1
    45    51    45    1
    46    14    13    1
    47    50    49    1
    48     1     2    1
    49    73    74   ar
    50    73    75   ar
    51    74    76   ar
    52    45    41   am
    53    45    46    1
    54    41    42    2
    55    13    12    1
    56    75    77   ar
    57     4     3    2
    58     3     2    1
    59     2     5    1
    60    49    46    1
    61    67    66    2
    62    11     9    1
    63    76    78   ar
    64    46    47    1
    65    66    65    1
    66    48    47    2
    67     8     9    2
    68     8     7    1
    69    77    78   ar
    70     5     6    1
    71     9    10    1
    72    47    52   am
    73     6     7    1
    74    65    64    1
    75    64    54   am
    76    52    53    1
    77    54    55    2
    78    54    53    1
    79    53    56    1
    80    56    57    1
    81    59    57   ar
    82    59    61   ar
    83    57    58   ar
    84    61    62   ar
    85    58    60   ar
    86    62    60   ar
    87    62    63    1
