@<TRIPOS>MOLECULE
tmp/3hj9A00.pdb
 127 123 0 0 0
SMALL
GASTEIGER

@<TRIPOS>ATOM
      1  N        -21.8640   33.0480   -1.0280 N.3     8  TYR8       -0.1241
      2  CA       -21.7570   33.8690   -2.2440 C.3     8  TYR8        0.1605
      3  C        -20.4720   33.6190   -3.0200 C.2     8  TYR8        0.2264
      4  O        -19.4460   33.2140   -2.4560 O.2     8  TYR8       -0.2867
      5  CB       -21.8640   35.3640   -1.9180 C.3     8  TYR8        0.0534
      6  CG       -23.1810   35.7760   -1.2940 C.ar    8  TYR8       -0.0201
      7  CD1      -24.4010   35.5150   -1.9390 C.ar    8  TYR8       -0.0009
      8  CD2      -23.2120   36.4360   -0.0760 C.ar    8  TYR8       -0.0009
      9  CE1      -25.6130   35.9070   -1.3680 C.ar    8  TYR8        0.0417
     10  CE2      -24.4140   36.8390    0.5110 C.ar    8  TYR8        0.0417
     11  CZ       -25.6010   36.5630   -0.1420 C.ar    8  TYR8        0.1957
     12  OH       -26.7580   36.9400    0.4360 O.3     8  TYR8       -0.2866
     13  N        -37.7890   50.6200    8.7750 N.3    45  ARG45      -0.1231
     14  CA       -36.4030   50.0940    8.7600 C.3    45  ARG45       0.1694
     15  C        -36.4110   48.8230    7.8890 C.2    45  ARG45       0.2592
     16  O        -37.2060   47.9100    8.1200 O.2    45  ARG45      -0.2718
     17  CB       -35.9170   49.8540   10.1930 C.3    45  ARG45       0.0321
     18  CG       -34.3780   49.8330   10.4280 C.3    45  ARG45       0.0489
     19  CD       -33.6190   48.7390    9.7090 C.3    45  ARG45       0.2205
     20  NE       -34.2650   47.4320    9.8510 N.pl3  45  ARG45      -0.0865
     21  CZ       -34.0610   46.3720    9.0680 C.cat  45  ARG45       0.5346
     22  NH1      -33.1760   46.3910    8.0740 N.pl3  45  ARG45       0.1354
     23  NH2      -34.7580   45.2620    9.2870 N.pl3  45  ARG45       0.1354
     24  N        -35.6120   48.8380    6.8190 N.am   46  LYS46      -0.1966
     25  CA       -35.5540   47.7500    5.8320 C.3    46  LYS46       0.1728
     26  C        -34.2500   47.8040    5.0510 C.2    46  LYS46       0.2616
     27  O        -33.5570   48.8190    5.0870 O.2    46  LYS46      -0.2715
     28  CB       -36.7160   47.8690    4.8250 C.3    46  LYS46       0.0311
     29  CG       -36.6620   49.1260    3.9050 C.3    46  LYS46       0.0038
     30  CD       -37.7880   49.2040    2.8860 C.3    46  LYS46       0.0206
     31  CE       -37.7120   48.0890    1.8370 C.3    46  LYS46       0.1093
     32  NZ       -38.7600   48.2680    0.7500 N.3    46  LYS46      -0.1314
     33  N        -33.9700   46.7460    4.2910 N.am   47  SER47      -0.1950
     34  CA       -32.7950   46.6880    3.4200 C.3    47  SER47       0.1924
     35  C        -33.1620   46.9730    1.9550 C.2    47  SER47       0.2314
     36  O        -34.1540   46.4990    1.4500 O.2    47  SER47      -0.2863
     37  CB       -32.0370   45.3670    3.5720 C.3    47  SER47       0.2116
     38  OG       -31.4350   45.3160    4.8510 O.3    47  SER47      -0.2180
     39  N        -31.3420   47.1600   -2.0460 N.3    49  ARG49      -0.1245
     40  CA       -30.2060   46.6490   -2.8190 C.3    49  ARG49       0.1563
     41  C        -29.9960   47.2420   -4.2080 C.2    49  ARG49       0.2260
     42  O        -28.9590   46.9940   -4.7970 O.2    49  ARG49      -0.2867
     43  CB       -30.2680   45.1100   -2.8900 C.3    49  ARG49       0.0307
     44  CG       -29.9570   44.4370   -1.5720 C.3    49  ARG49       0.0489
     45  CD       -29.7890   42.8970   -1.6680 C.3    49  ARG49       0.2205
     46  NE       -29.6320   42.3460   -0.3070 N.pl3  49  ARG49      -0.0865
     47  CZ       -30.6320   42.1520    0.5660 C.cat  49  ARG49       0.5346
     48  NH1      -31.8930   42.4690    0.2630 N.pl3  49  ARG49       0.1354
     49  NH2      -30.3800   41.6580    1.7860 N.pl3  49  ARG49       0.1354
     50  N        -23.0680   39.4370   -3.6890 N.3   125  ASP125     -0.1239
     51  CA       -24.3110   39.3760   -2.8990 C.3   125  ASP125      0.1674
     52  C        -25.4780   40.1400   -3.5550 C.2   125  ASP125      0.2266
     53  O        -26.4570   40.4570   -2.8920 O.2   125  ASP125     -0.2867
     54  CB       -24.0570   39.8200   -1.4470 C.3   125  ASP125      0.1410
     55  CG       -23.6110   41.2740   -1.3300 C.2   125  ASP125      0.3668
     56  OD1      -23.4890   41.9400   -2.3630 O.co2 125  ASP125     -0.2456
     57  OD2      -23.3520   41.7470   -0.1920 O.co2 125  ASP125     -0.2456
     58  N        -25.9280   43.1600   -4.5050 N.3   127  VAL127     -0.1245
     59  CA       -26.1690   44.5380   -4.0530 C.3   127  VAL127      0.1561
     60  C        -25.6220   45.4170   -5.1840 C.2   127  VAL127      0.2260
     61  O        -24.4730   45.2770   -5.5380 O.2   127  VAL127     -0.2867
     62  CB       -25.4510   44.8480   -2.7550 C.3   127  VAL127      0.0252
     63  CG1      -25.5700   46.3630   -2.4180 C.3   127  VAL127      0.0019
     64  CG2      -26.0050   43.9760   -1.6440 C.3   127  VAL127      0.0019
     65  N        -29.1740   52.8080    9.4020 N.3   163  TYR163     -0.1241
     66  CA       -30.4580   52.2940    8.8630 C.3   163  TYR163      0.1605
     67  C        -31.6570   53.1620    9.2000 C.2   163  TYR163      0.2264
     68  O        -32.4500   53.5080    8.3210 O.2   163  TYR163     -0.2867
     69  CB       -30.7670   50.8930    9.3860 C.3   163  TYR163      0.0534
     70  CG       -30.3830   49.7180    8.5360 C.ar  163  TYR163     -0.0201
     71  CD1      -31.0290   49.4660    7.3260 C.ar  163  TYR163     -0.0009
     72  CD2      -29.4500   48.7730    8.9960 C.ar  163  TYR163     -0.0009
     73  CE1      -30.7080   48.2880    6.5540 C.ar  163  TYR163      0.0417
     74  CE2      -29.1530   47.6140    8.2470 C.ar  163  TYR163      0.0417
     75  CZ       -29.7630   47.3770    7.0530 C.ar  163  TYR163      0.1957
     76  OH       -29.4360   46.2260    6.3740 O.3   163  TYR163     -0.2866
     77  N        -28.2160   48.8820    3.1090 N.3   174  VAL174     -0.1231
     78  CA       -28.0860   47.4120    3.3240 C.3   174  VAL174      0.1692
     79  C        -26.7330   47.1580    3.9650 C.2   174  VAL174      0.2592
     80  O        -25.7070   47.6130    3.4290 O.2   174  VAL174     -0.2718
     81  CB       -28.3240   46.5780    2.0560 C.3   174  VAL174      0.0266
     82  CG1      -27.3060   46.9030    0.9740 C.3   174  VAL174      0.0020
     83  CG2      -28.3190   45.0270    2.3700 C.3   174  VAL174      0.0020
     84  N        -26.7430   46.5930    5.1810 N.am  175  VAL175     -0.1966
     85  CA       -25.5320   46.2010    5.8780 C.3   175  VAL175      0.1727
     86  C        -25.0470   44.8950    5.1970 C.2   175  VAL175      0.2616
     87  O        -25.8620   44.0590    4.7440 O.2   175  VAL175     -0.2715
     88  CB       -25.7440   46.0430    7.4290 C.3   175  VAL175      0.0290
     89  CG1      -26.6700   44.8520    7.7770 C.3   175  VAL175      0.0023
     90  CG2      -24.3740   45.9120    8.1080 C.3   175  VAL175      0.0023
     91  N        -23.7300   44.7640    5.0380 N.am  176  ARG176     -0.1963
     92  CA       -23.1140   43.6090    4.3630 C.3   176  ARG176      0.1729
     93  C        -21.9510   43.1170    5.1990 C.2   176  ARG176      0.2617
     94  O        -21.0440   43.8990    5.5400 O.2   176  ARG176     -0.2715
     95  CB       -22.6690   43.9610    2.9540 C.3   176  ARG176      0.0348
     96  CG       -23.7140   44.7550    2.1780 C.3   176  ARG176      0.0492
     97  CD       -23.1200   45.4650    1.0030 C.3   176  ARG176      0.2205
     98  NE       -22.7390   44.5860   -0.0790 N.pl3 176  ARG176     -0.0865
     99  CZ       -22.1400   45.0000   -1.1970 C.cat 176  ARG176      0.5346
    100  NH1      -21.8520   46.2850   -1.3860 N.pl3 176  ARG176      0.1354
    101  NH2      -21.8340   44.1370   -2.1440 N.pl3 176  ARG176      0.1354
    102  N        -22.0110   41.8420    5.5430 N.am  177  GLY177     -0.1940
    103  CA       -21.0310   41.1460    6.3650 C.3   177  GLY177      0.2014
    104  C        -20.2000   40.1700    5.5930 C.2   177  GLY177      0.2638
    105  O        -19.2300   39.6660    6.1250 O.2   177  GLY177     -0.2714
    106  N        -20.6130   39.8450    4.3690 N.am  178  TRP178     -0.1973
    107  CA       -19.8200   39.0240    3.4790 C.3   178  TRP178      0.1640
    108  C        -18.7080   39.8920    2.9150 C.2   178  TRP178      0.2290
    109  O        -18.8430   40.4680    1.8190 O.2   178  TRP178     -0.2864
    110  CB       -20.6650   38.4210    2.3650 C.3   178  TRP178      0.0576
    111  CG       -21.3180   37.1730    2.7830 C.ar  178  TRP178      0.0006
    112  CD1      -22.5200   37.0280    3.3960 C.ar  178  TRP178      0.0946
    113  CD2      -20.7820   35.8650    2.6090 C.ar  178  TRP178      0.0152
    114  NE1      -22.7900   35.6880    3.5810 N.ar  178  TRP178     -0.2442
    115  CE2      -21.7380   34.9520    3.1060 C.ar  178  TRP178      0.0810
    116  CE3      -19.5990   35.3730    2.0430 C.ar  178  TRP178      0.0012
    117  CZ2      -21.5320   33.5800    3.0960 C.ar  178  TRP178      0.0191
    118  CZ3      -19.3900   33.9790    2.0220 C.ar  178  TRP178      0.0001
    119  CH2      -20.3570   33.1080    2.5290 C.ar  178  TRP178      0.0015
    120  N        -17.9590   45.0860    8.9130 N.3   197  LEU197     -0.1245
    121  CA       -19.1760   45.2130    8.1190 C.3   197  LEU197      0.1561
    122  C        -19.0490   46.3930    7.1900 C.2   197  LEU197      0.2260
    123  O        -18.2970   47.3310    7.4770 O.2   197  LEU197     -0.2867
    124  CB       -20.3840   45.5210    9.0260 C.3   197  LEU197      0.0270
    125  CG       -20.8490   44.5550   10.0920 C.3   197  LEU197      0.0019
    126  CD1      -21.9040   45.2660   10.9960 C.3   197  LEU197      0.0001
    127  CD2      -21.3980   43.2510    9.4660 C.3   197  LEU197      0.0001
@<TRIPOS>BOND
     1    61    60    2
     2    60    59    1
     3    42    41    2
     4    58    59    1
     5    41    40    1
     6    59    62    1
     7    50    51    1
     8    52    51    1
     9    52    53    2
    10     3     4    2
    11     3     2    1
    12    51    54    1
    13    43    40    1
    14    43    44    1
    15    40    39    1
    16    62    63    1
    17    62    64    1
    18    56    55   ar
    19     2     5    1
    20     2     1    1
    21   101    99    1
    22     7     9   ar
    23     7     6   ar
    24     5     6    1
    25    45    44    1
    26    45    46    1
    27    54    55    1
    28   100    99    1
    29     9    11   ar
    30    55    57   ar
    31     6     8   ar
    32    99    98    2
    33    46    47    2
    34    11    12    1
    35    11    10   ar
    36    98    97    1
    37     8    10   ar
    38    48    47    1
    39    47    49    1
    40    32    31    1
    41    82    81    1
    42    97    96    1
    43    36    35    2
    44   109   108    2
    45    31    30    1
    46    35    34    1
    47   118   116   ar
    48   118   119   ar
    49   116   113   ar
    50    81    83    1
    51    81    78    1
    52    96    95    1
    53   110   111    1
    54   110   107    1
    55   119   117   ar
    56   113   111   ar
    57   113   115   ar
    58   111   112   ar
    59    30    29    1
    60   108   107    1
    61    95    92    1
    62   117   115   ar
    63   115   114   ar
    64    77    78    1
    65    78    79    1
    66   112   114   ar
    67    34    37    1
    68    34    33    1
    69    80    79    2
    70   107   106    1
    71    37    38    1
    72    29    28    1
    73    79    84   am
    74    33    26   am
    75    92    91    1
    76    92    93    1
    77   106   104   am
    78    87    86    2
    79    28    25    1
    80    91    86   am
    81    26    27    2
    82    26    25    1
    83    84    85    1
    84    86    85    1
    85    93    94    2
    86    93   102   am
    87   102   103    1
    88   104   105    2
    89   104   103    1
    90    25    24    1
    91    85    88    1
    92    76    75    1
    93    73    75   ar
    94    73    71   ar
    95    24    15   am
    96    75    74   ar
    97   122   123    2
    98   122   121    1
    99    71    70   ar
   100    88    89    1
   101    88    90    1
   102    15    16    2
   103    15    14    1
   104    22    21    1
   105   121   120    1
   106   121   124    1
   107    74    72   ar
   108    68    67    2
   109    70    72   ar
   110    70    69    1
   111    14    13    1
   112    14    17    1
   113    66    67    1
   114    66    69    1
   115    66    65    1
   116   124   125    1
   117    21    23    1
   118    21    20    2
   119   127   125    1
   120    19    20    1
   121    19    18    1
   122   125   126    1
   123    17    18    1
