@<TRIPOS>MOLECULE
tmp/3hjbA00.pdb
 103 99 0 0 0
SMALL
GASTEIGER

@<TRIPOS>ATOM
      1  N         39.5690  -42.3600   27.7330 N.3    25  GLN25      -0.1231
      2  CA        38.3740  -41.5430   27.8050 C.3    25  GLN25       0.1698
      3  C         37.2330  -42.2240   28.5770 C.2    25  GLN25       0.2592
      4  O         36.6320  -41.5800   29.4510 O.2    25  GLN25      -0.2718
      5  CB        37.8860  -41.1330   26.4220 C.3    25  GLN25       0.0381
      6  CG        36.7250  -40.1510   26.4960 C.3    25  GLN25       0.0905
      7  CD        36.3070  -39.6350   25.1430 C.2    25  GLN25       0.2608
      8  OE1       36.5990  -40.2420   24.1220 O.2    25  GLN25      -0.2717
      9  NE2       35.6070  -38.5000   25.1310 N.am   25  GLN25      -0.0878
     10  N         36.9700  -43.5120   28.3090 N.am   26  ASP26      -0.1960
     11  CA        35.8460  -44.1940   28.9670 C.3    26  ASP26       0.1840
     12  C         36.2420  -44.9050   30.2600 C.2    26  ASP26       0.2621
     13  O         35.6120  -45.8860   30.6520 O.2    26  ASP26      -0.2715
     14  CB        35.1530  -45.1620   28.0170 C.3    26  ASP26       0.1450
     15  CG        35.9790  -46.3800   27.7240 C.2    26  ASP26       0.3671
     16  OD1       37.1620  -46.3970   28.1060 O.co2  26  ASP26      -0.2456
     17  OD2       35.4370  -47.3320   27.1210 O.co2  26  ASP26      -0.2456
     18  N         37.2950  -44.4050   30.9230 N.am   27  MET27      -0.1977
     19  CA        37.7000  -44.9320   32.2360 C.3    27  MET27       0.1605
     20  C         36.5320  -44.8100   33.1790 C.2    27  MET27       0.2287
     21  O         35.6940  -43.9150   33.0390 O.2    27  MET27      -0.2864
     22  CB        38.8600  -44.1470   32.8540 C.3    27  MET27       0.0413
     23  CG        40.2310  -44.5800   32.4500 C.3    27  MET27       0.0598
     24  SD        41.4590  -43.4490   33.1570 S.3    27  MET27      -0.1393
     25  CE        42.9680  -44.2310   32.6010 C.3    27  MET27       0.0692
     26  N         39.8810  -39.3150   36.8230 N.3    59  LEU59      -0.1245
     27  CA        39.8780  -40.2490   35.7090 C.3    59  LEU59       0.1561
     28  C         41.2890  -40.4280   35.1730 C.2    59  LEU59       0.2260
     29  O         41.6130  -40.0830   34.0160 O.2    59  LEU59      -0.2867
     30  CB        38.9460  -39.7440   34.6040 C.3    59  LEU59       0.0270
     31  CG        37.5060  -39.5010   35.0700 C.3    59  LEU59       0.0019
     32  CD1       36.7330  -38.7760   33.9600 C.3    59  LEU59       0.0001
     33  CD2       36.8230  -40.7720   35.4530 C.3    59  LEU59       0.0001
     34  N         40.1090  -34.0740   27.7970 N.3   330  HIS330     -0.1241
     35  CA        38.6590  -34.2540   27.9490 C.3   330  HIS330      0.1621
     36  C         37.8400  -33.0690   27.4520 C.2   330  HIS330      0.2264
     37  O         36.6160  -33.1900   27.3190 O.2   330  HIS330     -0.2867
     38  CB        38.2770  -34.5530   29.3990 C.3   330  HIS330      0.0745
     39  CG        38.5990  -35.9440   29.8490 C.ar  330  HIS330      0.0817
     40  ND1       37.6820  -36.9760   29.7730 N.ar  330  HIS330     -0.2268
     41  CD2       39.7200  -36.4770   30.3920 C.ar  330  HIS330      0.1154
     42  CE1       38.2270  -38.0760   30.2520 C.ar  330  HIS330      0.1986
     43  NE2       39.4640  -37.8050   30.6310 N.ar  330  HIS330     -0.2212
     44  N         23.9990  -33.3530   34.2580 N.3   397  GLY397     -0.1210
     45  CA        24.0420  -32.5480   33.0510 C.3   397  GLY397      0.1956
     46  C         24.8830  -33.2080   31.9720 C.2   397  GLY397      0.2613
     47  O         25.1890  -34.4070   32.0340 O.2   397  GLY397     -0.2717
     48  N         25.2730  -32.4090   30.9870 N.am  398  THR398     -0.1938
     49  CA        26.0420  -32.8910   29.8400 C.3   398  THR398      0.2028
     50  C         27.4360  -32.2670   29.7400 C.2   398  THR398      0.2642
     51  O         28.0970  -32.3940   28.7030 O.2   398  THR398     -0.2714
     52  CB        25.2590  -32.6820   28.5260 C.3   398  THR398      0.1808
     53  OG1       25.0100  -31.2770   28.3090 O.3   398  THR398     -0.2208
     54  CG2       23.9300  -33.4190   28.5530 C.3   398  THR398      0.0379
     55  N         27.8760  -31.6130   30.8140 N.am  399  LYS399     -0.1963
     56  CA        29.2100  -30.9950   30.8880 C.3   399  LYS399      0.1728
     57  C         30.0600  -31.7110   31.9270 C.2   399  LYS399      0.2616
     58  O         29.5580  -32.0960   33.0000 O.2   399  LYS399     -0.2715
     59  CB        29.1330  -29.5160   31.3220 C.3   399  LYS399      0.0311
     60  CG        28.9100  -28.4480   30.2560 C.3   399  LYS399      0.0038
     61  CD        27.5050  -28.3960   29.7160 C.3   399  LYS399      0.0206
     62  CE        27.3260  -27.3400   28.6200 C.3   399  LYS399      0.1093
     63  NZ        25.9980  -27.4950   27.9890 N.3   399  LYS399     -0.1314
     64  N         31.3510  -31.8790   31.6100 N.am  400  LEU400     -0.1977
     65  CA        32.3560  -32.4110   32.5380 C.3   400  LEU400      0.1596
     66  C         32.8820  -31.1990   33.2890 C.2   400  LEU400      0.2287
     67  O         33.3710  -30.2530   32.6760 O.2   400  LEU400     -0.2864
     68  CB        33.4950  -33.0870   31.7770 C.3   400  LEU400      0.0297
     69  CG        34.6790  -33.5670   32.6150 C.3   400  LEU400      0.0022
     70  CD1       34.2340  -34.6190   33.5800 C.3   400  LEU400      0.0001
     71  CD2       35.8320  -34.0790   31.7300 C.3   400  LEU400      0.0001
     72  N         25.1000  -41.5000   36.3790 N.3   466  GLU466     -0.1231
     73  CA        26.1570  -42.1690   35.6210 C.3   466  GLU466      0.1699
     74  C         27.5010  -42.1380   36.3110 C.2   466  GLU466      0.2593
     75  O         28.3510  -43.0060   36.0670 O.2   466  GLU466     -0.2718
     76  CB        26.2500  -41.6190   34.1990 C.3   466  GLU466      0.0402
     77  CG        24.9960  -41.9060   33.3990 C.3   466  GLU466      0.1161
     78  CD        25.1460  -41.6840   31.9100 C.2   466  GLU466      0.3649
     79  OE1       25.7100  -40.6560   31.4980 O.co2 466  GLU466     -0.2457
     80  OE2       24.6440  -42.5390   31.1440 O.co2 466  GLU466     -0.2457
     81  N         27.7030  -41.1660   37.1880 N.am  467  GLY467     -0.1942
     82  CA        28.9630  -41.0680   37.8830 C.3   467  GLY467      0.2014
     83  C         30.0930  -40.6510   36.9640 C.2   467  GLY467      0.2639
     84  O         29.8800  -40.0000   35.9390 O.2   467  GLY467     -0.2714
     85  N         31.3110  -41.0070   37.3460 N.am  468  ASN468     -0.1958
     86  CA        32.5060  -40.6200   36.6010 C.3   468  ASN468      0.1819
     87  C         32.7280  -39.1210   36.5320 C.2   468  ASN468      0.2621
     88  O         33.3400  -38.6180   35.5990 O.2   468  ASN468     -0.2715
     89  CB        32.5430  -41.3030   35.2340 C.3   468  ASN468      0.1195
     90  CG        32.5980  -42.7850   35.3700 C.2   468  ASN468      0.2630
     91  OD1       33.3000  -43.3000   36.2550 O.2   468  ASN468     -0.2716
     92  ND2       31.8690  -43.5040   34.5100 N.am  468  ASN468     -0.0877
     93  N         32.2180  -38.4120   37.5400 N.am  469  ARG469     -0.1977
     94  CA        32.4060  -36.9750   37.6990 C.3   469  ARG469      0.1597
     95  C         33.5800  -36.8450   38.6700 C.2   469  ARG469      0.2287
     96  O         33.4390  -37.1620   39.8530 O.2   469  ARG469     -0.2864
     97  CB        31.1800  -36.3030   38.3230 C.3   469  ARG469      0.0334
     98  CG        30.1240  -35.7690   37.4080 C.3   469  ARG469      0.0492
     99  CD        29.3550  -36.7910   36.7050 C.3   469  ARG469      0.2205
    100  NE        28.3420  -36.1930   35.8300 N.pl3 469  ARG469     -0.0865
    101  CZ        27.7210  -36.8390   34.8560 C.cat 469  ARG469      0.5346
    102  NH1       27.9660  -38.1260   34.6280 N.pl3 469  ARG469      0.1354
    103  NH2       26.8360  -36.1950   34.0990 N.pl3 469  ARG469      0.1354
@<TRIPOS>BOND
     1     8     7    2
     2     9     7   am
     3     7     6    1
     4     5     6    1
     5     5     2    1
     6    17    15   ar
     7    37    36    2
     8    36    35    1
     9    15    14    1
    10    15    16   ar
    11     1     2    1
    12    34    35    1
    13     2     3    1
    14    35    38    1
    15    63    62    1
    16    14    11    1
    17    10     3   am
    18    10    11    1
    19    53    52    1
    20    52    54    1
    21    52    49    1
    22     3     4    2
    23    62    61    1
    24    51    50    2
    25    11    12    1
    26    38    39    1
    27    61    60    1
    28    50    49    1
    29    50    55   am
    30    40    39   ar
    31    40    42   ar
    32    49    48    1
    33    39    41   ar
    34    42    43   ar
    35    60    59    1
    36    12    13    2
    37    12    18   am
    38    41    43   ar
    39    55    56    1
    40    56    59    1
    41    56    57    1
    42    18    19    1
    43    48    46   am
    44    80    78   ar
    45    79    78   ar
    46    64    57   am
    47    64    65    1
    48    71    69    1
    49    68    65    1
    50    68    69    1
    51    78    77    1
    52    57    58    2
    53    46    47    2
    54    46    45    1
    55    19    22    1
    56    19    20    1
    57    23    22    1
    58    23    24    1
    59    65    66    1
    60    25    24    1
    61    69    70    1
    62    67    66    2
    63    21    20    2
    64    45    44    1
    65    77    76    1
    66    32    31    1
    67    29    28    2
    68   103   101    1
    69    76    73    1
    70    92    90   am
    71    30    31    1
    72    30    27    1
    73   102   101    1
    74   101   100    2
    75    31    33    1
    76    28    27    1
    77    89    90    1
    78    89    86    1
    79    90    91    2
    80    88    87    2
    81    73    74    1
    82    73    72    1
    83    27    26    1
    84   100    99    1
    85    84    83    2
    86    75    74    2
    87    74    81   am
    88    87    86    1
    89    87    93   am
    90    86    85    1
    91    99    98    1
    92    83    85   am
    93    83    82    1
    94    81    82    1
    95    98    97    1
    96    93    94    1
    97    94    97    1
    98    94    95    1
    99    95    96    2
