@<TRIPOS>MOLECULE
tmp/3hjnA00.pdb
 119 115 0 0 0
SMALL
GASTEIGER

@<TRIPOS>ATOM
      1  N        -15.0720  -28.3470   -0.0720 N.3     9  ASP9       -0.1225
      2  CA       -16.4810  -28.3720    0.3630 C.3     9  ASP9        0.1805
      3  C        -16.5800  -27.8080    1.7700 C.2     9  ASP9        0.2598
      4  O        -15.8340  -28.2120    2.6670 O.2     9  ASP9       -0.2718
      5  CB       -17.0110  -29.8050    0.3820 C.3     9  ASP9        0.1424
      6  CG       -16.7430  -30.5350   -0.9230 C.2     9  ASP9        0.3668
      7  OD1      -17.6540  -30.6330   -1.7730 O.co2   9  ASP9       -0.2456
      8  OD2      -15.5990  -30.9900   -1.1040 O.co2   9  ASP9       -0.2456
      9  N        -17.4910  -26.8670    1.9560 N.am   10  GLY10      -0.1942
     10  CA       -17.6690  -26.2790    3.2660 C.3    10  GLY10       0.2014
     11  C        -16.8010  -25.0590    3.4830 C.2    10  GLY10       0.2640
     12  O        -16.8050  -24.5000    4.5810 O.2    10  GLY10      -0.2714
     13  N        -16.0500  -24.6480    2.4590 N.am   11  SER11      -0.1935
     14  CA       -15.1890  -23.4820    2.6010 C.3    11  SER11       0.2055
     15  C        -15.9790  -22.1860    2.5200 C.2    11  SER11       0.2644
     16  O        -15.5050  -21.1550    2.9860 O.2    11  SER11      -0.2714
     17  CB       -14.0660  -23.4780    1.5470 C.3    11  SER11       0.2130
     18  OG       -14.5680  -23.2790    0.2420 O.3    11  SER11      -0.2179
     19  N        -17.1810  -22.2400    1.9430 N.am   12  GLY12      -0.1939
     20  CA       -18.0190  -21.0510    1.8320 C.3    12  GLY12       0.2014
     21  C        -18.1820  -20.4810    0.4230 C.2    12  GLY12       0.2639
     22  O        -18.5750  -19.3340    0.2530 O.2    12  GLY12      -0.2714
     23  N        -17.9090  -21.2810   -0.6010 N.am   13  LYS13      -0.1963
     24  CA       -18.0050  -20.7850   -1.9720 C.3    13  LYS13       0.1728
     25  C        -19.4100  -20.3200   -2.4080 C.2    13  LYS13       0.2617
     26  O        -19.5850  -19.1990   -2.8820 O.2    13  LYS13      -0.2715
     27  CB       -17.5070  -21.8560   -2.9430 C.3    13  LYS13       0.0311
     28  CG       -16.0120  -22.2300   -2.8100 C.3    13  LYS13       0.0038
     29  CD       -15.6560  -23.2960   -3.8460 C.3    13  LYS13       0.0206
     30  CE       -16.5490  -24.5170   -3.7160 C.3    13  LYS13       0.1093
     31  NZ       -16.5810  -25.0660   -2.3120 N.3    13  LYS13      -0.1314
     32  N        -20.4020  -21.1840   -2.2470 N.am   14  SER14      -0.1936
     33  CA       -21.7670  -20.8380   -2.6680 C.3    14  SER14       0.2055
     34  C        -22.2920  -19.5820   -1.9840 C.2    14  SER14       0.2644
     35  O        -22.8860  -18.7110   -2.6210 O.2    14  SER14      -0.2714
     36  CB       -22.6920  -22.0210   -2.4120 C.3    14  SER14       0.2130
     37  OG       -22.2220  -23.1290   -3.1560 O.3    14  SER14      -0.2179
     38  N        -22.0430  -19.4780   -0.6860 N.am   15  THR15      -0.1936
     39  CA       -22.4790  -18.3170    0.0660 C.3    15  THR15       0.2028
     40  C        -21.8230  -17.0480   -0.4830 C.2    15  THR15       0.2642
     41  O        -22.5120  -16.0890   -0.8360 O.2    15  THR15      -0.2714
     42  CB       -22.1090  -18.4920    1.5350 C.3    15  THR15       0.1808
     43  OG1      -22.7400  -19.6740    2.0350 O.3    15  THR15      -0.2208
     44  CG2      -22.5050  -17.2960    2.3430 C.3    15  THR15       0.0379
     45  N        -20.4870  -17.0410   -0.5510 N.am   16  GLN16      -0.1976
     46  CA       -19.7470  -15.8750   -1.0440 C.3    16  GLN16       0.1601
     47  C        -20.0610  -15.4600   -2.4740 C.2    16  GLN16       0.2287
     48  O        -20.1070  -14.2780   -2.7700 O.2    16  GLN16      -0.2864
     49  CB       -18.2210  -16.0880   -0.9380 C.3    16  GLN16       0.0394
     50  CG       -17.6350  -16.0210    0.4760 C.3    16  GLN16       0.0908
     51  CD       -18.0500  -14.7760    1.2690 C.2    16  GLN16       0.2608
     52  OE1      -18.0640  -13.6490    0.7560 O.2    16  GLN16      -0.2717
     53  NE2      -18.3810  -14.9870    2.5370 N.am   16  GLN16      -0.0878
     54  N        -18.7420  -27.7430    9.3750 N.3   138  ARG138     -0.1231
     55  CA       -19.7150  -26.7260    8.9640 C.3   138  ARG138      0.1694
     56  C        -20.5120  -27.0550    7.7180 C.2   138  ARG138      0.2591
     57  O        -21.6590  -26.6160    7.5750 O.2   138  ARG138     -0.2718
     58  CB       -19.0280  -25.3840    8.7380 C.3   138  ARG138      0.0321
     59  CG       -17.9630  -25.4490    7.6780 C.3   138  ARG138      0.0489
     60  CD       -17.6770  -24.0950    7.0860 C.3   138  ARG138      0.2205
     61  NE       -17.0070  -23.1780    7.9960 N.pl3 138  ARG138     -0.0865
     62  CZ       -16.1800  -22.2280    7.5810 C.cat 138  ARG138      0.5346
     63  NH1      -15.9350  -22.0950    6.2840 N.pl3 138  ARG138      0.1354
     64  NH2      -15.6030  -21.4100    8.4490 N.pl3 138  ARG138      0.1354
     65  N        -19.9110  -27.8060    6.8040 N.am  139  LYS139     -0.1980
     66  CA       -20.6150  -28.1640    5.5860 C.3   139  LYS139      0.1596
     67  C        -21.8930  -28.9190    5.9310 C.2   139  LYS139      0.2287
     68  O        -22.9710  -28.3290    5.9730 O.2   139  LYS139     -0.2864
     69  CB       -19.7410  -29.0220    4.6810 C.3   139  LYS139      0.0298
     70  CG       -20.4430  -29.4640    3.3900 C.3   139  LYS139      0.0038
     71  CD       -21.0600  -28.2720    2.6530 C.3   139  LYS139      0.0206
     72  CE       -21.3100  -28.6060    1.1750 C.3   139  LYS139      0.1093
     73  NZ       -21.7680  -27.4180    0.4010 N.3   139  LYS139     -0.1314
     74  N        -10.5160  -18.4900    5.0540 N.3   171  GLY171     -0.1210
     75  CA       -11.8060  -19.0640    5.3840 C.3   171  GLY171      0.1956
     76  C        -12.1980  -19.1270    6.8510 C.2   171  GLY171      0.2612
     77  O        -13.3520  -19.4230    7.1710 O.2   171  GLY171     -0.2717
     78  N        -11.2520  -18.8820    7.7480 N.am  172  LYS172     -0.1965
     79  CA       -11.5560  -18.9000    9.1680 C.3   172  LYS172      0.1728
     80  C        -12.3120  -17.6390    9.5550 C.2   172  LYS172      0.2616
     81  O        -12.9390  -17.5930   10.6060 O.2   172  LYS172     -0.2715
     82  CB       -10.2670  -19.0350   10.0070 C.3   172  LYS172      0.0311
     83  CG        -9.8290  -20.4800   10.2000 C.3   172  LYS172      0.0038
     84  CD        -8.5810  -20.6370   11.0840 C.3   172  LYS172      0.0206
     85  CE        -7.3140  -20.1610   10.3780 C.3   172  LYS172      0.1093
     86  NZ        -7.1150  -18.6900   10.4530 N.3   172  LYS172     -0.1314
     87  N        -12.2500  -16.6170    8.7100 N.am  173  ARG173     -0.1963
     88  CA       -12.9370  -15.3660    8.9840 C.3   173  ARG173      0.1729
     89  C        -14.4440  -15.5670    8.9010 C.2   173  ARG173      0.2617
     90  O        -14.9120  -16.6090    8.4340 O.2   173  ARG173     -0.2715
     91  CB       -12.4690  -14.2760    8.0080 C.3   173  ARG173      0.0348
     92  CG       -11.1770  -13.5830    8.4800 C.3   173  ARG173      0.0492
     93  CD       -10.3910  -12.8860    7.3590 C.3   173  ARG173      0.2205
     94  NE       -11.0050  -11.6450    6.8930 N.pl3 173  ARG173     -0.0865
     95  CZ       -11.2230  -10.5830    7.6630 C.cat 173  ARG173      0.5346
     96  NH1      -10.8800  -10.6070    8.9480 N.pl3 173  ARG173      0.1354
     97  NH2      -11.7790   -9.4970    7.1460 N.pl3 173  ARG173      0.1354
     98  N        -15.2030  -14.5850    9.3830 N.am  174  SER174     -0.1936
     99  CA       -16.6630  -14.6830    9.3610 C.3   174  SER174      0.2055
    100  C        -17.1280  -14.5220    7.9380 C.2   174  SER174      0.2642
    101  O        -16.3680  -14.0680    7.0670 O.2   174  SER174     -0.2714
    102  CB       -17.3160  -13.5810   10.1900 C.3   174  SER174      0.2130
    103  OG       -17.1880  -12.3350    9.5250 O.3   174  SER174     -0.2179
    104  N        -18.3880  -14.8770    7.7090 N.am  175  ILE175     -0.1977
    105  CA       -18.9830  -14.7680    6.3850 C.3   175  ILE175      0.1596
    106  C        -18.9050  -13.3310    5.9110 C.2   175  ILE175      0.2287
    107  O        -18.4340  -13.0600    4.8050 O.2   175  ILE175     -0.2864
    108  CB       -20.4550  -15.2800    6.3930 C.3   175  ILE175      0.0276
    109  CG1      -20.4350  -16.8080    6.5730 C.3   175  ILE175      0.0022
    110  CG2      -21.1880  -14.8720    5.0900 C.3   175  ILE175      0.0022
    111  CD1      -21.7950  -17.4920    6.5760 C.3   175  ILE175      0.0001
    112  N        -15.1110  -12.0650    5.1170 N.3   178  ILE178     -0.1245
    113  CA       -14.6540  -12.5260    3.8080 C.3   178  ILE178      0.1561
    114  C        -15.3080  -11.7300    2.6750 C.2   178  ILE178      0.2260
    115  O        -14.6720  -11.4140    1.6600 O.2   178  ILE178     -0.2867
    116  CB       -14.9820  -14.0080    3.6420 C.3   178  ILE178      0.0252
    117  CG1      -14.1700  -14.7960    4.6690 C.3   178  ILE178      0.0019
    118  CG2      -14.7430  -14.4460    2.2150 C.3   178  ILE178      0.0019
    119  CD1      -14.6680  -16.1670    4.9230 C.3   178  ILE178      0.0001
@<TRIPOS>BOND
     1    29    30    1
     2    29    28    1
     3    30    31    1
     4    37    36    1
     5    27    28    1
     6    27    24    1
     7    26    25    2
     8    48    47    2
     9    33    36    1
    10    33    32    1
    11    33    34    1
    12    35    34    2
    13    47    46    1
    14    25    32   am
    15    25    24    1
    16    34    38   am
    17    24    23    1
    18     7     6   ar
    19     8     6   ar
    20    46    49    1
    21    46    45    1
    22    49    50    1
    23     6     5    1
    24    41    40    2
    25    38    39    1
    26    23    21   am
    27    45    40   am
    28    40    39    1
    29     1     2    1
    30    39    42    1
    31    18    17    1
    32    22    21    2
    33     2     5    1
    34     2     3    1
    35    73    72    1
    36    21    20    1
    37    50    51    1
    38    52    51    2
    39    72    71    1
    40    51    53   am
    41    42    43    1
    42    42    44    1
    43    17    14    1
    44   115   114    2
    45     3     9   am
    46     3     4    2
    47    20    19    1
    48    19    15   am
    49     9    10    1
    50   118   116    1
    51    13    14    1
    52    13    11   am
    53    15    14    1
    54    15    16    2
    55    71    70    1
    56   114   113    1
    57    10    11    1
    58    70    69    1
    59    11    12    2
    60   116   113    1
    61   116   117    1
    62   113   112    1
    63   117   119    1
    64    69    66    1
    65   107   106    2
    66    74    75    1
    67   110   108    1
    68    75    76    1
    69    66    67    1
    70    66    65    1
    71   106   105    1
    72    67    68    2
    73    63    62    1
    74   105   108    1
    75   105   104    1
    76   108   109    1
    77   109   111    1
    78    65    56   am
    79    76    77    2
    80    76    78   am
    81    94    93    1
    82    94    95    2
    83   101   100    2
    84    60    59    1
    85    60    61    1
    86    97    95    1
    87    93    92    1
    88    57    56    2
    89    62    61    2
    90    62    64    1
    91    95    96    1
    92    59    58    1
    93   104   100   am
    94    56    55    1
    95    78    79    1
    96   100    99    1
    97    91    92    1
    98    91    88    1
    99    90    89    2
   100    87    88    1
   101    87    80   am
   102    58    55    1
   103    89    88    1
   104    89    98   am
   105    55    54    1
   106    79    80    1
   107    79    82    1
   108    99    98    1
   109    99   102    1
   110   103   102    1
   111    80    81    2
   112    82    83    1
   113    83    84    1
   114    85    86    1
   115    85    84    1
