@<TRIPOS>MOLECULE
tmp/3hjnA01.pdb
 196 188 0 0 0
SMALL
GASTEIGER

@<TRIPOS>ATOM
      1  N        -15.0720  -28.3470   -0.0720 N.3     9  ASP9       -0.1225
      2  CA       -16.4810  -28.3720    0.3630 C.3     9  ASP9        0.1805
      3  C        -16.5800  -27.8080    1.7700 C.2     9  ASP9        0.2598
      4  O        -15.8340  -28.2120    2.6670 O.2     9  ASP9       -0.2718
      5  CB       -17.0110  -29.8050    0.3820 C.3     9  ASP9        0.1424
      6  CG       -16.7430  -30.5350   -0.9230 C.2     9  ASP9        0.3668
      7  OD1      -17.6540  -30.6330   -1.7730 O.co2   9  ASP9       -0.2456
      8  OD2      -15.5990  -30.9900   -1.1040 O.co2   9  ASP9       -0.2456
      9  N        -17.4910  -26.8670    1.9560 N.am   10  GLY10      -0.1957
     10  CA       -17.6690  -26.2790    3.2660 C.3    10  GLY10       0.1869
     11  C        -16.8010  -25.0590    3.4830 C.2    10  GLY10       0.2309
     12  O        -16.8050  -24.5000    4.5810 O.2    10  GLY10      -0.2863
     13  N        -17.9090  -21.2810   -0.6010 N.3    13  LYS13      -0.1231
     14  CA       -18.0050  -20.7850   -1.9720 C.3    13  LYS13       0.1693
     15  C        -19.4100  -20.3200   -2.4080 C.2    13  LYS13       0.2592
     16  O        -19.5850  -19.1990   -2.8820 O.2    13  LYS13      -0.2718
     17  CB       -17.5070  -21.8560   -2.9430 C.3    13  LYS13       0.0285
     18  CG       -16.0120  -22.2300   -2.8100 C.3    13  LYS13       0.0035
     19  CD       -15.6560  -23.2960   -3.8460 C.3    13  LYS13       0.0206
     20  CE       -16.5490  -24.5170   -3.7160 C.3    13  LYS13       0.1093
     21  NZ       -16.5810  -25.0660   -2.3120 N.3    13  LYS13      -0.1314
     22  N        -20.4020  -21.1840   -2.2470 N.am   14  SER14      -0.1952
     23  CA       -21.7670  -20.8380   -2.6680 C.3    14  SER14       0.1924
     24  C        -22.2920  -19.5820   -1.9840 C.2    14  SER14       0.2314
     25  O        -22.8860  -18.7110   -2.6210 O.2    14  SER14      -0.2863
     26  CB       -22.6920  -22.0210   -2.4120 C.3    14  SER14       0.2116
     27  OG       -22.2220  -23.1290   -3.1560 O.3    14  SER14      -0.2180
     28  N        -22.8060  -22.5150  -11.8530 N.3    35  ARG35      -0.1231
     29  CA       -22.0730  -23.4910  -11.0540 C.3    35  ARG35       0.1694
     30  C        -21.5210  -24.6560  -11.8890 C.2    35  ARG35       0.2592
     31  O        -22.0140  -24.9460  -12.9900 O.2    35  ARG35      -0.2718
     32  CB       -22.9810  -24.0660   -9.9720 C.3    35  ARG35       0.0321
     33  CG       -24.0290  -25.0600  -10.5040 C.3    35  ARG35       0.0489
     34  CD       -24.7840  -25.7170   -9.3470 C.3    35  ARG35       0.2205
     35  NE       -25.8840  -26.5740   -9.7820 N.pl3  35  ARG35      -0.0865
     36  CZ       -26.9650  -26.8100   -9.0430 C.cat  35  ARG35       0.5346
     37  NH1      -27.0830  -26.2480   -7.8440 N.pl3  35  ARG35       0.1354
     38  NH2      -27.9290  -27.5950   -9.5000 N.pl3  35  ARG35       0.1354
     39  N        -20.5170  -25.3290  -11.3290 N.am   36  GLU36      -0.1966
     40  CA       -19.8790  -26.4940  -11.9420 C.3    36  GLU36       0.1718
     41  C        -19.7270  -27.6570  -10.9660 C.2    36  GLU36       0.2458
     42  O        -19.4610  -27.4620   -9.7800 O.2    36  GLU36      -0.2730
     43  CB       -18.4870  -26.1420  -12.4590 C.3    36  GLU36       0.0428
     44  CG       -18.4740  -25.3370  -13.7190 C.3    36  GLU36       0.1163
     45  CD       -17.5180  -25.9460  -14.7400 C.2    36  GLU36       0.3649
     46  OE1      -16.2870  -25.8090  -14.5680 O.co2  36  GLU36      -0.2457
     47  OE2      -18.0010  -26.5790  -15.7060 O.co2  36  GLU36      -0.2457
     48  N        -19.9890  -28.8840  -11.4290 N.am   37  PRO37      -0.2727
     49  CA       -20.4250  -29.2190  -12.7840 C.3    37  PRO37       0.1402
     50  C        -21.8680  -28.6850  -12.8820 C.2    37  PRO37       0.2269
     51  O        -22.4470  -28.3140  -11.8660 O.2    37  PRO37      -0.2865
     52  CB       -20.3670  -30.7330  -12.7840 C.3    37  PRO37       0.0296
     53  CG       -20.7700  -31.0710  -11.3870 C.3    37  PRO37       0.0237
     54  CD       -20.0000  -30.0650  -10.5550 C.3    37  PRO37       0.0939
     55  N        -23.9210  -33.4440  -14.0430 N.3    47  ARG47      -0.1245
     56  CA       -23.7270  -33.2450  -12.5990 C.3    47  ARG47       0.1563
     57  C        -24.3900  -34.3310  -11.7370 C.2    47  ARG47       0.2260
     58  O        -23.8100  -34.8040  -10.7500 O.2    47  ARG47      -0.2867
     59  CB       -24.2680  -31.8660  -12.1860 C.3    47  ARG47       0.0307
     60  CG       -24.2360  -31.5870  -10.6860 C.3    47  ARG47       0.0489
     61  CD       -24.8490  -30.2080  -10.3630 C.3    47  ARG47       0.2205
     62  NE       -24.9050  -29.9760   -8.9200 N.pl3  47  ARG47      -0.0865
     63  CZ       -23.9690  -29.3560   -8.2080 C.cat  47  ARG47       0.5346
     64  NH1      -22.8760  -28.8690   -8.7970 N.pl3  47  ARG47       0.1354
     65  NH2      -24.1160  -29.2580   -6.8900 N.pl3  47  ARG47       0.1354
     66  N        -22.4770  -36.8610   -9.0410 N.3    51  LEU51      -0.1245
     67  CA       -22.7930  -36.8940   -7.6240 C.3    51  LEU51       0.1561
     68  C        -23.4750  -38.1940   -7.2300 C.2    51  LEU51       0.2260
     69  O        -23.1240  -38.8030   -6.2160 O.2    51  LEU51      -0.2867
     70  CB       -23.6750  -35.6990   -7.2440 C.3    51  LEU51       0.0270
     71  CG       -22.9250  -34.3690   -7.2240 C.3    51  LEU51       0.0019
     72  CD1      -23.9090  -33.2160   -7.1090 C.3    51  LEU51       0.0001
     73  CD2      -21.9500  -34.3690   -6.0610 C.3    51  LEU51       0.0001
     74  N        -16.4400  -34.1260  -15.8310 N.3    64  PHE64      -0.1241
     75  CA       -16.3110  -32.7300  -15.4260 C.3    64  PHE64       0.1605
     76  C        -15.8910  -31.8960  -16.6360 C.2    64  PHE64       0.2264
     77  O        -16.3550  -30.7670  -16.8060 O.2    64  PHE64      -0.2867
     78  CB       -15.2680  -32.5500  -14.2770 C.3    64  PHE64       0.0534
     79  CG       -15.7760  -32.9540  -12.9130 C.ar   64  PHE64      -0.0203
     80  CD1      -16.8270  -32.2640  -12.3200 C.ar   64  PHE64      -0.0042
     81  CD2      -15.2190  -34.0440  -12.2370 C.ar   64  PHE64      -0.0042
     82  CE1      -17.3280  -32.6510  -11.0750 C.ar   64  PHE64      -0.0003
     83  CE2      -15.7120  -34.4450  -10.9880 C.ar   64  PHE64      -0.0003
     84  CZ       -16.7790  -33.7420  -10.4030 C.ar   64  PHE64      -0.0000
     85  N        -17.9160  -28.8760  -18.3980 N.3    68  ARG68      -0.1245
     86  CA       -17.1980  -27.6080  -18.4980 C.3    68  ARG68       0.1563
     87  C        -17.2040  -27.0790  -19.9360 C.2    68  ARG68       0.2260
     88  O        -17.3790  -25.8770  -20.1700 O.2    68  ARG68      -0.2867
     89  CB       -15.7310  -27.7690  -18.0160 C.3    68  ARG68       0.0307
     90  CG       -14.8850  -26.4670  -18.0350 C.3    68  ARG68       0.0489
     91  CD       -13.6850  -26.5660  -17.0520 C.3    68  ARG68       0.2205
     92  NE       -14.2050  -26.8780  -15.7220 N.pl3  68  ARG68      -0.0865
     93  CZ       -13.8040  -27.8950  -14.9690 C.cat  68  ARG68       0.5346
     94  NH1      -12.8470  -28.7090  -15.4000 N.pl3  68  ARG68       0.1354
     95  NH2      -14.4160  -28.1330  -13.8090 N.pl3  68  ARG68       0.1354
     96  N        -19.2800  -20.6870   -9.6510 N.3    88  ASP88      -0.1225
     97  CA       -19.1090  -21.4540   -8.4130 C.3    88  ASP88       0.1805
     98  C        -18.3310  -22.6960   -8.8570 C.2    88  ASP88       0.2598
     99  O        -18.9360  -23.7070   -9.2630 O.2    88  ASP88      -0.2718
    100  CB       -20.4780  -21.8610   -7.8370 C.3    88  ASP88       0.1424
    101  CG       -20.3900  -22.3780   -6.4020 C.2    88  ASP88       0.3668
    102  OD1      -19.2690  -22.7370   -5.9460 O.co2  88  ASP88      -0.2456
    103  OD2      -21.4480  -22.4380   -5.7270 O.co2  88  ASP88      -0.2456
    104  N        -16.9960  -22.5990   -8.7740 N.am   89  ARG89      -0.1966
    105  CA       -16.0340  -23.6420   -9.1950 C.3    89  ARG89       0.1729
    106  C        -15.7330  -23.5700  -10.6930 C.2    89  ARG89       0.2616
    107  O        -16.6300  -23.3120  -11.4910 O.2    89  ARG89      -0.2715
    108  CB       -16.5350  -25.0620   -8.9080 C.3    89  ARG89       0.0348
    109  CG       -16.4420  -25.4800   -7.4650 C.3    89  ARG89       0.0492
    110  CD       -16.8520  -26.9310   -7.3150 C.3    89  ARG89       0.2205
    111  NE       -16.8160  -27.3580   -5.9230 N.pl3  89  ARG89      -0.0865
    112  CZ       -15.6920  -27.5380   -5.2410 C.cat  89  ARG89       0.5346
    113  NH1      -14.5250  -27.3240   -5.8330 N.pl3  89  ARG89       0.1354
    114  NH2      -15.7340  -27.9250   -3.9770 N.pl3  89  ARG89       0.1354
    115  N        -14.4730  -23.8070  -11.0680 N.am   90  TYR90      -0.1974
    116  CA       -14.0740  -23.8110  -12.4820 C.3    90  TYR90       0.1639
    117  C        -12.9120  -24.7880  -12.7080 C.2    90  TYR90       0.2290
    118  O        -12.8710  -25.8600  -12.1040 O.2    90  TYR90      -0.2864
    119  CB       -13.7290  -22.3830  -12.9390 C.3    90  TYR90       0.0560
    120  CG       -13.5660  -22.1880  -14.4410 C.ar   90  TYR90      -0.0198
    121  CD1      -14.5030  -22.6890  -15.3340 C.ar   90  TYR90      -0.0009
    122  CD2      -12.4660  -21.4900  -14.9530 C.ar   90  TYR90      -0.0009
    123  CE1      -14.3610  -22.5100  -16.6980 C.ar   90  TYR90       0.0417
    124  CE2      -12.2970  -21.2970  -16.3130 C.ar   90  TYR90       0.0417
    125  CZ       -13.2580  -21.8140  -17.1850 C.ar   90  TYR90       0.1957
    126  OH       -13.1380  -21.6160  -18.5350 O.3    90  TYR90      -0.2866
    127  N        -10.7620  -26.5420   -9.8480 N.3    93  SER93      -0.1202
    128  CA       -11.3860  -27.6550   -9.1500 C.3    93  SER93       0.2020
    129  C        -10.9460  -28.9910   -9.7240 C.2    93  SER93       0.2619
    130  O        -10.6880  -29.9290   -8.9790 O.2    93  SER93      -0.2717
    131  CB       -12.9340  -27.5670   -9.2130 C.3    93  SER93       0.2103
    132  OG       -13.4450  -26.4540   -8.4890 O.3    93  SER93      -0.2182
    133  N        -10.9220  -29.1110  -11.0530 N.am   94  SER94      -0.1951
    134  CA       -10.5040  -30.3700  -11.6450 C.3    94  SER94       0.1924
    135  C         -9.0310  -30.5700  -11.2710 C.2    94  SER94       0.2314
    136  O         -8.6340  -31.6690  -10.9030 O.2    94  SER94      -0.2863
    137  CB       -10.6770  -30.3520  -13.1900 C.3    94  SER94       0.2116
    138  OG       -12.0430  -30.6510  -13.5400 O.3    94  SER94      -0.2180
    139  N         -9.0460  -31.3520   -7.3090 N.3    97  TYR97      -0.1227
    140  CA        -9.6930  -32.6440   -6.9720 C.3    97  TYR97       0.1736
    141  C         -9.2150  -33.8530   -7.7830 C.2    97  TYR97       0.2595
    142  O         -8.9220  -34.8970   -7.2170 O.2    97  TYR97      -0.2718
    143  CB       -11.2330  -32.5570   -7.0880 C.3    97  TYR97       0.0548
    144  CG       -11.9040  -31.7960   -5.9640 C.ar   97  TYR97      -0.0200
    145  CD1      -11.7780  -30.4180   -5.8640 C.ar   97  TYR97      -0.0009
    146  CD2      -12.6480  -32.4600   -4.9860 C.ar   97  TYR97      -0.0009
    147  CE1      -12.3760  -29.7210   -4.8120 C.ar   97  TYR97       0.0417
    148  CE2      -13.2530  -31.7670   -3.9340 C.ar   97  TYR97       0.0417
    149  CZ       -13.1060  -30.4090   -3.8550 C.ar   97  TYR97       0.1957
    150  OH       -13.6260  -29.7310   -2.7790 O.3    97  TYR97      -0.2866
    151  N         -9.1640  -33.7250   -9.1050 N.am   98  GLN98      -0.1979
    152  CA        -8.7090  -34.8300   -9.9320 C.3    98  GLN98       0.1601
    153  C         -7.1680  -34.8490  -10.1170 C.2    98  GLN98       0.2287
    154  O         -6.5580  -35.9140  -10.1570 O.2    98  GLN98      -0.2864
    155  CB        -9.4050  -34.7870  -11.2970 C.3    98  GLN98       0.0394
    156  CG       -10.8390  -35.2860  -11.2690 C.3    98  GLN98       0.0908
    157  CD       -11.7540  -34.3760  -10.4680 C.2    98  GLN98       0.2608
    158  OE1      -11.8480  -33.1760  -10.7330 O.2    98  GLN98      -0.2717
    159  NE2      -12.4310  -34.9410   -9.4900 N.am   98  GLN98      -0.0878
    160  N        -19.9110  -27.8060    6.8040 N.3   139  LYS139     -0.1245
    161  CA       -20.6150  -28.1640    5.5860 C.3   139  LYS139      0.1561
    162  C        -21.8930  -28.9190    5.9310 C.2   139  LYS139      0.2260
    163  O        -22.9710  -28.3290    5.9730 O.2   139  LYS139     -0.2867
    164  CB       -19.7410  -29.0220    4.6810 C.3   139  LYS139      0.0271
    165  CG       -20.4430  -29.4640    3.3900 C.3   139  LYS139      0.0035
    166  CD       -21.0600  -28.2720    2.6530 C.3   139  LYS139      0.0206
    167  CE       -21.3100  -28.6060    1.1750 C.3   139  LYS139      0.1093
    168  NZ       -21.7680  -27.4180    0.4010 N.3   139  LYS139     -0.1314
    169  N        -21.3300  -35.5490    0.2060 N.3   140  ASN140     -0.1240
    170  CA       -21.1360  -36.3240   -1.0170 C.3   140  ASN140      0.1653
    171  C        -19.9140  -37.2370   -0.9300 C.2   140  ASN140      0.2266
    172  O        -19.2010  -37.2540    0.0770 O.2   140  ASN140     -0.2867
    173  CB       -20.9940  -35.3930   -2.2330 C.3   140  ASN140      0.1155
    174  CG       -19.8320  -34.4190   -2.0990 C.2   140  ASN140      0.2627
    175  OD1      -18.7530  -34.7850   -1.6220 O.2   140  ASN140     -0.2716
    176  ND2      -20.0410  -33.1760   -2.5400 N.am  140  ASN140     -0.0877
    177  N        -17.1570  -36.9430   -2.3450 N.3   142  PHE142     -0.1227
    178  CA       -15.8950  -36.1900   -2.4220 C.3   142  PHE142      0.1736
    179  C        -15.4200  -35.6390   -1.0830 C.2   142  PHE142      0.2595
    180  O        -14.3130  -35.1210   -0.9860 O.2   142  PHE142     -0.2718
    181  CB       -16.0290  -35.0090   -3.3920 C.3   142  PHE142      0.0547
    182  CG       -16.2630  -35.4210   -4.8190 C.ar  142  PHE142     -0.0202
    183  CD1      -15.2090  -35.8570   -5.6130 C.ar  142  PHE142     -0.0042
    184  CD2      -17.5400  -35.3920   -5.3620 C.ar  142  PHE142     -0.0042
    185  CE1      -15.4200  -36.2600   -6.9330 C.ar  142  PHE142     -0.0003
    186  CE2      -17.7630  -35.7920   -6.6840 C.ar  142  PHE142     -0.0003
    187  CZ       -16.7030  -36.2270   -7.4680 C.ar  142  PHE142     -0.0000
    188  N        -16.2300  -35.7610   -0.0390 N.am  143  GLU143     -0.1979
    189  CA       -15.8260  -35.1810    1.2330 C.3   143  GLU143      0.1602
    190  C        -15.0200  -36.0090    2.2210 C.2   143  GLU143      0.2287
    191  O        -15.1080  -35.8020    3.4290 O.2   143  GLU143     -0.2864
    192  CB       -17.0520  -34.6080    1.9230 C.3   143  GLU143      0.0415
    193  CG       -17.6540  -33.4550    1.1700 C.3   143  GLU143      0.1163
    194  CD       -19.0070  -33.0930    1.7260 C.2   143  GLU143      0.3649
    195  OE1      -19.1610  -33.1830    2.9650 O.co2 143  GLU143     -0.2457
    196  OE2      -19.9040  -32.7170    0.9350 O.co2 143  GLU143     -0.2457
@<TRIPOS>BOND
     1    88    87    2
     2    87    86    1
     3   126   125    1
     4    86    85    1
     5    86    89    1
     6    90    89    1
     7    90    91    1
     8   125   123   ar
     9   125   124   ar
    10    91    92    1
    11    77    76    2
    12   123   121   ar
    13    76    75    1
    14   124   122   ar
    15    74    75    1
    16    92    93    2
    17    47    45   ar
    18    75    78    1
    19    94    93    1
    20   121   120   ar
    21    93    95    1
    22   122   120   ar
    23    45    46   ar
    24    45    44    1
    25   120   119    1
    26    78    79    1
    27    55    56    1
    28    44    43    1
    29   138   137    1
    30   137   134    1
    31    31    30    2
    32   119   116    1
    33    79    80   ar
    34    79    81   ar
    35    50    49    1
    36    50    51    2
    37    49    52    1
    38    49    48    1
    39    52    53    1
    40   117   116    1
    41   117   118    2
    42    56    59    1
    43    56    57    1
    44   116   115    1
    45    43    40    1
    46    80    82   ar
    47    81    83   ar
    48    59    60    1
    49    40    39    1
    50    40    41    1
    51    30    39   am
    52    30    29    1
    53    28    29    1
    54    57    58    2
    55   134   135    1
    56   134   133    1
    57   107   106    2
    58    48    41   am
    59    48    54    1
    60    53    54    1
    61   155   156    1
    62   155   152    1
    63   135   136    2
    64   156   157    1
    65    82    84   ar
    66   115   106   am
    67    29    32    1
    68   133   129   am
    69    83    84   ar
    70    41    42    2
    71   158   157    2
    72   106   105    1
    73    60    61    1
    74    33    32    1
    75    33    34    1
    76   157   159   am
    77    61    62    1
    78   154   153    2
    79   153   152    1
    80   152   151    1
    81   127   128    1
    82    35    34    1
    83    35    36    2
    84   129   128    1
    85   129   130    2
    86    96    97    1
    87    38    36    1
    88    99    98    2
    89   131   128    1
    90   131   132    1
    91   105   108    1
    92   105   104    1
    93   151   141   am
    94    36    37    1
    95    66    67    1
    96    62    63    2
    97   108   109    1
    98    98   104   am
    99    98    97    1
   100    64    63    1
   101    97   100    1
   102    63    65    1
   103   100   101    1
   104   141   142    2
   105   141   140    1
   106    67    70    1
   107    67    68    1
   108   187   185   ar
   109   187   186   ar
   110   109   110    1
   111   110   111    1
   112   139   140    1
   113    70    71    1
   114    68    69    2
   115    71    72    1
   116    71    73    1
   117   143   140    1
   118   143   144    1
   119   185   183   ar
   120   186   184   ar
   121   101   102   ar
   122   101   103   ar
   123   144   145   ar
   124   144   146   ar
   125   111   112    2
   126   145   147   ar
   127   113   112    1
   128   183   182   ar
   129   184   182   ar
   130   112   114    1
   131   146   148   ar
   132   182   181    1
   133   147   149   ar
   134   148   149   ar
   135   149   150    1
   136    19    20    1
   137    19    18    1
   138    20    21    1
   139   181   178    1
   140    27    26    1
   141    17    18    1
   142    17    14    1
   143    16    15    2
   144    23    26    1
   145    23    22    1
   146    23    24    1
   147    25    24    2
   148   176   174   am
   149   178   177    1
   150   178   179    1
   151    15    22   am
   152    15    14    1
   153   173   174    1
   154   173   170    1
   155   174   175    2
   156    14    13    1
   157     7     6   ar
   158     8     6   ar
   159   179   180    2
   160   179   188   am
   161   170   171    1
   162   170   169    1
   163   171   172    2
   164     6     5    1
   165     1     2    1
   166   188   189    1
   167     2     5    1
   168     2     3    1
   169   168   167    1
   170   196   194   ar
   171   193   194    1
   172   193   192    1
   173   167   166    1
   174   189   192    1
   175   189   190    1
   176   194   195   ar
   177     3     9   am
   178     3     4    2
   179     9    10    1
   180   190   191    2
   181   166   165    1
   182    10    11    1
   183   165   164    1
   184    11    12    2
   185   164   161    1
   186   161   162    1
   187   161   160    1
   188   162   163    2
