@<TRIPOS>MOLECULE
tmp/3hjvA02.pdb
 80 76 0 0 0
SMALL
GASTEIGER

@<TRIPOS>ATOM
      1  N         37.9800  102.4350    4.3500 N.3   121  ALA121     -0.1231
      2  CA        38.7920  103.1410    5.3420 C.3   121  ALA121      0.1694
      3  C         39.3520  104.4820    4.8760 C.2   121  ALA121      0.2592
      4  O         39.2280  105.5130    5.5810 O.2   121  ALA121     -0.2718
      5  CB        39.9290  102.2210    5.8350 C.3   121  ALA121      0.0304
      6  N         39.9650  104.4650    3.7030 N.am  122  VAL122     -0.1966
      7  CA        40.5220  105.6850    3.1180 C.3   122  VAL122      0.1712
      8  C         40.1520  105.7140    1.6630 C.2   122  VAL122      0.2458
      9  O         39.9320  104.6690    1.0620 O.2   122  VAL122     -0.2730
     10  CB        42.0450  105.8410    3.2970 C.3   122  VAL122      0.0289
     11  CG1       42.3910  105.9010    4.7560 C.3   122  VAL122      0.0023
     12  CG2       42.8350  104.7320    2.5770 C.3   122  VAL122      0.0023
     13  N         40.0710  106.9230    1.0870 N.am  123  PRO123     -0.2727
     14  CA        39.6690  106.9960   -0.2960 C.3   123  PRO123      0.1402
     15  C         40.6930  106.3160   -1.1660 C.2   123  PRO123      0.2269
     16  O         41.8880  106.3380   -0.8680 O.2   123  PRO123     -0.2865
     17  CB        39.5790  108.5010   -0.5680 C.3   123  PRO123      0.0296
     18  CG        39.4750  109.1190    0.8090 C.3   123  PRO123      0.0237
     19  CD        40.3110  108.2530    1.6660 C.3   123  PRO123      0.0939
     20  N         44.6710  107.2630   -2.0180 N.3   126  THR126     -0.1218
     21  CA        45.3510  108.0060   -0.9590 C.3   126  THR126      0.1862
     22  C         46.3680  107.1680   -0.1900 C.2   126  THR126      0.2287
     23  O         47.2060  107.7320    0.5240 O.2   126  THR126     -0.2866
     24  CB        44.3850  108.6370    0.0500 C.3   126  THR126      0.1770
     25  OG1       43.6820  107.6060    0.7600 O.3   126  THR126     -0.2211
     26  CG2       43.4110  109.6390   -0.6770 C.3   126  THR126      0.0375
     27  N         53.0270  112.1980    8.2790 N.3   150  GLU150     -0.1231
     28  CA        51.9980  111.2800    7.7980 C.3   150  GLU150      0.1699
     29  C         52.2290  109.8850    8.3470 C.2   150  GLU150      0.2592
     30  O         53.2710  109.6190    8.9390 O.2   150  GLU150     -0.2718
     31  CB        52.0700  111.2000    6.2690 C.3   150  GLU150      0.0402
     32  CG        51.9370  112.5140    5.5470 C.3   150  GLU150      0.1161
     33  CD        50.5080  112.9870    5.3690 C.2   150  GLU150      0.3649
     34  OE1       49.5720  112.2920    5.7860 O.co2 150  GLU150     -0.2457
     35  OE2       50.3180  114.0790    4.7820 O.co2 150  GLU150     -0.2457
     36  N         51.2460  109.0040    8.1510 N.am  151  VAL151     -0.1980
     37  CA        51.3610  107.6120    8.5420 C.3   151  VAL151      0.1595
     38  C         52.0610  106.7610    7.4720 C.2   151  VAL151      0.2287
     39  O         51.6480  106.7220    6.3140 O.2   151  VAL151     -0.2864
     40  CB        49.9610  106.9720    8.8290 C.3   151  VAL151      0.0276
     41  CG1       50.0680  105.4580    9.1460 C.3   151  VAL151      0.0022
     42  CG2       49.2510  107.7040    9.9550 C.3   151  VAL151      0.0022
     43  N         50.1280  106.3970    3.9490 N.3   168  GLN168     -0.1245
     44  CA        49.7930  107.4780    3.0280 C.3   168  GLN168      0.1566
     45  C         50.6790  107.3220    1.7680 C.2   168  GLN168      0.2260
     46  O         51.8800  107.0860    1.8790 O.2   168  GLN168     -0.2867
     47  CB        49.9420  108.8190    3.7400 C.3   168  GLN168      0.0367
     48  CG        49.3970  110.0410    2.9920 C.3   168  GLN168      0.0905
     49  CD        50.3850  110.7240    2.0610 C.2   168  GLN168      0.2608
     50  OE1       51.5990  110.6360    2.2310 O.2   168  GLN168     -0.2717
     51  NE2       49.8520  111.4560    1.0860 N.am  168  GLN168     -0.0878
     52  N         47.9920  102.4350   11.0010 N.3   199  ALA199     -0.1231
     53  CA        47.1120  103.2800   11.7890 C.3   199  ALA199      0.1694
     54  C         45.9540  103.8730   11.0200 C.2   199  ALA199      0.2591
     55  O         44.9370  104.2800   11.6150 O.2   199  ALA199     -0.2718
     56  CB        47.9300  104.4020   12.4780 C.3   199  ALA199      0.0304
     57  N         46.0700  103.9400    9.6980 N.am  200  LEU200     -0.1980
     58  CA        44.9550  104.4420    8.8880 C.3   200  LEU200      0.1596
     59  C         43.6910  103.5360    8.9830 C.2   200  LEU200      0.2287
     60  O         42.5900  103.9750    8.6580 O.2   200  LEU200     -0.2864
     61  CB        45.3660  104.5950    7.4270 C.3   200  LEU200      0.0297
     62  CG        46.5070  105.5790    7.1460 C.3   200  LEU200      0.0022
     63  CD1       46.8750  105.5210    5.6700 C.3   200  LEU200      0.0001
     64  CD2       46.1220  107.0140    7.5730 C.3   200  LEU200      0.0001
     65  N         42.5460  102.4810   11.9500 N.3   201  LYS201     -0.1231
     66  CA        41.9770  102.5650   13.2930 C.3   201  LYS201      0.1678
     67  C         40.4570  102.8080   13.2740 C.2   201  LYS201      0.2434
     68  O         39.7270  102.1250   14.0070 O.2   201  LYS201     -0.2733
     69  CB        42.7030  103.6100   14.1330 C.3   201  LYS201      0.0284
     70  CG        42.1290  103.8220   15.5140 C.3   201  LYS201      0.0035
     71  CD        42.4200  102.6960   16.4600 C.3   201  LYS201      0.0206
     72  CE        42.1550  103.1400   17.8990 C.3   201  LYS201      0.1093
     73  NZ        42.7650  102.2230   18.8840 N.3   201  LYS201     -0.1314
     74  N         39.9710  103.7500   12.4240 N.am  202  PRO202     -0.2729
     75  CA        38.5260  103.9830   12.3870 C.3   202  PRO202      0.1401
     76  C         37.7100  102.7430   11.9420 C.2   202  PRO202      0.2269
     77  O         36.6280  102.4740   12.5240 O.2   202  PRO202     -0.2865
     78  CB        38.3840  105.1570   11.4090 C.3   202  PRO202      0.0296
     79  CG        39.7000  105.9010   11.5200 C.3   202  PRO202      0.0237
     80  CD        40.7070  104.8000   11.6780 C.3   202  PRO202      0.0939
@<TRIPOS>BOND
     1    20    21    1
     2    15    16    2
     3    15    14    1
     4    21    22    1
     5    21    24    1
     6    26    24    1
     7    17    14    1
     8    17    18    1
     9    14    13    1
    10    22    23    2
    11    24    25    1
    12    18    19    1
    13     9     8    2
    14    51    49   am
    15    13     8   am
    16    13    19    1
    17     8     7    1
    18    45    46    2
    19    45    44    1
    20    49    50    2
    21    49    48    1
    22    12    10    1
    23    48    47    1
    24    44    47    1
    25    44    43    1
    26     7    10    1
    27     7     6    1
    28    10    11    1
    29     6     3   am
    30     1     2    1
    31    35    33   ar
    32     3     2    1
    33     3     4    2
    34     2     5    1
    35    33    32    1
    36    33    34   ar
    37    32    31    1
    38    63    62    1
    39    31    28    1
    40    39    38    2
    41    62    61    1
    42    62    64    1
    43    61    58    1
    44    38    37    1
    45    28    27    1
    46    28    29    1
    47    36    29   am
    48    36    37    1
    49    29    30    2
    50    37    40    1
    51    60    59    2
    52    40    41    1
    53    40    42    1
    54    58    59    1
    55    58    57    1
    56    57    54   am
    57    52    53    1
    58    54    55    2
    59    54    53    1
    60    78    79    1
    61    78    75    1
    62    79    80    1
    63    80    74    1
    64    53    56    1
    65    76    75    1
    66    76    77    2
    67    65    66    1
    68    75    74    1
    69    74    67   am
    70    67    66    1
    71    67    68    2
    72    66    69    1
    73    69    70    1
    74    70    71    1
    75    71    72    1
    76    72    73    1
