@<TRIPOS>MOLECULE
tmp/3hjvB01.pdb
 122 113 0 0 0
SMALL
GASTEIGER

@<TRIPOS>ATOM
      1  N         46.8580   84.4990  -19.2940 N.3     9  GLY9       -0.1210
      2  CA        47.8270   85.5510  -19.0630 C.3     9  GLY9        0.1956
      3  C         47.8970   85.9920  -17.6190 C.2     9  GLY9        0.2611
      4  O         47.5410   85.2530  -16.6950 O.2     9  GLY9       -0.2717
      5  N         48.3780   87.2190  -17.4530 N.am   10  GLN10      -0.1979
      6  CA        48.5880   87.8050  -16.1450 C.3    10  GLN10       0.1601
      7  C         47.4140   87.5720  -15.1950 C.2    10  GLN10       0.2287
      8  O         46.2440   87.8260  -15.5270 O.2    10  GLN10      -0.2864
      9  CB        48.8570   89.3060  -16.2900 C.3    10  GLN10       0.0394
     10  CG        49.2700   90.0310  -15.0050 C.3    10  GLN10       0.0908
     11  CD        50.7040   89.8080  -14.6210 C.2    10  GLN10       0.2608
     12  OE1       51.5870   89.6910  -15.4890 O.2    10  GLN10      -0.2717
     13  NE2       50.9720   89.8010  -13.3050 N.am   10  GLN10      -0.0878
     14  N         45.2920   84.7960  -24.1540 N.3    89  HIS89      -0.1226
     15  CA        44.8490   86.1090  -23.6940 C.3    89  HIS89       0.1752
     16  C         46.0340   86.9980  -23.3180 C.2    89  HIS89       0.2596
     17  O         46.6890   86.7770  -22.2840 O.2    89  HIS89      -0.2718
     18  CB        43.9040   85.9020  -22.5270 C.3    89  HIS89       0.0759
     19  CG        43.0700   87.0980  -22.2080 C.ar   89  HIS89       0.0818
     20  ND1       43.5940   88.2480  -21.6440 N.ar   89  HIS89      -0.2268
     21  CD2       41.7450   87.3180  -22.3650 C.ar   89  HIS89       0.1154
     22  CE1       42.6170   89.1220  -21.4760 C.ar   89  HIS89       0.1986
     23  NE2       41.4820   88.5840  -21.9090 N.ar   89  HIS89      -0.2212
     24  N         46.3300   87.9480  -24.2060 N.am   90  SER90      -0.1952
     25  CA        47.4090   88.9510  -24.0350 C.3    90  SER90       0.1924
     26  C         48.7740   88.2440  -23.9610 C.2    90  SER90       0.2314
     27  O         49.2920   87.8420  -24.9990 O.2    90  SER90      -0.2863
     28  CB        47.0910   89.9010  -22.8680 C.3    90  SER90       0.2116
     29  OG        48.0750   90.9110  -22.7400 O.3    90  SER90      -0.2180
     30  N         39.3530   97.7340  -23.1520 N.3   155  VAL155     -0.1231
     31  CA        40.6410   97.1010  -23.3920 C.3   155  VAL155      0.1692
     32  C         40.5820   95.5680  -23.3950 C.2   155  VAL155      0.2592
     33  O         41.5090   94.9560  -23.9080 O.2   155  VAL155     -0.2718
     34  CB        41.7470   97.5990  -22.4190 C.3   155  VAL155      0.0266
     35  CG1       42.0040   99.1190  -22.5990 C.3   155  VAL155      0.0020
     36  CG2       41.4420   97.2490  -20.9690 C.3   155  VAL155      0.0020
     37  N         39.5430   94.9720  -22.7950 N.am  156  ASN156     -0.1974
     38  CA        39.3070   93.5260  -22.8470 C.3   156  ASN156      0.1688
     39  C         37.8140   93.2880  -23.0580 C.2   156  ASN156      0.2292
     40  O         36.9890   93.8340  -22.3030 O.2   156  ASN156     -0.2864
     41  CB        39.5260   92.8030  -21.5140 C.3   156  ASN156      0.1181
     42  CG        40.9590   92.5490  -21.0960 C.2   156  ASN156      0.2629
     43  OD1       41.1180   91.8350  -20.1060 O.2   156  ASN156     -0.2716
     44  ND2       41.9860   93.1210  -21.7510 N.am  156  ASN156     -0.0877
     45  N         35.9520   90.1320  -22.5560 N.3   158  ASN158     -0.1240
     46  CA        36.1930   88.8120  -21.9750 C.3   158  ASN158      0.1653
     47  C         35.0290   87.8390  -22.0250 C.2   158  ASN158      0.2266
     48  O         35.2060   86.6440  -22.2630 O.2   158  ASN158     -0.2867
     49  CB        36.7240   89.0030  -20.5520 C.3   158  ASN158      0.1155
     50  CG        38.0980   89.6390  -20.5470 C.2   158  ASN158      0.2627
     51  OD1       38.8360   89.4950  -21.5210 O.2   158  ASN158     -0.2716
     52  ND2       38.4430   90.3610  -19.4720 N.am  158  ASN158     -0.0877
     53  N         31.1760   91.1120  -19.3700 N.3   162  GLN162     -0.1245
     54  CA        32.4590   91.2320  -18.6490 C.3   162  GLN162      0.1566
     55  C         33.4380   91.9540  -19.5650 C.2   162  GLN162      0.2260
     56  O         34.0520   91.3320  -20.4500 O.2   162  GLN162     -0.2867
     57  CB        33.1000   89.9090  -18.2710 C.3   162  GLN162      0.0367
     58  CG        32.4920   89.1400  -17.1690 C.3   162  GLN162      0.0905
     59  CD        33.3800   87.9290  -16.7470 C.2   162  GLN162      0.2608
     60  OE1       32.8740   86.8400  -16.5620 O.2   162  GLN162     -0.2717
     61  NE2       34.6890   88.1400  -16.6170 N.am  162  GLN162     -0.0878
     62  N         36.6040   95.0580  -19.6480 N.3   164  VAL164     -0.1245
     63  CA        37.5250   95.8640  -18.8570 C.3   164  VAL164      0.1561
     64  C         37.8230   97.1340  -19.6540 C.2   164  VAL164      0.2260
     65  O         38.0010   97.0630  -20.8620 O.2   164  VAL164     -0.2867
     66  CB        38.8490   95.1160  -18.5740 C.3   164  VAL164      0.0252
     67  CG1       39.7900   95.9970  -17.7580 C.3   164  VAL164      0.0019
     68  CG2       38.6020   93.7800  -17.8410 C.3   164  VAL164      0.0019
     69  N         40.1780   98.2570  -10.6290 N.3   190  LEU190     -0.1245
     70  CA        41.1390   97.1750  -10.5150 C.3   190  LEU190      0.1561
     71  C         42.4700   97.6910   -9.9970 C.2   190  LEU190      0.2260
     72  O         42.9710   98.7090  -10.4670 O.2   190  LEU190     -0.2867
     73  CB        41.3430   96.4710  -11.8540 C.3   190  LEU190      0.0270
     74  CG        40.0590   95.9410  -12.5110 C.3   190  LEU190      0.0019
     75  CD1       40.4030   95.1480  -13.7200 C.3   190  LEU190      0.0001
     76  CD2       39.2430   95.0900  -11.5360 C.3   190  LEU190      0.0001
     77  N         45.7190   98.1460  -10.3240 N.3   192  VAL192     -0.1245
     78  CA        46.7790   98.0540  -11.3280 C.3   192  VAL192      0.1561
     79  C         47.3110   99.4390  -11.6540 C.2   192  VAL192      0.2260
     80  O         46.5570  100.4140  -11.6650 O.2   192  VAL192     -0.2867
     81  CB        46.2790   97.4330  -12.6470 C.3   192  VAL192      0.0252
     82  CG1       45.8510   95.9820  -12.4540 C.3   192  VAL192      0.0019
     83  CG2       45.1540   98.2500  -13.1950 C.3   192  VAL192      0.0019
     84  N         46.9330   98.7610  -19.4620 N.3   196  SER196     -0.1202
     85  CA        47.1950   97.8840  -20.6060 C.3   196  SER196      0.2020
     86  C         46.1600   97.9830  -21.7130 C.2   196  SER196      0.2618
     87  O         44.9870   98.2710  -21.4680 O.2   196  SER196     -0.2717
     88  CB        47.2110   96.4260  -20.1330 C.3   196  SER196      0.2103
     89  OG        48.2780   96.1720  -19.2600 O.3   196  SER196     -0.2182
     90  N         46.6220   97.7340  -22.9330 N.am  197  HIS197     -0.1975
     91  CA        45.7690   97.6130  -24.1130 C.3   197  HIS197      0.1656
     92  C         44.9750   98.8390  -24.5410 C.2   197  HIS197      0.2291
     93  O         43.8960   98.7230  -25.1510 O.2   197  HIS197     -0.2864
     94  CB        44.8760   96.3620  -23.9630 C.3   197  HIS197      0.0771
     95  CG        45.6560   95.0930  -23.8300 C.ar  197  HIS197      0.0820
     96  ND1       46.3880   94.5740  -24.8710 N.ar  197  HIS197     -0.2267
     97  CD2       45.8370   94.2470  -22.7870 C.ar  197  HIS197      0.1154
     98  CE1       46.9930   93.4710  -24.4770 C.ar  197  HIS197      0.1986
     99  NE2       46.6860   93.2570  -23.2140 N.ar  197  HIS197     -0.2212
    100  N         40.9520   80.4880  -15.1280 N.3   273  VAL273     -0.1231
    101  CA        40.3330   81.7780  -15.4920 C.3   273  VAL273      0.1692
    102  C         39.6280   81.7700  -16.8580 C.2   273  VAL273      0.2591
    103  O         38.4660   82.1760  -16.9730 O.2   273  VAL273     -0.2718
    104  CB        41.3600   82.9310  -15.4570 C.3   273  VAL273      0.0266
    105  CG1       40.7160   84.2300  -15.8990 C.3   273  VAL273      0.0020
    106  CG2       41.9880   83.0520  -14.0490 C.3   273  VAL273      0.0020
    107  N         40.3280   81.3470  -17.8910 N.am  274  LEU274     -0.1980
    108  CA        39.7610   81.3530  -19.2520 C.3   274  LEU274      0.1596
    109  C         38.6220   80.3540  -19.3750 C.2   274  LEU274      0.2287
    110  O         37.6570   80.5760  -20.1280 O.2   274  LEU274     -0.2864
    111  CB        40.8300   81.0860  -20.3110 C.3   274  LEU274      0.0297
    112  CG        41.9640   82.0800  -20.4870 C.3   274  LEU274      0.0022
    113  CD1       42.8670   81.6500  -21.6660 C.3   274  LEU274      0.0001
    114  CD2       41.4780   83.5360  -20.6730 C.3   274  LEU274      0.0001
    115  N         35.3200   81.7290  -18.6750 N.3   277  LEU277     -0.1245
    116  CA        34.7730   82.5820  -19.7260 C.3   277  LEU277      0.1561
    117  C         34.1660   81.7590  -20.8590 C.2   277  LEU277      0.2260
    118  O         33.1750   82.1670  -21.4340 O.2   277  LEU277     -0.2867
    119  CB        35.8610   83.4810  -20.3020 C.3   277  LEU277      0.0270
    120  CG        36.6440   84.3810  -19.3450 C.3   277  LEU277      0.0019
    121  CD1       37.8150   85.0600  -20.0920 C.3   277  LEU277      0.0001
    122  CD2       35.7060   85.4170  -18.6910 C.3   277  LEU277      0.0001
@<TRIPOS>BOND
     1    93    92    2
     2    27    26    2
     3    96    98   ar
     4    96    95   ar
     5    92    91    1
     6    98    99   ar
     7    24    25    1
     8    24    16   am
     9    14    15    1
    10    91    94    1
    11    91    90    1
    12    25    26    1
    13    25    28    1
    14    94    95    1
    15    33    32    2
    16    95    97   ar
    17    15    16    1
    18    15    18    1
    19    32    31    1
    20    32    37   am
    21    31    30    1
    22    31    34    1
    23    16    17    2
    24    99    97   ar
    25    39    38    1
    26    39    40    2
    27    90    86   am
    28    28    29    1
    29    38    37    1
    30    38    41    1
    31    35    34    1
    32    45    46    1
    33    18    19    1
    34    34    36    1
    35    21    19   ar
    36    21    23   ar
    37    48    47    2
    38    19    20   ar
    39    47    46    1
    40    46    49    1
    41    23    22   ar
    42    44    42   am
    43    86    87    2
    44    86    85    1
    45   113   112    1
    46    20    22   ar
    47    51    50    2
    48    41    42    1
    49   118   117    2
    50    42    43    2
    51    65    64    2
    52   117   116    1
    53   114   112    1
    54    85    88    1
    55    85    84    1
    56    49    50    1
    57    50    52   am
    58   112   111    1
    59    56    55    2
    60   111   108    1
    61   119   116    1
    62   119   120    1
    63    88    89    1
    64   110   109    2
    65   121   120    1
    66   116   115    1
    67    64    63    1
    68    62    63    1
    69    55    54    1
    70   109   108    1
    71    53    54    1
    72   120   122    1
    73     1     2    1
    74   108   107    1
    75     2     3    1
    76    63    66    1
    77    54    57    1
    78    66    68    1
    79    66    67    1
    80    57    58    1
    81   107   102   am
    82     3     5   am
    83     3     4    2
    84     5     6    1
    85    58    59    1
    86   103   102    2
    87   102   101    1
    88    59    61   am
    89    59    60    2
    90     9     6    1
    91     9    10    1
    92     6     7    1
    93   105   104    1
    94     8     7    2
    95   101   104    1
    96   101   100    1
    97    12    11    2
    98   104   106    1
    99    10    11    1
   100    11    13   am
   101    75    74    1
   102    83    81    1
   103    81    82    1
   104    81    78    1
   105    74    73    1
   106    74    76    1
   107    73    70    1
   108    80    79    2
   109    79    78    1
   110    78    77    1
   111    69    70    1
   112    70    71    1
   113    72    71    2
