@<TRIPOS>MOLECULE
tmp/3hk1A00.pdb
 195 180 0 0 0
SMALL
GASTEIGER

@<TRIPOS>ATOM
      1  N         20.0470   22.3720   -1.4890 N.3    16  PHE16      -0.1241
      2  CA        19.2520   21.9210   -2.6400 C.3    16  PHE16       0.1605
      3  C         20.0650   21.8700   -3.9450 C.2    16  PHE16       0.2264
      4  O         19.9670   20.9070   -4.7150 O.2    16  PHE16      -0.2867
      5  CB        18.0380   22.8420   -2.7790 C.3    16  PHE16       0.0534
      6  CG        16.9830   22.3480   -3.7360 C.ar   16  PHE16      -0.0203
      7  CD1       16.6720   20.9850   -3.8500 C.ar   16  PHE16      -0.0042
      8  CD2       16.2530   23.2690   -4.4830 C.ar   16  PHE16      -0.0042
      9  CE1       15.6700   20.5540   -4.7360 C.ar   16  PHE16      -0.0003
     10  CE2       15.2430   22.8440   -5.3640 C.ar   16  PHE16      -0.0003
     11  CZ        14.9580   21.4900   -5.4860 C.ar   16  PHE16      -0.0000
     12  N         22.3520   18.8280   -3.9610 N.3    19  TYR19      -0.1227
     13  CA        21.5380   17.6430   -4.1900 C.3    19  TYR19       0.1736
     14  C         21.2160   17.4960   -5.6910 C.2    19  TYR19       0.2595
     15  O         21.3920   16.4270   -6.2830 O.2    19  TYR19      -0.2718
     16  CB        20.2510   17.6540   -3.3400 C.3    19  TYR19       0.0548
     17  CG        19.2890   16.5660   -3.7650 C.ar   19  TYR19      -0.0200
     18  CD1       19.5040   15.2400   -3.4070 C.ar   19  TYR19      -0.0009
     19  CD2       18.1720   16.8730   -4.5470 C.ar   19  TYR19      -0.0009
     20  CE1       18.6140   14.2290   -3.8230 C.ar   19  TYR19       0.0417
     21  CE2       17.2960   15.8970   -4.9750 C.ar   19  TYR19       0.0417
     22  CZ        17.5240   14.5640   -4.6120 C.ar   19  TYR19       0.1957
     23  OH        16.6450   13.5940   -5.0340 O.3    19  TYR19      -0.2866
     24  N         20.7310   18.5730   -6.2930 N.am   20  MET20      -0.1979
     25  CA        20.3610   18.5480   -7.7070 C.3    20  MET20       0.1605
     26  C         21.5680   18.2220   -8.5950 C.2    20  MET20       0.2287
     27  O         21.4430   17.4540   -9.5520 O.2    20  MET20      -0.2864
     28  CB        19.7100   19.8560   -8.1110 C.3    20  MET20       0.0413
     29  CG        18.2370   19.9680   -7.6570 C.3    20  MET20       0.0598
     30  SD        17.3730   21.3480   -8.3750 S.3    20  MET20      -0.1393
     31  CE        18.2020   22.6960   -7.5150 C.3    20  MET20       0.0692
     32  N         22.1630   14.5050   -8.5200 N.3    23  VAL23      -0.1245
     33  CA        21.1880   13.7930   -9.3500 C.3    23  VAL23       0.1561
     34  C         21.4920   13.9740  -10.8500 C.2    23  VAL23       0.2260
     35  O         21.2250   13.0730  -11.6580 O.2    23  VAL23      -0.2867
     36  CB        19.7390   14.2150   -9.0330 C.3    23  VAL23       0.0252
     37  CG1       18.7500   13.5730  -10.0300 C.3    23  VAL23       0.0019
     38  CG2       19.3810   13.8170   -7.5930 C.3    23  VAL23       0.0019
     39  N         20.9860   17.3030  -12.5090 N.3    25  VAL25      -0.1245
     40  CA        20.1170   18.3300  -13.0500 C.3    25  VAL25       0.1561
     41  C         20.9460   19.4350  -13.7220 C.2    25  VAL25       0.2260
     42  O         21.9490   19.8910  -13.1640 O.2    25  VAL25      -0.2867
     43  CB        19.2160   18.9520  -11.9450 C.3    25  VAL25       0.0252
     44  CG1       18.2660   19.9650  -12.5390 C.3    25  VAL25       0.0019
     45  CG2       18.4340   17.8630  -11.2310 C.3    25  VAL25       0.0019
     46  N         17.9400   24.4480  -15.2250 N.3    29  THR29      -0.1218
     47  CA        16.8500   23.8640  -14.4430 C.3    29  THR29       0.1862
     48  C         17.0900   24.0500  -12.9370 C.2    29  THR29       0.2287
     49  O         16.1580   24.3710  -12.1760 O.2    29  THR29      -0.2866
     50  CB        16.6200   22.3940  -14.8300 C.3    29  THR29       0.1770
     51  OG1       16.2210   22.3390  -16.2110 O.3    29  THR29      -0.2211
     52  CG2       15.4770   21.8000  -13.9870 C.3    29  THR29       0.0375
     53  N         16.0230   27.5820  -11.9780 N.3    32  VAL32      -0.1231
     54  CA        14.5740   27.6900  -11.8590 C.3    32  VAL32       0.1692
     55  C         14.1040   27.0610  -10.5470 C.2    32  VAL32       0.2591
     56  O         13.3420   27.6770   -9.7950 O.2    32  VAL32      -0.2718
     57  CB        13.8560   27.0180  -13.0620 C.3    32  VAL32       0.0266
     58  CG1       12.3560   26.9590  -12.8210 C.3    32  VAL32       0.0020
     59  CG2       14.1460   27.7860  -14.3410 C.3    32  VAL32       0.0020
     60  N         14.5710   25.8390  -10.2830 N.am   33  ALA33      -0.1980
     61  CA        14.1970   25.1010   -9.0700 C.3    33  ALA33       0.1597
     62  C         14.5610   25.9100   -7.8240 C.2    33  ALA33       0.2287
     63  O         13.8110   25.9370   -6.8360 O.2    33  ALA33      -0.2864
     64  CB        14.8840   23.7250   -9.0610 C.3    33  ALA33       0.0319
     65  N         12.0170   29.1280   -7.4890 N.3    36  ALA36      -0.1245
     66  CA        10.5870   28.8320   -7.3610 C.3    36  ALA36       0.1562
     67  C         10.1560   28.7980   -5.8910 C.2    36  ALA36       0.2260
     68  O         10.9360   28.4310   -5.0140 O.2    36  ALA36      -0.2867
     69  CB        10.2440   27.5060   -8.0570 C.3    36  ALA36       0.0290
     70  N          7.2860   27.0090   -4.3500 N.3    38  PRO38      -0.2116
     71  CA         6.1820   26.1020   -4.6050 C.3    38  PRO38       0.1372
     72  C          5.2670   25.8870   -3.4130 C.2    38  PRO38       0.2244
     73  O          5.6970   26.0210   -2.2610 O.2    38  PRO38      -0.2868
     74  CB         6.8890   24.7760   -4.9300 C.3    38  PRO38       0.0268
     75  CG         8.1380   24.8300   -4.1130 C.3    38  PRO38       0.0207
     76  CD         8.5570   26.2800   -4.1450 C.3    38  PRO38       0.0892
     77  N          3.0650   22.5780   -1.9540 N.3    40  MET40      -0.1245
     78  CA         2.9150   21.1290   -2.0860 C.3    40  MET40       0.1570
     79  C          1.5290   20.8120   -1.5530 C.2    40  MET40       0.2261
     80  O          1.2050   21.1580   -0.4090 O.2    40  MET40      -0.2867
     81  CB         3.9950   20.3930   -1.2940 C.3    40  MET40       0.0387
     82  CG         3.9470   18.8880   -1.4590 C.3    40  MET40       0.0595
     83  SD         5.2290   18.0090   -0.5700 S.3    40  MET40      -0.1393
     84  CE         6.7050   18.4910   -1.4570 C.3    40  MET40       0.0692
     85  N          2.8850   19.5320   -6.8130 N.3    53  SER53      -0.1217
     86  CA         3.7850   20.6360   -6.5100 C.3    53  SER53       0.1889
     87  C          3.4700   21.7110   -7.5370 C.2    53  SER53       0.2288
     88  O          3.4210   21.4170   -8.7300 O.2    53  SER53      -0.2866
     89  CB         5.2420   20.1990   -6.6410 C.3    53  SER53       0.2089
     90  OG         6.1060   21.3140   -6.4360 O.3    53  SER53      -0.2183
     91  N          4.0400   25.9250   -8.7550 N.3    55  SER55      -0.1217
     92  CA         4.6420   27.2560   -8.6800 C.3    55  SER55       0.1889
     93  C          4.4380   27.9260  -10.0310 C.2    55  SER55       0.2288
     94  O          3.9660   27.2910  -10.9830 O.2    55  SER55      -0.2866
     95  CB         6.1340   27.1640   -8.3640 C.3    55  SER55       0.2089
     96  OG         6.8900   26.8710   -9.5310 O.3    55  SER55      -0.2183
     97  N          6.5890   28.4510  -12.0860 N.3    57  PHE57      -0.1227
     98  CA         7.5790   27.8820  -12.9950 C.3    57  PHE57       0.1736
     99  C          7.2800   26.4550  -13.4210 C.2    57  PHE57       0.2595
    100  O          7.6610   26.0380  -14.5100 O.2    57  PHE57      -0.2718
    101  CB         8.9720   27.9070  -12.3540 C.3    57  PHE57       0.0547
    102  CG         9.4770   29.2840  -12.0520 C.ar   57  PHE57      -0.0202
    103  CD1        9.2700   29.8530  -10.7940 C.ar   57  PHE57      -0.0042
    104  CD2       10.1580   30.0150  -13.0230 C.ar   57  PHE57      -0.0042
    105  CE1        9.7330   31.1360  -10.5060 C.ar   57  PHE57      -0.0003
    106  CE2       10.6280   31.2990  -12.7470 C.ar   57  PHE57      -0.0003
    107  CZ        10.4150   31.8590  -11.4850 C.ar   57  PHE57      -0.0000
    108  N          6.6250   25.6950  -12.5460 N.am   58  LYS58      -0.1980
    109  CA         6.5070   24.2560  -12.7600 C.3    58  LYS58       0.1596
    110  C          5.3480   23.6720  -11.9690 C.2    58  LYS58       0.2287
    111  O          5.1600   24.0140  -10.8020 O.2    58  LYS58      -0.2864
    112  CB         7.8080   23.5650  -12.3280 C.3    58  LYS58       0.0298
    113  CG         7.8580   22.0640  -12.5980 C.3    58  LYS58       0.0038
    114  CD         8.1890   21.8190  -14.0500 C.3    58  LYS58       0.0206
    115  CE         8.1670   20.3550  -14.3900 C.3    58  LYS58       0.1093
    116  NZ         8.5040   20.2010  -15.8280 N.3    58  LYS58      -0.1314
    117  N         10.1550   16.4110  -11.9950 N.3    75  ALA75      -0.1231
    118  CA        10.1890   17.8370  -12.3500 C.3    75  ALA75       0.1694
    119  C         11.3830   18.1660  -13.2530 C.2    75  ALA75       0.2592
    120  O         11.2770   19.0460  -14.1400 O.2    75  ALA75      -0.2718
    121  CB        10.1930   18.7050  -11.0980 C.3    75  ALA75       0.0304
    122  N         12.5030   17.4660  -13.0290 N.am   76  ASP76      -0.1974
    123  CA        13.7340   17.6390  -13.8370 C.3    76  ASP76       0.1709
    124  C         13.7730   16.7310  -15.0770 C.2    76  ASP76       0.2293
    125  O         14.8170   16.5770  -15.7170 O.2    76  ASP76      -0.2864
    126  CB        15.0160   17.4760  -12.9840 C.3    76  ASP76       0.1436
    127  CG        15.1120   16.1210  -12.3100 C.2    76  ASP76       0.3671
    128  OD1       14.1140   15.7150  -11.6560 O.co2  76  ASP76      -0.2456
    129  OD2       16.1820   15.4620  -12.4050 O.co2  76  ASP76      -0.2456
    130  N         13.3930   13.3770  -15.5060 N.3    78  ARG78      -0.1245
    131  CA        13.8420   11.9820  -15.4900 C.3    78  ARG78       0.1563
    132  C         12.6060   11.0860  -15.5730 C.2    78  ARG78       0.2260
    133  O         11.5800   11.3950  -14.9640 O.2    78  ARG78      -0.2867
    134  CB        14.5780   11.6500  -14.1860 C.3    78  ARG78       0.0307
    135  CG        16.0050   12.1860  -14.0710 C.3    78  ARG78       0.0489
    136  CD        16.5570   11.9830  -12.6670 C.3    78  ARG78       0.2205
    137  NE        15.8530   12.8540  -11.7230 N.pl3  78  ARG78      -0.0865
    138  CZ        15.2900   12.4890  -10.5730 C.cat  78  ARG78       0.5346
    139  NH1       15.3810   11.2460  -10.1070 N.pl3  78  ARG78       0.1354
    140  NH2       14.6420   13.4140   -9.8650 N.pl3  78  ARG78       0.1354
    141  N         13.3710   10.3960   -1.2990 N.3   104  ILE104     -0.1245
    142  CA        12.7060   11.6210   -0.8430 C.3   104  ILE104      0.1561
    143  C         11.8220   11.2430    0.3420 C.2   104  ILE104      0.2260
    144  O         10.8910   10.4550    0.1960 O.2   104  ILE104     -0.2867
    145  CB        11.8550   12.2600   -1.9690 C.3   104  ILE104      0.0252
    146  CG1       12.7200   12.5820   -3.2080 C.3   104  ILE104      0.0019
    147  CG2       11.1740   13.5210   -1.4810 C.3   104  ILE104      0.0019
    148  CD1       12.6250   11.5440   -4.3530 C.3   104  ILE104      0.0001
    149  N          9.2480   12.4610    3.3220 N.3   106  ARG106     -0.1245
    150  CA         8.3710   13.5360    3.7860 C.3   106  ARG106      0.1563
    151  C          7.9420   13.1920    5.1970 C.2   106  ARG106      0.2260
    152  O          7.3290   12.1450    5.4260 O.2   106  ARG106     -0.2867
    153  CB         7.1540   13.7080    2.8670 C.3   106  ARG106      0.0307
    154  CG         7.4860   14.1850    1.4340 C.3   106  ARG106      0.0489
    155  CD         6.2600   14.0440    0.5390 C.3   106  ARG106      0.2205
    156  NE         6.4260   14.6640   -0.7780 N.pl3 106  ARG106     -0.0865
    157  CZ         6.9330   14.0590   -1.8540 C.cat 106  ARG106      0.5346
    158  NH1        7.3570   12.7940   -1.7950 N.pl3 106  ARG106      0.1354
    159  NH2        7.0250   14.7260   -3.0060 N.pl3 106  ARG106      0.1354
    160  N         10.9500   17.9050    4.1500 N.3   115  VAL115     -0.1245
    161  CA        11.2570   17.0670    2.9950 C.3   115  VAL115      0.1561
    162  C         12.7700   16.8920    2.8620 C.2   115  VAL115      0.2260
    163  O         13.4900   17.8590    2.6170 O.2   115  VAL115     -0.2867
    164  CB        10.6740   17.6560    1.6940 C.3   115  VAL115      0.0252
    165  CG1       10.8780   16.6670    0.5380 C.3   115  VAL115      0.0019
    166  CG2        9.1760   17.9840    1.8630 C.3   115  VAL115      0.0019
    167  N         15.7430   15.0760    0.7560 N.3   117  CYS117     -0.1235
    168  CA        16.1010   14.3590   -0.4630 C.3   117  CYS117      0.1677
    169  C         17.5510   13.9500   -0.3650 C.2   117  CYS117      0.2270
    170  O         18.3990   14.7820   -0.0550 O.2   117  CYS117     -0.2867
    171  CB        15.9230   15.2570   -1.6770 C.3   117  CYS117      0.0956
    172  SG        14.2830   15.9500   -1.7800 S.3   117  CYS117     -0.0801
    173  N         14.1710   20.5910    2.7440 N.3   126  ARG126     -0.1245
    174  CA        13.2350   21.6460    2.3950 C.3   126  ARG126      0.1563
    175  C         12.0430   21.5460    3.3340 C.2   126  ARG126      0.2260
    176  O         11.4090   20.4900    3.4470 O.2   126  ARG126     -0.2867
    177  CB        12.8440   21.5660    0.9210 C.3   126  ARG126      0.0307
    178  CG        14.0020   22.0400    0.0000 C.3   126  ARG126      0.0489
    179  CD        13.8450   21.5270   -1.4230 C.3   126  ARG126      0.2205
    180  NE        12.7030   22.1060   -2.1390 N.pl3 126  ARG126     -0.0865
    181  CZ        12.6740   23.3190   -2.6940 C.cat 126  ARG126      0.5346
    182  NH1       13.6960   24.1570   -2.5680 N.pl3 126  ARG126      0.1354
    183  NH2       11.5870   23.7140   -3.3550 N.pl3 126  ARG126      0.1354
    184  N          8.3560   22.9180    4.8090 N.3   128  TYR128     -0.1241
    185  CA         7.1010   23.5520    4.4550 C.3   128  TYR128      0.1605
    186  C          6.2520   23.7750    5.7000 C.2   128  TYR128      0.2264
    187  O          6.3720   23.0440    6.6840 O.2   128  TYR128     -0.2867
    188  CB         6.3010   22.6390    3.5020 C.3   128  TYR128      0.0534
    189  CG         6.8970   22.4510    2.1250 C.ar  128  TYR128     -0.0201
    190  CD1        8.0310   21.6640    1.9180 C.ar  128  TYR128     -0.0009
    191  CD2        6.2940   23.0550    1.0110 C.ar  128  TYR128     -0.0009
    192  CE1        8.5790   21.5090    0.6320 C.ar  128  TYR128      0.0417
    193  CE2        6.8120   22.8760   -0.2820 C.ar  128  TYR128      0.0417
    194  CZ         7.9600   22.1250   -0.4600 C.ar  128  TYR128      0.1957
    195  OH         8.4180   21.9890   -1.7590 O.3   128  TYR128     -0.2866
@<TRIPOS>BOND
     1    51    50    1
     2   116   115    1
     3   125   124    2
     4   132   131    1
     5   132   133    2
     6   130   131    1
     7   131   134    1
     8    46    47    1
     9   124   123    1
    10    50    47    1
    11    50    52    1
    12   100    99    2
    13    47    48    1
    14   115   114    1
    15    59    57    1
    16   134   135    1
    17   120   119    2
    18   135   136    1
    19   114   113    1
    20   123   122    1
    21   123   126    1
    22    41    42    2
    23    41    40    1
    24    99    98    1
    25    99   108   am
    26   119   122   am
    27   119   118    1
    28    57    58    1
    29    57    54    1
    30    40    39    1
    31    40    43    1
    32   104   106   ar
    33   104   102   ar
    34    98   101    1
    35    98    97    1
    36   126   127    1
    37    48    49    2
    38   109   108    1
    39   109   112    1
    40   109   110    1
    41   106   107   ar
    42   136   137    1
    43   113   112    1
    44    44    43    1
    45   129   127   ar
    46   101   102    1
    47   118   117    1
    48   118   121    1
    49   127   128   ar
    50   102   103   ar
    51    53    54    1
    52   110   111    2
    53    43    45    1
    54    54    55    1
    55   137   138    2
    56    35    34    2
    57   107   105   ar
    58    94    93    2
    59    34    33    1
    60   103   105   ar
    61   138   139    1
    62   138   140    1
    63    55    60   am
    64    55    56    2
    65    60    61    1
    66    93    92    1
    67    37    36    1
    68    27    26    2
    69    96    95    1
    70    33    36    1
    71    33    32    1
    72    61    64    1
    73    61    62    1
    74    36    38    1
    75    91    92    1
    76    88    87    2
    77    92    95    1
    78    26    25    1
    79    30    29    1
    80    30    31    1
    81    28    25    1
    82    28    29    1
    83    69    66    1
    84    62    63    2
    85    25    24    1
    86    87    86    1
    87    65    66    1
    88    66    67    1
    89    85    86    1
    90    89    86    1
    91    89    90    1
    92    24    14   am
    93    15    14    2
    94    67    68    2
    95    14    13    1
    96    11    10   ar
    97    11     9   ar
    98    10     8   ar
    99    23    22    1
   100    21    22   ar
   101    21    19   ar
   102    74    71    1
   103    74    75    1
   104     9     7   ar
   105     4     3    2
   106    22    20   ar
   107    71    70    1
   108    71    72    1
   109    19    17   ar
   110     8     6   ar
   111   148   146    1
   112    70    76    1
   113    13    12    1
   114    13    16    1
   115    76    75    1
   116     3     2    1
   117     7     6   ar
   118    20    18   ar
   119    17    18   ar
   120    17    16    1
   121     6     5    1
   122    72    73    2
   123   183   181    1
   124   146   145    1
   125   159   157    1
   126     5     2    1
   127   181   182    1
   128   181   180    2
   129     2     1    1
   130   180   179    1
   131    78    77    1
   132    78    79    1
   133    78    81    1
   134   145   147    1
   135   145   142    1
   136   157   158    1
   137   157   156    2
   138   172   171    1
   139   195   194    1
   140   171   168    1
   141    79    80    2
   142    82    81    1
   143    82    83    1
   144    84    83    1
   145   179   178    1
   146   141   142    1
   147   142   143    1
   148   156   155    1
   149   168   169    1
   150   168   167    1
   151   194   193   ar
   152   194   192   ar
   153   169   170    2
   154   193   191   ar
   155   178   177    1
   156   144   143    2
   157   165   164    1
   158   155   154    1
   159   192   190   ar
   160   177   174    1
   161   191   189   ar
   162   154   153    1
   163   164   166    1
   164   164   161    1
   165   190   189   ar
   166   189   188    1
   167   174   173    1
   168   174   175    1
   169   163   162    2
   170   162   161    1
   171   153   150    1
   172   161   160    1
   173   149   150    1
   174   175   176    2
   175   188   185    1
   176   150   151    1
   177   185   184    1
   178   185   186    1
   179   151   152    2
   180   186   187    2
