@<TRIPOS>MOLECULE
tmp/3hk7D00.pdb
 151 148 0 0 0
SMALL
GASTEIGER

@<TRIPOS>ATOM
      1  N        -13.4350   16.9450  116.5600 N.3    25  HIS25      -0.1241
      2  CA       -14.2500   17.5460  115.4960 C.3    25  HIS25       0.1621
      3  C        -15.1880   18.5900  116.0730 C.2    25  HIS25       0.2264
      4  O        -16.0920   18.2650  116.8420 O.2    25  HIS25      -0.2867
      5  CB       -15.0910   16.5310  114.7120 C.3    25  HIS25       0.0745
      6  CG       -16.0020   17.1770  113.7080 C.ar   25  HIS25       0.0817
      7  ND1      -15.5410   18.0520  112.7460 N.ar   25  HIS25      -0.2268
      8  CD2      -17.3480   17.1300  113.5560 C.ar   25  HIS25       0.1154
      9  CE1      -16.5630   18.5170  112.0480 C.ar   25  HIS25       0.1986
     10  NE2      -17.6700   17.9740  112.5190 N.ar   25  HIS25      -0.2212
     11  N        -16.6590   23.0410  115.3500 N.3    27  HIS27      -0.1241
     12  CA       -16.7740   24.1710  114.4460 C.3    27  HIS27       0.1621
     13  C        -16.3740   25.4260  115.2190 C.2    27  HIS27       0.2264
     14  O        -16.9570   26.5000  115.0730 O.2    27  HIS27      -0.2867
     15  CB       -18.1970   24.2450  113.9010 C.3    27  HIS27       0.0745
     16  CG       -18.4980   23.1570  112.9190 C.ar   27  HIS27       0.0817
     17  ND1      -18.2630   23.2900  111.5670 N.ar   27  HIS27      -0.2268
     18  CD2      -18.9050   21.8780  113.1050 C.ar   27  HIS27       0.1154
     19  CE1      -18.5100   22.1410  110.9630 C.ar   27  HIS27       0.1986
     20  NE2      -18.8990   21.2680  111.8740 N.ar   27  HIS27      -0.2212
     21  N        -28.4140   28.5610  117.9930 N.3    47  TYR47      -0.1227
     22  CA       -27.7310   27.3910  117.4300 C.3    47  TYR47       0.1736
     23  C        -28.7520   26.8260  116.4340 C.2    47  TYR47       0.2595
     24  O        -29.9460   26.7740  116.7460 O.2    47  TYR47      -0.2718
     25  CB       -27.4530   26.4170  118.5850 C.3    47  TYR47       0.0548
     26  CG       -26.8450   25.0700  118.2500 C.ar   47  TYR47      -0.0200
     27  CD1      -25.8820   24.9260  117.2480 C.ar   47  TYR47      -0.0009
     28  CD2      -27.1440   23.9560  119.0350 C.ar   47  TYR47      -0.0009
     29  CE1      -25.2270   23.7020  117.0550 C.ar   47  TYR47       0.0417
     30  CE2      -26.4980   22.7400  118.8480 C.ar   47  TYR47       0.0417
     31  CZ       -25.5390   22.6160  117.8690 C.ar   47  TYR47       0.1957
     32  OH       -24.8570   21.4170  117.7540 O.3    47  TYR47      -0.2866
     33  N        -28.3190   26.4140  115.2450 N.am   48  HIS48      -0.1961
     34  CA       -29.3010   25.9340  114.2750 C.3    48  HIS48       0.1787
     35  C        -30.1270   24.7300  114.7300 C.2    48  HIS48       0.2620
     36  O        -31.2390   24.5220  114.2470 O.2    48  HIS48      -0.2715
     37  CB       -28.6510   25.7170  112.8920 C.3    48  HIS48       0.0785
     38  CG       -27.8610   24.4530  112.7540 C.ar   48  HIS48       0.0821
     39  ND1      -28.4540   23.2140  112.6290 N.ar   48  HIS48      -0.2267
     40  CD2      -26.5260   24.2430  112.6670 C.ar   48  HIS48       0.1154
     41  CE1      -27.5160   22.2960  112.4700 C.ar   48  HIS48       0.1986
     42  NE2      -26.3370   22.8940  112.4900 N.ar   48  HIS48      -0.2212
     43  N        -29.6170   23.9490  115.6790 N.am   49  TYR49      -0.1974
     44  CA       -30.4020   22.8220  116.1790 C.3    49  TYR49       0.1639
     45  C        -31.6560   23.4150  116.8200 C.2    49  TYR49       0.2290
     46  O        -32.7380   22.8320  116.7490 O.2    49  TYR49      -0.2864
     47  CB       -29.6370   22.0250  117.2500 C.3    49  TYR49       0.0560
     48  CG       -28.5930   21.0520  116.7340 C.ar   49  TYR49      -0.0198
     49  CD1      -27.7680   21.3810  115.6630 C.ar   49  TYR49      -0.0009
     50  CD2      -28.3640   19.8390  117.3890 C.ar   49  TYR49      -0.0009
     51  CE1      -26.7320   20.5340  115.2600 C.ar   49  TYR49       0.0417
     52  CE2      -27.3290   18.9840  116.9950 C.ar   49  TYR49       0.0417
     53  CZ       -26.5170   19.3420  115.9330 C.ar   49  TYR49       0.1957
     54  OH       -25.4730   18.5250  115.5550 O.3    49  TYR49      -0.2866
     55  N        -11.1260   20.8110  105.5700 N.3   169  ARG169     -0.1245
     56  CA       -12.4520   20.4210  105.0960 C.3   169  ARG169      0.1563
     57  C        -12.5300   20.6420  103.5780 C.2   169  ARG169      0.2260
     58  O        -12.2430   21.7400  103.0890 O.2   169  ARG169     -0.2867
     59  CB       -13.5050   21.2520  105.8410 C.3   169  ARG169      0.0307
     60  CG       -14.9270   20.7250  105.7530 C.3   169  ARG169      0.0489
     61  CD       -15.0480   19.2660  106.2060 C.3   169  ARG169      0.2205
     62  NE       -16.4200   18.8030  106.0070 N.pl3 169  ARG169     -0.0865
     63  CZ       -17.3920   18.8790  106.9130 C.cat 169  ARG169      0.5346
     64  NH1      -17.1610   19.3800  108.1210 N.pl3 169  ARG169      0.1354
     65  NH2      -18.6220   18.5100  106.5840 N.pl3 169  ARG169      0.1354
     66  N        -17.8990   15.7330  104.2440 N.3   222  SER222     -0.1217
     67  CA       -19.1770   15.1540  104.6550 C.3   222  SER222      0.1889
     68  C        -19.7470   14.6230  103.3470 C.2   222  SER222      0.2288
     69  O        -19.6310   15.2750  102.3070 O.2   222  SER222     -0.2866
     70  CB       -20.1100   16.1980  105.2730 C.3   222  SER222      0.2089
     71  OG       -20.5630   17.1410  104.3210 O.3   222  SER222     -0.2183
     72  N        -17.5640   11.7580  106.8970 N.3   257  MET257     -0.1245
     73  CA       -18.7680   11.8640  107.7100 C.3   257  MET257      0.1570
     74  C        -19.8800   11.6210  106.6990 C.2   257  MET257      0.2261
     75  O        -20.2670   12.5150  105.9410 O.2   257  MET257     -0.2867
     76  CB       -18.8350   13.2570  108.3390 C.3   257  MET257      0.0387
     77  CG       -17.4680   13.6970  108.8820 C.3   257  MET257      0.0595
     78  SD       -17.5410   14.8960  110.2260 S.3   257  MET257     -0.1393
     79  CE       -17.7810   16.3800  109.3100 C.3   257  MET257      0.0692
     80  N        -27.9130   17.1770  101.9850 N.3   262  LYS262     -0.1245
     81  CA       -27.9240   18.6330  102.0560 C.3   262  LYS262      0.1561
     82  C        -29.1530   19.3450  101.5140 C.2   262  LYS262      0.2260
     83  O        -29.7400   18.9470  100.5130 O.2   262  LYS262     -0.2867
     84  CB       -26.6960   19.2070  101.3300 C.3   262  LYS262      0.0271
     85  CG       -25.3470   18.6270  101.7640 C.3   262  LYS262      0.0035
     86  CD       -25.0020   18.9590  103.2110 C.3   262  LYS262      0.0206
     87  CE       -24.6890   20.4360  103.4050 C.3   262  LYS262      0.1093
     88  NZ       -24.3780   20.7430  104.8370 N.3   262  LYS262     -0.1314
     89  N        -28.5900   26.3520  107.6760 N.3   270  ASP270     -0.1239
     90  CA       -27.8160   25.2840  108.3050 C.3   270  ASP270      0.1674
     91  C        -28.6850   24.2170  108.9580 C.2   270  ASP270      0.2266
     92  O        -28.2360   23.1030  109.1800 O.2   270  ASP270     -0.2867
     93  CB       -26.8660   25.8500  109.3620 C.3   270  ASP270      0.1410
     94  CG       -25.7260   26.6290  108.7550 C.2   270  ASP270      0.3668
     95  OD1      -25.4220   26.3830  107.5710 O.co2 270  ASP270     -0.2456
     96  OD2      -25.1260   27.4700  109.4640 O.co2 270  ASP270     -0.2456
     97  N        -30.6430   20.3970  106.6530 N.3   273  ASP273     -0.1239
     98  CA       -30.0790   19.1530  106.1320 C.3   273  ASP273      0.1674
     99  C        -30.7880   17.9320  106.7190 C.2   273  ASP273      0.2266
    100  O        -31.2680   17.9610  107.8500 O.2   273  ASP273     -0.2867
    101  CB       -28.5700   19.0820  106.4010 C.3   273  ASP273      0.1410
    102  CG       -27.8060   20.2240  105.7470 C.2   273  ASP273      0.3668
    103  OD1      -28.2680   20.7310  104.7030 O.co2 273  ASP273     -0.2456
    104  OD2      -26.7430   20.6100  106.2650 O.co2 273  ASP273     -0.2456
    105  N        -22.4990   11.4780  115.7400 N.3   324  TRP324     -0.1227
    106  CA       -22.7170   12.6540  114.9250 C.3   324  TRP324      0.1737
    107  C        -24.1060   13.2440  114.7130 C.2   324  TRP324      0.2595
    108  O        -25.0240   12.5550  114.2760 O.2   324  TRP324     -0.2718
    109  CB       -22.0850   12.3790  113.5560 C.3   324  TRP324      0.0564
    110  CG       -22.0290   13.5460  112.6080 C.ar  324  TRP324      0.0003
    111  CD1      -21.7770   14.8510  112.9210 C.ar  324  TRP324      0.0946
    112  CD2      -22.1120   13.4850  111.1770 C.ar  324  TRP324      0.0152
    113  NE1      -21.6910   15.6050  111.7740 N.ar  324  TRP324     -0.2442
    114  CE2      -21.8930   14.7930  110.6900 C.ar  324  TRP324      0.0810
    115  CE3      -22.3490   12.4500  110.2600 C.ar  324  TRP324      0.0012
    116  CZ2      -21.9020   15.0970  109.3190 C.ar  324  TRP324      0.0191
    117  CZ3      -22.3600   12.7510  108.8930 C.ar  324  TRP324      0.0001
    118  CH2      -22.1360   14.0660  108.4400 C.ar  324  TRP324      0.0015
    119  N        -24.2460   14.5250  115.0600 N.am  325  TRP325     -0.1976
    120  CA       -25.4640   15.2790  114.7640 C.3   325  TRP325      0.1640
    121  C        -26.7760   14.6610  115.2520 C.2   325  TRP325      0.2290
    122  O        -27.1080   14.7220  116.4380 O.2   325  TRP325     -0.2864
    123  CB       -25.5000   15.4230  113.2400 C.3   325  TRP325      0.0576
    124  CG       -26.1710   16.6120  112.6230 C.ar  325  TRP325      0.0006
    125  CD1      -27.1820   17.3740  113.1380 C.ar  325  TRP325      0.0946
    126  CD2      -25.9440   17.0860  111.2910 C.ar  325  TRP325      0.0152
    127  NE1      -27.6050   18.2960  112.1950 N.ar  325  TRP325     -0.2442
    128  CE2      -26.8570   18.1350  111.0550 C.ar  325  TRP325      0.0810
    129  CE3      -25.0550   16.7180  110.2690 C.ar  325  TRP325      0.0012
    130  CZ2      -26.9060   18.8220  109.8360 C.ar  325  TRP325      0.0191
    131  CZ3      -25.1050   17.4000  109.0580 C.ar  325  TRP325      0.0001
    132  CH2      -26.0260   18.4410  108.8540 C.ar  325  TRP325      0.0015
    133  N        -18.7670   18.6830  118.0670 N.3   354  ASP354     -0.1239
    134  CA       -19.3260   19.3390  116.8920 C.3   354  ASP354      0.1674
    135  C        -19.7630   20.7410  117.3080 C.2   354  ASP354      0.2266
    136  O        -20.6330   21.3490  116.6790 O.2   354  ASP354     -0.2867
    137  CB       -20.5380   18.5670  116.3670 C.3   354  ASP354      0.1410
    138  CG       -20.4020   18.2050  114.9060 C.2   354  ASP354      0.3668
    139  OD1      -20.0710   19.1000  114.1000 O.co2 354  ASP354     -0.2456
    140  OD2      -20.6260   17.0290  114.5600 O.co2 354  ASP354     -0.2456
    141  N        -20.4550   24.4520  117.7000 N.3   356  ARG356     -0.1245
    142  CA       -20.4910   25.5770  116.7730 C.3   356  ARG356      0.1563
    143  C        -20.3790   26.8450  117.6120 C.2   356  ARG356      0.2260
    144  O        -19.9830   27.8910  117.1120 O.2   356  ARG356     -0.2867
    145  CB       -21.8110   25.6060  115.9940 C.3   356  ARG356      0.0307
    146  CG       -21.8170   24.7950  114.7040 C.3   356  ARG356      0.0489
    147  CD       -23.2040   24.8410  114.0710 C.3   356  ARG356      0.2205
    148  NE       -23.2480   24.1750  112.7710 N.pl3 356  ARG356     -0.0865
    149  CZ       -22.8660   24.7340  111.6250 C.cat 356  ARG356      0.5346
    150  NH1      -22.4060   25.9810  111.6070 N.pl3 356  ARG356      0.1354
    151  NH2      -22.9540   24.0490  110.4920 N.pl3 356  ARG356      0.1354
@<TRIPOS>BOND
     1    83    82    2
     2    84    85    1
     3    84    81    1
     4    82    81    1
     5    85    86    1
     6    80    81    1
     7    69    68    2
     8    58    57    2
     9    86    87    1
    10    68    67    1
    11    87    88    1
    12    57    56    1
    13    66    67    1
    14    71    70    1
    15    67    70    1
    16   103   102   ar
    17    56    55    1
    18    56    59    1
    19   102   104   ar
    20   102   101    1
    21    60    59    1
    22    60    61    1
    23    75    74    2
    24    62    61    1
    25    62    63    2
    26    98   101    1
    27    98    97    1
    28    98    99    1
    29    65    63    1
    30    74    73    1
    31    99   100    2
    32    72    73    1
    33    63    64    1
    34    95    94   ar
    35    89    90    1
    36    73    76    1
    37    90    91    1
    38    90    93    1
    39    76    77    1
    40   118   117   ar
    41   118   116   ar
    42    94    93    1
    43    94    96   ar
    44   132   131   ar
    45   132   130   ar
    46    77    78    1
    47   117   115   ar
    48    91    92    2
    49   131   129   ar
    50    79    78    1
    51   116   114   ar
    52   130   128   ar
    53   115   112   ar
    54   129   126   ar
    55   151   149    1
    56   114   112   ar
    57   114   113   ar
    58    19    17   ar
    59    19    20   ar
    60   128   126   ar
    61   128   127   ar
    62   112   110   ar
    63   126   124   ar
    64    17    16   ar
    65   150   149    1
    66   149   148    2
    67   113   111   ar
    68    20    18   ar
    69     9    10   ar
    70     9     7   ar
    71   127   125   ar
    72    41    42   ar
    73    41    39   ar
    74    42    40   ar
    75    10     8   ar
    76   110   111   ar
    77   110   109    1
    78   124   125   ar
    79   124   123    1
    80    39    38   ar
    81    40    38   ar
    82     7     6   ar
    83    38    37    1
    84   148   147    1
    85    37    34    1
    86    16    18   ar
    87    16    15    1
    88   123   120    1
    89   109   106    1
    90     8     6   ar
    91     6     5    1
    92    15    12    1
    93   147   146    1
    94   139   138   ar
    95    36    35    2
    96    34    35    1
    97    34    33    1
    98   108   107    2
    99    12    13    1
   100    12    11    1
   101   140   138   ar
   102   146   145    1
   103     5     2    1
   104   107   106    1
   105   107   119   am
   106    35    43   am
   107   120   119    1
   108   120   121    1
   109   138   137    1
   110   106   105    1
   111    14    13    2
   112    33    23   am
   113   121   122    2
   114    51    49   ar
   115    51    53   ar
   116     2     3    1
   117     2     1    1
   118    54    53    1
   119    49    48   ar
   120    43    44    1
   121    53    52   ar
   122   145   142    1
   123     3     4    2
   124    44    45    1
   125    44    47    1
   126   137   134    1
   127    23    24    2
   128    23    22    1
   129   136   135    2
   130    48    47    1
   131    48    50   ar
   132    46    45    2
   133   142   143    1
   134   142   141    1
   135   134   135    1
   136   134   133    1
   137    52    50   ar
   138    29    27   ar
   139    29    31   ar
   140   144   143    2
   141    27    26   ar
   142    22    21    1
   143    22    25    1
   144    32    31    1
   145    31    30   ar
   146    26    25    1
   147    26    28   ar
   148    30    28   ar
