@<TRIPOS>MOLECULE
tmp/3hk8A00.pdb
 158 154 0 0 0
SMALL
GASTEIGER

@<TRIPOS>ATOM
      1  N         10.1810  -23.3960  -30.7190 N.3    22  HIS22      -0.1241
      2  CA        11.0410  -22.8370  -31.7540 C.3    22  HIS22       0.1621
      3  C         12.3080  -22.2390  -31.1700 C.2    22  HIS22       0.2264
      4  O         12.2730  -21.2200  -30.4750 O.2    22  HIS22      -0.2867
      5  CB        10.3490  -21.7730  -32.6050 C.3    22  HIS22       0.0745
      6  CG        11.2720  -21.1310  -33.5950 C.ar   22  HIS22       0.0817
      7  ND1       11.9800  -21.8600  -34.5270 N.ar   22  HIS22      -0.2268
      8  CD2       11.6450  -19.8400  -33.7680 C.ar   22  HIS22       0.1154
      9  CE1       12.7480  -21.0480  -35.2310 C.ar   22  HIS22       0.1986
     10  NE2       12.5640  -19.8170  -34.7900 N.ar   22  HIS22      -0.2212
     11  N         16.9940  -22.3180  -31.8370 N.3    24  HIS24      -0.1241
     12  CA        18.1000  -22.5480  -32.7460 C.3    24  HIS24       0.1621
     13  C         19.1650  -23.2830  -31.9400 C.2    24  HIS24       0.2264
     14  O         20.3670  -23.0520  -32.0910 O.2    24  HIS24      -0.2867
     15  CB        18.6220  -21.2140  -33.2870 C.3    24  HIS24       0.0745
     16  CG        17.6300  -20.5010  -34.1530 C.ar   24  HIS24       0.0817
     17  ND1       17.4750  -20.7830  -35.4930 N.ar   24  HIS24      -0.2268
     18  CD2       16.6860  -19.5780  -33.8500 C.ar   24  HIS24       0.1154
     19  CE1       16.4770  -20.0660  -35.9780 C.ar   24  HIS24       0.1986
     20  NE2       15.9800  -19.3280  -35.0010 N.ar   24  HIS24      -0.2212
     21  N         25.8690  -12.7140  -28.9450 N.3    44  TYR44      -0.1227
     22  CA        24.5530  -12.9640  -29.5530 C.3    44  TYR44       0.1736
     23  C         24.3750  -11.8080  -30.5510 C.2    44  TYR44       0.2595
     24  O         24.7190  -10.6730  -30.2320 O.2    44  TYR44      -0.2718
     25  CB        23.5120  -12.9010  -28.4300 C.3    44  TYR44       0.0548
     26  CG        22.0570  -13.0920  -28.7960 C.ar   44  TYR44      -0.0200
     27  CD1       21.6600  -14.0330  -29.7460 C.ar   44  TYR44      -0.0009
     28  CD2       21.0590  -12.4030  -28.0910 C.ar   44  TYR44      -0.0009
     29  CE1       20.3040  -14.2920  -29.9810 C.ar   44  TYR44       0.0417
     30  CE2       19.7060  -12.6530  -28.3140 C.ar   44  TYR44       0.0417
     31  CZ        19.3310  -13.6010  -29.2570 C.ar   44  TYR44       0.1957
     32  OH        17.9870  -13.8640  -29.4520 O.3    44  TYR44      -0.2866
     33  N         23.8460  -12.0630  -31.7450 N.am   45  HIS45      -0.1961
     34  CA        23.7540  -10.9680  -32.7090 C.3    45  HIS45       0.1787
     35  C         22.9140   -9.7760  -32.2660 C.2    45  HIS45       0.2620
     36  O         23.1280   -8.6650  -32.7470 O.2    45  HIS45      -0.2715
     37  CB        23.3350  -11.4830  -34.1070 C.3    45  HIS45       0.0785
     38  CG        21.8770  -11.7920  -34.2580 C.ar   45  HIS45       0.0821
     39  ND1       20.9290  -10.8200  -34.4970 N.ar   45  HIS45      -0.2267
     40  CD2       21.2150  -12.9730  -34.2680 C.ar   45  HIS45       0.1154
     41  CE1       19.7470  -11.3890  -34.6530 C.ar   45  HIS45       0.1986
     42  NE2       19.8930  -12.6950  -34.5190 N.ar   45  HIS45      -0.2212
     43  N         21.9860   -9.9850  -31.3360 N.am   46  TYR46      -0.1974
     44  CA        21.1780   -8.8730  -30.8400 C.3    46  TYR46       0.1639
     45  C         22.1070   -7.8490  -30.1830 C.2    46  TYR46       0.2290
     46  O         21.8610   -6.6470  -30.2520 O.2    46  TYR46      -0.2864
     47  CB        20.1530   -9.3430  -29.7930 C.3    46  TYR46       0.0560
     48  CG        18.9420  -10.0840  -30.3290 C.ar   46  TYR46      -0.0198
     49  CD1       19.0650  -11.0180  -31.3520 C.ar   46  TYR46      -0.0009
     50  CD2       17.6800   -9.9030  -29.7530 C.ar   46  TYR46      -0.0009
     51  CE1       17.9690  -11.7600  -31.7890 C.ar   46  TYR46       0.0417
     52  CE2       16.5740  -10.6430  -30.1820 C.ar   46  TYR46       0.0417
     53  CZ        16.7290  -11.5730  -31.2000 C.ar   46  TYR46       0.1957
     54  OH        15.6580  -12.3410  -31.6140 O.3    46  TYR46      -0.2866
     55  N         13.3690  -27.0240  -41.5320 N.3   166  ARG166     -0.1245
     56  CA        13.4330  -25.6540  -42.0340 C.3   166  ARG166      0.1563
     57  C         13.6650  -25.6950  -43.5380 C.2   166  ARG166      0.2260
     58  O         14.5760  -26.3770  -44.0080 O.2   166  ARG166     -0.2867
     59  CB        14.5560  -24.8780  -41.3400 C.3   166  ARG166      0.0307
     60  CG        14.7010  -23.4330  -41.8260 C.3   166  ARG166      0.0489
     61  CD        13.4190  -22.6170  -41.6250 C.3   166  ARG166      0.2205
     62  NE        13.3340  -22.0890  -40.2740 N.pl3 166  ARG166     -0.0865
     63  CZ        13.5610  -20.8190  -39.9350 C.cat 166  ARG166      0.5346
     64  NH1       13.8770  -19.9140  -40.8530 N.pl3 166  ARG166      0.1354
     65  NH2       13.5080  -20.4640  -38.6580 N.pl3 166  ARG166      0.1354
     66  N         10.7970  -18.9050  -43.1130 N.3   219  SER219     -0.1217
     67  CA        10.6480  -17.4990  -42.7520 C.3   219  SER219      0.1889
     68  C         10.3650  -16.8270  -44.0950 C.2   219  SER219      0.2288
     69  O         10.9770  -17.1740  -45.1100 O.2   219  SER219     -0.2866
     70  CB        11.9200  -16.9340  -42.0960 C.3   219  SER219      0.2089
     71  OG        13.0320  -16.9390  -42.9720 O.3   219  SER219     -0.2183
     72  N          6.9080  -17.9040  -40.6100 N.3   254  MET254     -0.1245
     73  CA         7.4090  -16.7880  -39.8130 C.3   254  MET254      0.1570
     74  C          7.5210  -15.6450  -40.8230 C.2   254  MET254      0.2261
     75  O          8.4990  -15.5380  -41.5720 O.2   254  MET254     -0.2867
     76  CB         8.7690  -17.1580  -39.1990 C.3   254  MET254      0.0387
     77  CG         8.7360  -18.5120  -38.4450 C.3   254  MET254      0.0595
     78  SD        10.1880  -18.9140  -37.4210 S.3   254  MET254     -0.1393
     79  CE         9.6600  -18.1850  -35.8940 C.3   254  MET254      0.0692
     80  N         10.1140  -10.7780  -42.3130 N.3   257  VAL257     -0.1245
     81  CA        11.5430  -10.4730  -42.2670 C.3   257  VAL257      0.1561
     82  C         12.1260  -10.0380  -43.6180 C.2   257  VAL257      0.2260
     83  O         11.9620  -10.7220  -44.6250 O.2   257  VAL257     -0.2867
     84  CB        12.3590  -11.6810  -41.7300 C.3   257  VAL257      0.0252
     85  CG1       12.1800  -12.8940  -42.6390 C.3   257  VAL257      0.0019
     86  CG2       13.8240  -11.3100  -41.6250 C.3   257  VAL257      0.0019
     87  N         15.4170   -9.6620  -45.3100 N.3   259  LYS259     -0.1245
     88  CA        16.8010  -10.1020  -45.1940 C.3   259  LYS259      0.1561
     89  C         17.8820   -9.1500  -45.6920 C.2   259  LYS259      0.2260
     90  O         17.7150   -8.4460  -46.6860 O.2   259  LYS259     -0.2867
     91  CB        16.9860  -11.4500  -45.9140 C.3   259  LYS259      0.0271
     92  CG        15.9570  -12.5260  -45.5600 C.3   259  LYS259      0.0035
     93  CD        16.0570  -12.9840  -44.1080 C.3   259  LYS259      0.0206
     94  CE        17.3240  -13.7940  -43.8530 C.3   259  LYS259      0.1093
     95  NZ        17.4150  -14.2620  -42.4380 N.3   259  LYS259     -0.1314
     96  N         24.1400  -11.8470  -39.2830 N.3   267  ASP267     -0.1239
     97  CA        22.8520  -12.2130  -38.6980 C.3   267  ASP267      0.1674
     98  C         22.1130  -11.0330  -38.0660 C.2   267  ASP267      0.2266
     99  O         20.9030  -11.0890  -37.8780 O.2   267  ASP267     -0.2867
    100  CB        23.0290  -13.3160  -37.6520 C.3   267  ASP267      0.1410
    101  CG        23.3650  -14.6620  -38.2740 C.2   267  ASP267      0.3668
    102  OD1       22.9530  -14.9070  -39.4280 O.co2 267  ASP267     -0.2456
    103  OD2       24.0220  -15.4800  -37.5970 O.co2 267  ASP267     -0.2456
    104  N         19.1780   -8.0770  -40.5000 N.3   270  ASP270     -0.1239
    105  CA        17.8170   -8.1980  -41.0240 C.3   270  ASP270      0.1674
    106  C         16.8700   -7.1310  -40.4690 C.2   270  ASP270      0.2266
    107  O         16.9800   -6.7180  -39.3140 O.2   270  ASP270     -0.2867
    108  CB        17.2470   -9.5950  -40.7400 C.3   270  ASP270      0.1410
    109  CG        18.0530  -10.6960  -41.4010 C.2   270  ASP270      0.3668
    110  OD1       18.6830  -10.4250  -42.4500 O.co2 270  ASP270     -0.2456
    111  OD2       18.0450  -11.8350  -40.8820 O.co2 270  ASP270     -0.2456
    112  N          7.8350  -12.9470  -31.6680 N.3   321  TRP321     -0.1227
    113  CA         9.0490  -13.1350  -32.4340 C.3   321  TRP321      0.1737
    114  C         10.0380  -11.9960  -32.6710 C.2   321  TRP321      0.2595
    115  O          9.6690  -10.9070  -33.1350 O.2   321  TRP321     -0.2718
    116  CB         8.6390  -13.7440  -33.7830 C.3   321  TRP321      0.0564
    117  CG         9.7540  -14.1130  -34.7100 C.ar  321  TRP321      0.0003
    118  CD1       10.9310  -14.7210  -34.3840 C.ar  321  TRP321      0.0946
    119  CD2        9.7480  -13.9910  -36.1400 C.ar  321  TRP321      0.0152
    120  NE1       11.6600  -14.9920  -35.5260 N.ar  321  TRP321     -0.2442
    121  CE2       10.9550  -14.5550  -36.6150 C.ar  321  TRP321      0.0810
    122  CE3        8.8360  -13.4600  -37.0660 C.ar  321  TRP321      0.0012
    123  CZ2       11.2760  -14.6050  -37.9770 C.ar  321  TRP321      0.0191
    124  CZ3        9.1560  -13.5080  -38.4190 C.ar  321  TRP321      0.0001
    125  CH2       10.3690  -14.0780  -38.8610 C.ar  321  TRP321      0.0015
    126  N         11.2980  -12.2720  -32.3250 N.am  322  TRP322     -0.1976
    127  CA        12.4150  -11.3690  -32.5930 C.3   322  TRP322      0.1640
    128  C         12.2380   -9.9280  -32.0980 C.2   322  TRP322      0.2290
    129  O         12.3840   -9.6450  -30.9060 O.2   322  TRP322     -0.2864
    130  CB        12.6200  -11.3860  -34.1100 C.3   322  TRP322      0.0576
    131  CG        13.9780  -11.0850  -34.6530 C.ar  322  TRP322      0.0006
    132  CD1       14.9760  -10.3530  -34.0700 C.ar  322  TRP322      0.0946
    133  CD2       14.4390  -11.4180  -35.9660 C.ar  322  TRP322      0.0152
    134  NE1       16.0290  -10.2050  -34.9480 N.ar  322  TRP322     -0.2442
    135  CE2       15.7240  -10.8490  -36.1190 C.ar  322  TRP322      0.0810
    136  CE3       13.8830  -12.1420  -37.0350 C.ar  322  TRP322      0.0012
    137  CZ2       16.4680  -10.9810  -37.3010 C.ar  322  TRP322      0.0191
    138  CZ3       14.6260  -12.2710  -38.2150 C.ar  322  TRP322      0.0001
    139  CH2       15.9040  -11.6910  -38.3320 C.ar  322  TRP322      0.0015
    140  N         13.3910  -18.8960  -29.2060 N.3   351  ASP351     -0.1239
    141  CA        14.1870  -18.5940  -30.3870 C.3   351  ASP351      0.1674
    142  C         15.6570  -18.5550  -29.9580 C.2   351  ASP351      0.2266
    143  O         16.4830  -17.9020  -30.5930 O.2   351  ASP351     -0.2867
    144  CB        13.7940  -17.2320  -30.9640 C.3   351  ASP351      0.1410
    145  CG        13.5980  -17.2760  -32.4680 C.2   351  ASP351      0.3668
    146  OD1       14.4710  -17.8290  -33.1690 O.co2 351  ASP351     -0.2456
    147  OD2       12.5670  -16.7590  -32.9450 O.co2 351  ASP351     -0.2456
    148  N         19.4850  -19.0100  -29.4380 N.3   353  ARG353     -0.1245
    149  CA        20.6120  -19.3410  -30.3040 C.3   353  ARG353      0.1563
    150  C         21.7460  -19.8520  -29.4280 C.2   353  ARG353      0.2260
    151  O         22.6140  -20.5970  -29.8860 O.2   353  ARG353     -0.2867
    152  CB        21.0790  -18.1000  -31.0780 C.3   353  ARG353      0.0307
    153  CG        20.3300  -17.8620  -32.3730 C.3   353  ARG353      0.0489
    154  CD        20.6130  -16.4820  -32.9090 C.3   353  ARG353      0.2205
    155  NE        20.0730  -16.2880  -34.2490 N.pl3 353  ARG353     -0.0865
    156  CZ        20.6460  -16.7280  -35.3670 C.cat 353  ARG353      0.5346
    157  NH1       21.7910  -17.3970  -35.3180 N.pl3 353  ARG353      0.1354
    158  NH2       20.0770  -16.4840  -36.5410 N.pl3 353  ARG353      0.1354
@<TRIPOS>BOND
     1    90    89    2
     2    91    92    1
     3    91    88    1
     4    89    88    1
     5    92    93    1
     6    87    88    1
     7    69    68    2
     8    83    82    2
     9    93    94    1
    10    68    67    1
    11    58    57    2
    12    94    95    1
    13    82    81    1
    14    57    56    1
    15    66    67    1
    16    71    70    1
    17    67    70    1
    18    85    84    1
    19   110   109   ar
    20    80    81    1
    21    81    84    1
    22    56    55    1
    23    56    59    1
    24    60    61    1
    25    60    59    1
    26    84    86    1
    27    61    62    1
    28    75    74    2
    29   109   111   ar
    30   109   108    1
    31   105   108    1
    32   105   104    1
    33   105   106    1
    34    64    63    1
    35    74    73    1
    36    72    73    1
    37   106   107    2
    38    62    63    2
    39    63    65    1
    40    73    76    1
    41   102   101   ar
    42    96    97    1
    43    76    77    1
    44   125   124   ar
    45   125   123   ar
    46    97    98    1
    47    97   100    1
    48    77    78    1
    49   124   122   ar
    50   139   138   ar
    51   139   137   ar
    52   101   100    1
    53   101   103   ar
    54   138   136   ar
    55    98    99    2
    56   123   121   ar
    57    78    79    1
    58   137   135   ar
    59   122   119   ar
    60   136   133   ar
    61   121   119   ar
    62   121   120   ar
    63   158   156    1
    64   119   117   ar
    65   135   133   ar
    66   135   134   ar
    67    19    17   ar
    68    19    20   ar
    69   133   131   ar
    70   120   118   ar
    71    17    16   ar
    72   156   157    1
    73   156   155    2
    74     9    10   ar
    75     9     7   ar
    76    20    18   ar
    77   134   132   ar
    78    10     8   ar
    79   117   118   ar
    80   117   116    1
    81    41    42   ar
    82    41    39   ar
    83   131   130    1
    84   131   132   ar
    85     7     6   ar
    86    42    40   ar
    87    39    38   ar
    88    40    38   ar
    89    38    37    1
    90   155   154    1
    91    16    18   ar
    92    16    15    1
    93   130   127    1
    94    37    34    1
    95   116   113    1
    96     8     6   ar
    97     6     5    1
    98    15    12    1
    99   146   145   ar
   100   115   114    2
   101   147   145   ar
   102   154   153    1
   103    36    35    2
   104    12    13    1
   105    12    11    1
   106    34    35    1
   107    34    33    1
   108   114   113    1
   109   114   126   am
   110     5     2    1
   111   127   126    1
   112   127   128    1
   113   145   144    1
   114   113   112    1
   115   153   152    1
   116    35    43   am
   117   128   129    2
   118    14    13    2
   119    51    49   ar
   120    51    53   ar
   121     2     3    1
   122     2     1    1
   123    33    23   am
   124    54    53    1
   125    49    48   ar
   126    43    44    1
   127    53    52   ar
   128     3     4    2
   129   152   149    1
   130   144   141    1
   131    44    45    1
   132    44    47    1
   133   143   142    2
   134    23    24    2
   135    23    22    1
   136   141   142    1
   137   141   140    1
   138    48    47    1
   139    48    50   ar
   140   149   148    1
   141   149   150    1
   142    46    45    2
   143    52    50   ar
   144    29    27   ar
   145    29    31   ar
   146   151   150    2
   147    27    26   ar
   148    22    21    1
   149    22    25    1
   150    32    31    1
   151    31    30   ar
   152    26    25    1
   153    26    28   ar
   154    30    28   ar
