@<TRIPOS>MOLECULE
tmp/3hkaC00.pdb
 158 154 0 0 0
SMALL
GASTEIGER

@<TRIPOS>ATOM
      1  N         57.9460   39.0550   31.6340 N.3    24  HIS24      -0.1241
      2  CA        57.6700   40.0970   30.6490 C.3    24  HIS24       0.1621
      3  C         56.8630   41.2420   31.2470 C.2    24  HIS24       0.2264
      4  O         55.7040   41.0660   31.6440 O.2    24  HIS24      -0.2867
      5  CB        56.9400   39.5780   29.4040 C.3    24  HIS24       0.0745
      6  CG        56.5400   40.6770   28.4620 C.ar   24  HIS24       0.0817
      7  ND1       57.4480   41.5770   27.9450 N.ar   24  HIS24      -0.2268
      8  CD2       55.3230   41.0780   28.0210 C.ar   24  HIS24       0.1154
      9  CE1       56.8070   42.4880   27.2320 C.ar   24  HIS24       0.1986
     10  NE2       55.5150   42.2090   27.2630 N.ar   24  HIS24      -0.2212
     11  N         56.8780   45.9810   31.3710 N.3    26  HIS26      -0.1241
     12  CA        57.3130   47.2420   30.7810 C.3    26  HIS26       0.1621
     13  C         57.7690   48.1510   31.9280 C.2    26  HIS26       0.2264
     14  O         57.5750   49.3630   31.9030 O.2    26  HIS26      -0.2867
     15  CB        56.1670   47.8920   29.9990 C.3    26  HIS26       0.0745
     16  CG        55.8040   47.1450   28.7540 C.ar   26  HIS26       0.0817
     17  ND1       56.4520   47.3430   27.5530 N.ar   26  HIS26      -0.2268
     18  CD2       54.9270   46.1340   28.5450 C.ar   26  HIS26       0.1154
     19  CE1       55.9920   46.4840   26.6590 C.ar   26  HIS26       0.1986
     20  NE2       55.0670   45.7370   27.2370 N.ar   26  HIS26      -0.2212
     21  N         46.4530   54.2640   32.5980 N.3    46  TYR46      -0.1227
     22  CA        46.9890   53.0990   31.8880 C.3    46  TYR46       0.1736
     23  C         46.1550   53.0720   30.5960 C.2    46  TYR46       0.2595
     24  O         44.9500   53.3350   30.6370 O.2    46  TYR46      -0.2718
     25  CB        46.7340   51.8740   32.7730 C.3    46  TYR46       0.0548
     26  CG        47.0590   50.5000   32.2300 C.ar   46  TYR46      -0.0200
     27  CD1       48.2060   50.2570   31.4680 C.ar   46  TYR46      -0.0009
     28  CD2       46.2730   49.4100   32.5970 C.ar   46  TYR46      -0.0009
     29  CE1       48.5580   48.9490   31.1000 C.ar   46  TYR46       0.0417
     30  CE2       46.6120   48.1130   32.2420 C.ar   46  TYR46       0.0417
     31  CZ        47.7520   47.8840   31.4980 C.ar   46  TYR46       0.1957
     32  OH        48.0690   46.5790   31.1810 O.3    46  TYR46      -0.2866
     33  N         46.7680   52.7710   29.4550 N.am   47  HIS47      -0.1961
     34  CA        46.0010   52.8070   28.2120 C.3    47  HIS47       0.1787
     35  C         44.7650   51.9190   28.1720 C.2    47  HIS47       0.2620
     36  O         43.8450   52.1810   27.4000 O.2    47  HIS47      -0.2715
     37  CB        46.9120   52.5740   26.9850 C.3    47  HIS47       0.0785
     38  CG        47.3790   51.1640   26.8040 C.ar   47  HIS47       0.0821
     39  ND1       46.5800   50.1760   26.2680 N.ar   47  HIS47      -0.2267
     40  CD2       48.5920   50.5960   27.0100 C.ar   47  HIS47       0.1154
     41  CE1       47.2820   49.0630   26.1470 C.ar   47  HIS47       0.1986
     42  NE2       48.5060   49.2910   26.5900 N.ar   47  HIS47      -0.2212
     43  N         44.7220   50.8880   29.0070 N.am   48  TYR48      -0.1974
     44  CA        43.5500   50.0220   29.0470 C.3    48  TYR48       0.1639
     45  C         42.3410   50.8650   29.4400 C.2    48  TYR48       0.2290
     46  O         41.2580   50.7180   28.8710 O.2    48  TYR48      -0.2864
     47  CB        43.7140   48.9160   30.0860 C.3    48  TYR48       0.0560
     48  CG        44.4620   47.6830   29.6350 C.ar   48  TYR48      -0.0198
     49  CD1       45.6030   47.7760   28.8370 C.ar   48  TYR48      -0.0009
     50  CD2       44.0760   46.4190   30.0850 C.ar   48  TYR48      -0.0009
     51  CE1       46.3420   46.6420   28.5070 C.ar   48  TYR48       0.0417
     52  CE2       44.8080   45.2840   29.7630 C.ar   48  TYR48       0.0417
     53  CZ        45.9390   45.3990   28.9780 C.ar   48  TYR48       0.1957
     54  OH        46.6720   44.2670   28.6960 O.3    48  TYR48      -0.2866
     55  N         64.5040   44.1410   22.9960 N.3   168  ARG168     -0.1245
     56  CA        63.3090   44.2640   22.1530 C.3   168  ARG168      0.1563
     57  C         63.6890   44.8100   20.7760 C.2   168  ARG168      0.2260
     58  O         64.3550   45.8350   20.6710 O.2   168  ARG168     -0.2867
     59  CB        62.2940   45.1710   22.8500 C.3   168  ARG168      0.0307
     60  CG        60.9170   45.2130   22.2050 C.3   168  ARG168      0.0489
     61  CD        60.2030   43.8560   22.2030 C.3   168  ARG168      0.2205
     62  NE        58.8840   44.0160   21.5970 N.pl3 168  ARG168     -0.0865
     63  CZ        57.7500   44.1430   22.2760 C.cat 168  ARG168      0.5346
     64  NH1       57.7510   44.1010   23.6060 N.pl3 168  ARG168      0.1354
     65  NH2       56.6190   44.3810   21.6250 N.pl3 168  ARG168      0.1354
     66  N         57.2220   41.7790   18.8100 N.3   221  SER221     -0.1217
     67  CA        55.7850   41.5360   18.7730 C.3   221  SER221      0.1889
     68  C         55.5060   41.5120   17.2710 C.2   221  SER221      0.2288
     69  O         56.0840   42.2900   16.5150 O.2   221  SER221     -0.2866
     70  CB        54.9940   42.6410   19.5010 C.3   221  SER221      0.2089
     71  OG        55.0470   43.8800   18.8300 O.3   221  SER221     -0.2183
     72  N         55.7700   37.4920   20.2740 N.3   256  MET256     -0.1245
     73  CA        54.4370   37.8180   20.7780 C.3   256  MET256      0.1570
     74  C         53.6470   38.1530   19.5120 C.2   256  MET256      0.2261
     75  O         53.7190   39.2570   18.9660 O.2   256  MET256     -0.2867
     76  CB        54.5390   38.9920   21.7550 C.3   256  MET256      0.0387
     77  CG        55.6940   38.7750   22.7470 C.3   256  MET256      0.0595
     78  SD        55.5830   39.7050   24.2820 S.3   256  MET256     -0.1393
     79  CE        55.7130   41.3140   23.6930 C.3   256  MET256      0.0692
     80  N         49.2970   41.0210   17.1970 N.3   259  VAL259     -0.1245
     81  CA        48.9030   42.4170   17.3300 C.3   259  VAL259      0.1561
     82  C         48.8820   43.1970   16.0150 C.2   259  VAL259      0.2260
     83  O         49.8460   43.1830   15.2590 O.2   259  VAL259     -0.2867
     84  CB        49.8190   43.1590   18.3550 C.3   259  VAL259      0.0252
     85  CG1       51.2700   43.1620   17.8680 C.3   259  VAL259      0.0019
     86  CG2       49.3140   44.5830   18.5690 C.3   259  VAL259      0.0019
     87  N         48.8950   46.7220   14.8340 N.3   261  LYS261     -0.1245
     88  CA        49.2040   48.0450   15.3650 C.3   261  LYS261      0.1561
     89  C         48.4430   49.2230   14.7790 C.2   261  LYS261      0.2260
     90  O         48.1450   49.2770   13.5870 O.2   261  LYS261     -0.2867
     91  CB        50.7090   48.3310   15.2190 C.3   261  LYS261      0.0271
     92  CG        51.6350   47.2480   15.7880 C.3   261  LYS261      0.0035
     93  CD        51.5940   47.1760   17.3060 C.3   261  LYS261      0.0206
     94  CE        52.2370   48.4030   17.9640 C.3   261  LYS261      0.1093
     95  NZ        52.2470   48.2760   19.4520 N.3   261  LYS261     -0.1314
     96  N         48.7830   54.3170   22.4140 N.3   269  ASP269     -0.1239
     97  CA        48.9960   52.9690   22.9330 C.3   269  ASP269      0.1674
     98  C         47.7190   52.1520   23.1000 C.2   269  ASP269      0.2266
     99  O         47.7700   50.9200   23.1760 O.2   269  ASP269     -0.2867
    100  CB        49.7490   53.0190   24.2670 C.3   269  ASP269      0.1410
    101  CG        51.2210   53.3560   24.0890 C.2   269  ASP269      0.3668
    102  OD1       51.7070   53.2970   22.9430 O.co2 269  ASP269     -0.2456
    103  OD2       51.8950   53.6700   25.0890 O.co2 269  ASP269     -0.2456
    104  N         45.7730   49.5650   19.4680 N.3   272  ASP272     -0.1239
    105  CA        46.1610   48.3250   18.8050 C.3   272  ASP272      0.1674
    106  C         45.0250   47.3050   18.8640 C.2   272  ASP272      0.2266
    107  O         44.2770   47.2350   19.8480 O.2   272  ASP272     -0.2867
    108  CB        47.4230   47.7230   19.4420 C.3   272  ASP272      0.1410
    109  CG        48.6320   48.6570   19.3750 C.2   272  ASP272      0.3668
    110  OD1       48.6720   49.5540   18.4980 O.co2 272  ASP272     -0.2456
    111  OD2       49.5540   48.4800   20.2060 O.co2 272  ASP272     -0.2456
    112  N         48.5160   36.9170   27.3530 N.3   323  TRP323     -0.1227
    113  CA        48.8400   38.2440   26.8760 C.3   323  TRP323      0.1737
    114  C         47.7400   39.2300   26.5070 C.2   323  TRP323      0.2595
    115  O         46.8480   38.9250   25.7100 O.2   323  TRP323     -0.2718
    116  CB        49.7950   38.0870   25.6810 C.3   323  TRP323      0.0564
    117  CG        50.3600   39.3520   25.1140 C.ar  323  TRP323      0.0003
    118  CD1       50.7750   40.4520   25.8130 C.ar  323  TRP323      0.0946
    119  CD2       50.6680   39.6120   23.7350 C.ar  323  TRP323      0.0152
    120  NE1       51.3260   41.3810   24.9550 N.ar  323  TRP323     -0.2442
    121  CE2       51.2750   40.8910   23.6750 C.ar  323  TRP323      0.0810
    122  CE3       50.4960   38.8860   22.5450 C.ar  323  TRP323      0.0012
    123  CZ2       51.7130   41.4630   22.4670 C.ar  323  TRP323      0.0191
    124  CZ3       50.9320   39.4560   21.3420 C.ar  323  TRP323      0.0001
    125  CH2       51.5340   40.7330   21.3170 C.ar  323  TRP323      0.0015
    126  N         47.8070   40.4080   27.1240 N.am  324  TRP324     -0.1976
    127  CA        46.9330   41.5200   26.7720 C.3   324  TRP324      0.1640
    128  C         45.4250   41.2350   26.7620 C.2   324  TRP324      0.2290
    129  O         44.7860   41.1580   27.8150 O.2   324  TRP324     -0.2864
    130  CB        47.3980   41.9770   25.3900 C.3   324  TRP324      0.0576
    131  CG        47.1590   43.3870   24.9840 C.ar  324  TRP324      0.0006
    132  CD1       46.2170   44.2540   25.4650 C.ar  324  TRP324      0.0946
    133  CD2       47.8610   44.0840   23.9480 C.ar  324  TRP324      0.0152
    134  NE1       46.2940   45.4520   24.7860 N.ar  324  TRP324     -0.2442
    135  CE2       47.2960   45.3710   23.8510 C.ar  324  TRP324      0.0810
    136  CE3       48.9160   43.7370   23.0890 C.ar  324  TRP324      0.0012
    137  CZ2       47.7510   46.3220   22.9280 C.ar  324  TRP324      0.0191
    138  CZ3       49.3710   44.6800   22.1710 C.ar  324  TRP324      0.0001
    139  CH2       48.7890   45.9590   22.0990 C.ar  324  TRP324      0.0015
    140  N         53.0560   42.0480   32.3320 N.3   353  ASP353     -0.1239
    141  CA        53.0300   43.0560   31.2820 C.3   353  ASP353      0.1674
    142  C         52.8230   44.4300   31.9270 C.2   353  ASP353      0.2266
    143  O         52.4010   45.3810   31.2730 O.2   353  ASP353     -0.2867
    144  CB        51.8900   42.7570   30.3110 C.3   353  ASP353      0.1410
    145  CG        52.3120   42.8740   28.8710 C.2   353  ASP353      0.3668
    146  OD1       51.7410   42.1550   28.0270 O.co2 353  ASP353     -0.2456
    147  OD2       53.2090   43.6850   28.5850 O.co2 353  ASP353     -0.2456
    148  N         52.9370   48.0560   33.0980 N.3   355  ARG355     -0.1245
    149  CA        53.4700   49.2930   32.5360 C.3   355  ARG355      0.1563
    150  C         53.5980   50.3060   33.6760 C.2   355  ARG355      0.2260
    151  O         54.3260   51.2910   33.5720 O.2   355  ARG355     -0.2867
    152  CB        52.5290   49.8580   31.4700 C.3   355  ARG355      0.0307
    153  CG        52.6950   49.2470   30.0790 C.3   355  ARG355      0.0489
    154  CD        51.6350   49.7710   29.1100 C.3   355  ARG355      0.2205
    155  NE        51.9160   49.3810   27.7310 N.pl3 355  ARG355     -0.0865
    156  CZ        52.8520   49.9440   26.9700 C.cat 355  ARG355      0.5346
    157  NH1       53.5990   50.9330   27.4490 N.pl3 355  ARG355      0.1354
    158  NH2       53.0530   49.5090   25.7320 N.pl3 355  ARG355      0.1354
@<TRIPOS>BOND
     1    90    89    2
     2    89    88    1
     3    87    88    1
     4    91    88    1
     5    91    92    1
     6    83    82    2
     7    92    93    1
     8    82    81    1
     9    69    68    2
    10    80    81    1
    11    68    67    1
    12    93    94    1
    13    81    84    1
    14    85    84    1
    15    94    95    1
    16    84    86    1
    17   110   109   ar
    18    67    66    1
    19    67    70    1
    20   105   106    1
    21   105   108    1
    22   105   104    1
    23    71    70    1
    24   106   107    2
    25    75    74    2
    26   109   108    1
    27   109   111   ar
    28    74    73    1
    29    72    73    1
    30    58    57    2
    31    57    56    1
    32    73    76    1
    33   125   124   ar
    34   125   123   ar
    35   124   122   ar
    36    62    61    1
    37    62    63    2
    38    65    63    1
    39    76    77    1
    40   139   138   ar
    41   139   137   ar
    42    56    59    1
    43    56    55    1
    44   138   136   ar
    45    61    60    1
    46    60    59    1
    47    63    64    1
    48    96    97    1
    49   123   121   ar
    50   122   119   ar
    51    77    78    1
    52   137   135   ar
    53    97    98    1
    54    97   100    1
    55   102   101   ar
    56   136   133   ar
    57    98    99    2
    58   121   119   ar
    59   121   120   ar
    60    79    78    1
    61   119   117   ar
    62   135   133   ar
    63   135   134   ar
    64   133   131   ar
    65   101   100    1
    66   101   103   ar
    67   134   132   ar
    68   120   118   ar
    69   131   130    1
    70   131   132   ar
    71   117   116    1
    72   117   118   ar
    73   130   127    1
    74   116   113    1
    75   115   114    2
    76   158   156    1
    77    41    39   ar
    78    41    42   ar
    79    39    38   ar
    80   114   113    1
    81   114   126   am
    82    42    40   ar
    83    19    20   ar
    84    19    17   ar
    85   128   127    1
    86   128   129    2
    87   127   126    1
    88    38    37    1
    89    38    40   ar
    90   113   112    1
    91   156   157    1
    92   156   155    2
    93    37    34    1
    94     9    10   ar
    95     9     7   ar
    96    20    18   ar
    97    10     8   ar
    98    36    35    2
    99    17    16   ar
   100   155   154    1
   101     7     6   ar
   102     8     6   ar
   103   146   145   ar
   104    35    34    1
   105    35    43   am
   106    34    33    1
   107     6     5    1
   108    51    49   ar
   109    51    53   ar
   110    18    16   ar
   111   147   145   ar
   112    54    53    1
   113    16    15    1
   114    49    48   ar
   115    46    45    2
   116   145   144    1
   117    53    52   ar
   118    43    44    1
   119    44    45    1
   120    44    47    1
   121   154   153    1
   122     5     2    1
   123    33    23   am
   124    48    50   ar
   125    48    47    1
   126    52    50   ar
   127    15    12    1
   128   153   152    1
   129   144   141    1
   130    23    24    2
   131    23    22    1
   132     2     3    1
   133     2     1    1
   134    12    11    1
   135    12    13    1
   136    29    27   ar
   137    29    31   ar
   138    32    31    1
   139     3     4    2
   140   143   142    2
   141   141   142    1
   142   141   140    1
   143    27    26   ar
   144   152   149    1
   145    31    30   ar
   146    22    21    1
   147    22    25    1
   148    14    13    2
   149    26    28   ar
   150    26    25    1
   151    30    28   ar
   152   149   148    1
   153   149   150    1
   154   151   150    2
