@<TRIPOS>MOLECULE
tmp/3hkcD01.pdb
 178 166 0 0 0
SMALL
GASTEIGER

@<TRIPOS>ATOM
      1  N         29.0580   50.1640    0.4970 N.3   164  ASN164     -0.1240
      2  CA        28.8610   49.8730   -0.8970 C.3   164  ASN164      0.1653
      3  C         27.5280   49.1510   -1.1490 C.2   164  ASN164      0.2266
      4  O         27.1120   48.3070   -0.3460 O.2   164  ASN164     -0.2867
      5  CB        30.0670   49.0490   -1.3660 C.3   164  ASN164      0.1155
      6  CG        30.1110   48.8660   -2.8800 C.2   164  ASN164      0.2627
      7  OD1       29.1120   49.0760   -3.5710 O.2   164  ASN164     -0.2716
      8  ND2       31.2710   48.4540   -3.3960 N.am  164  ASN164     -0.0877
      9  N         26.1940   51.5670   -7.0080 N.3   199  TYR199     -0.1241
     10  CA        26.0780   51.2360   -8.3960 C.3   199  TYR199      0.1605
     11  C         24.5960   51.3330   -8.7170 C.2   199  TYR199      0.2264
     12  O         23.7630   50.7530   -8.0270 O.2   199  TYR199     -0.2867
     13  CB        26.6450   49.8490   -8.6530 C.3   199  TYR199      0.0534
     14  CG        28.1120   49.8210   -8.4540 C.ar  199  TYR199     -0.0201
     15  CD1       28.6350   49.6440   -7.2000 C.ar  199  TYR199     -0.0009
     16  CD2       28.9890   50.0290   -9.5080 C.ar  199  TYR199     -0.0009
     17  CE1       30.0290   49.6500   -6.9770 C.ar  199  TYR199      0.0417
     18  CE2       30.3890   50.0400   -9.3050 C.ar  199  TYR199      0.0417
     19  CZ        30.9040   49.8470   -8.0330 C.ar  199  TYR199      0.1957
     20  OH        32.2690   49.8340   -7.8000 O.3   199  TYR199     -0.2866
     21  N         33.0490   44.5570  -12.0470 N.3   235  VAL235     -0.1231
     22  CA        33.2750   45.6180  -11.1100 C.3   235  VAL235      0.1692
     23  C         34.1870   45.1850  -10.0180 C.2   235  VAL235      0.2592
     24  O         35.1060   45.8960   -9.7710 O.2   235  VAL235     -0.2718
     25  CB        32.0070   46.1630  -10.5070 C.3   235  VAL235      0.0266
     26  CG1       32.3740   47.0550   -9.3480 C.3   235  VAL235      0.0020
     27  CG2       31.1530   46.9180  -11.5850 C.3   235  VAL235      0.0020
     28  N         33.9700   44.0250   -9.4060 N.am  236  THR236     -0.1953
     29  CA        34.7630   43.5970   -8.2350 C.3   236  THR236      0.1897
     30  C         36.2350   43.2000   -8.4440 C.2   236  THR236      0.2313
     31  O         37.1070   43.5220   -7.6230 O.2   236  THR236     -0.2863
     32  CB        34.0890   42.4490   -7.5140 C.3   236  THR236      0.1794
     33  OG1       33.5350   41.5390   -8.4710 O.3   236  THR236     -0.2208
     34  CG2       32.9180   42.9640   -6.7580 C.3   236  THR236      0.0378
     35  N         39.3030   43.8080   -9.2540 N.3   238  CYS238     -0.1221
     36  CA        40.5030   44.4260   -8.7190 C.3   238  CYS238      0.1808
     37  C         40.5540   44.4080   -7.2090 C.2   238  CYS238      0.2601
     38  O         41.6230   44.6030   -6.6090 O.2   238  CYS238     -0.2717
     39  CB        40.5750   45.8580   -9.1990 C.3   238  CYS238      0.0970
     40  SG        39.5480   46.0990  -10.6640 S.3   238  CYS238     -0.0800
     41  N         39.3970   44.1940   -6.5930 N.am  239  LEU239     -0.1979
     42  CA        39.3500   43.9790   -5.1550 C.3   239  LEU239      0.1596
     43  C         39.8920   42.5800   -4.8660 C.2   239  LEU239      0.2287
     44  O         40.6110   42.3680   -3.8820 O.2   239  LEU239     -0.2864
     45  CB        37.9100   44.1210   -4.6160 C.3   239  LEU239      0.0297
     46  CG        37.1620   45.4670   -4.5090 C.3   239  LEU239      0.0022
     47  CD1       35.7160   45.2300   -4.0930 C.3   239  LEU239      0.0001
     48  CD2       37.8130   46.4620   -3.5440 C.3   239  LEU239      0.0001
     49  N         46.9260   47.5780   -8.6720 N.3   245  LEU245     -0.1245
     50  CA        46.8280   48.6070   -7.6280 C.3   245  LEU245      0.1561
     51  C         46.8190   47.7920   -6.3100 C.2   245  LEU245      0.2260
     52  O         47.8190   47.1330   -6.0110 O.2   245  LEU245     -0.2867
     53  CB        45.5740   49.4960   -7.8680 C.3   245  LEU245      0.0270
     54  CG        45.0250   49.5960   -9.3390 C.3   245  LEU245      0.0019
     55  CD1       43.5960   48.9820   -9.5150 C.3   245  LEU245      0.0001
     56  CD2       45.1120   51.0080  -10.0180 C.3   245  LEU245      0.0001
     57  N         43.2700   48.2380   -4.7420 N.3   247  ALA247     -0.1245
     58  CA        41.8710   48.7030   -4.6910 C.3   247  ALA247      0.1562
     59  C         41.1750   48.5500   -3.3180 C.2   247  ALA247      0.2260
     60  O         40.6890   47.4720   -2.9590 O.2   247  ALA247     -0.2867
     61  CB        41.0500   48.0880   -5.8350 C.3   247  ALA247      0.0290
     62  N         38.5130   49.9110   -2.2290 N.3   249  LEU249     -0.1245
     63  CA        37.0890   50.1790   -2.1930 C.3   249  LEU249      0.1561
     64  C         36.9280   51.5120   -1.4840 C.2   249  LEU249      0.2260
     65  O         36.0490   52.2790   -1.8180 O.2   249  LEU249     -0.2867
     66  CB        36.3520   49.0470   -1.4690 C.3   249  LEU249      0.0270
     67  CG        34.8720   49.0380   -1.1080 C.3   249  LEU249      0.0019
     68  CD1       34.0100   48.9180   -2.3050 C.3   249  LEU249      0.0001
     69  CD2       34.6040   47.8610   -0.2360 C.3   249  LEU249      0.0001
     70  N         39.9450   53.4190   -1.3430 N.3   251  LYS251     -0.1231
     71  CA        40.6990   54.0580   -2.4120 C.3   251  LYS251      0.1693
     72  C         39.6970   54.3860   -3.5230 C.2   251  LYS251      0.2591
     73  O         39.6090   55.5460   -3.9530 O.2   251  LYS251     -0.2718
     74  CB        41.8400   53.1720   -2.9220 C.3   251  LYS251      0.0285
     75  CG        43.2280   53.7740   -2.8010 C.3   251  LYS251      0.0035
     76  CD        44.2290   52.9670   -3.6260 C.3   251  LYS251      0.0206
     77  CE        45.7070   53.3190   -3.2810 C.3   251  LYS251      0.1093
     78  NZ        46.2810   52.9270   -1.9420 N.3   251  LYS251     -0.1314
     79  N         38.9010   53.3910   -3.9350 N.am  252  LEU252     -0.1980
     80  CA        37.9220   53.6120   -4.9960 C.3   252  LEU252      0.1596
     81  C         37.0650   54.8380   -4.7350 C.2   252  LEU252      0.2287
     82  O         36.9400   55.6970   -5.6050 O.2   252  LEU252     -0.2864
     83  CB        37.0180   52.3920   -5.2100 C.3   252  LEU252      0.0297
     84  CG        36.0790   52.3040   -6.4500 C.3   252  LEU252      0.0022
     85  CD1       34.7160   53.0310   -6.3320 C.3   252  LEU252      0.0001
     86  CD2       36.8020   52.6900   -7.7480 C.3   252  LEU252      0.0001
     87  N         38.6770   58.5020   -4.6460 N.3   255  ASN255     -0.1225
     88  CA        39.0840   58.8640   -5.9920 C.3   255  ASN255      0.1785
     89  C         37.9170   59.1230   -6.9520 C.2   255  ASN255      0.2597
     90  O         38.0030   59.9280   -7.8850 O.2   255  ASN255     -0.2718
     91  CB        39.9490   57.7540   -6.5460 C.3   255  ASN255      0.1169
     92  CG        41.3580   58.1170   -6.5530 C.2   255  ASN255      0.2627
     93  OD1       42.0640   57.8540   -5.6040 O.2   255  ASN255     -0.2716
     94  ND2       41.7910   58.7590   -7.6160 N.am  255  ASN255     -0.0877
     95  N         36.8240   58.4300   -6.7200 N.am  256  MET256     -0.1979
     96  CA        35.7870   58.4370   -7.6870 C.3   256  MET256      0.1605
     97  C         34.8510   59.5830   -7.4510 C.2   256  MET256      0.2287
     98  O         34.2310   60.0770   -8.3940 O.2   256  MET256     -0.2864
     99  CB        35.0680   57.1110   -7.6280 C.3   256  MET256      0.0413
    100  CG        35.7240   56.1150   -8.5330 C.3   256  MET256      0.0598
    101  SD        36.0620   56.9270  -10.1050 S.3   256  MET256     -0.1393
    102  CE        34.2290   56.7960  -10.8940 C.3   256  MET256      0.0692
    103  N         34.1330   61.4150  -13.1790 N.3   303  THR303     -0.1203
    104  CA        35.3170   60.5810  -13.2090 C.3   303  THR303      0.1994
    105  C         34.9170   59.1560  -13.5960 C.2   303  THR303      0.2618
    106  O         33.7920   58.7070  -13.3250 O.2   303  THR303     -0.2717
    107  CB        36.0930   60.6410  -11.8570 C.3   303  THR303      0.1784
    108  OG1       35.3500   59.9960  -10.8190 O.3   303  THR303     -0.2211
    109  CG2       36.1910   62.0630  -11.3430 C.3   303  THR303      0.0376
    110  N         35.8350   58.4540  -14.2530 N.am  304  VAL304     -0.1965
    111  CA        35.5620   57.1000  -14.7100 C.3   304  VAL304      0.1727
    112  C         36.7180   56.1590  -14.4510 C.2   304  VAL304      0.2616
    113  O         37.8400   56.4210  -14.8640 O.2   304  VAL304     -0.2715
    114  CB        35.2510   57.0800  -16.2100 C.3   304  VAL304      0.0290
    115  CG1       35.5180   55.6960  -16.8180 C.3   304  VAL304      0.0023
    116  CG2       33.8230   57.4930  -16.4360 C.3   304  VAL304      0.0023
    117  N         36.4320   55.0590  -13.7680 N.am  305  ALA305     -0.1963
    118  CA        37.3850   53.9690  -13.6530 C.3   305  ALA305      0.1728
    119  C         36.9790   52.8940  -14.6440 C.2   305  ALA305      0.2616
    120  O         35.7790   52.6660  -14.8700 O.2   305  ALA305     -0.2715
    121  CB        37.3780   53.4170  -12.2600 C.3   305  ALA305      0.0334
    122  N         37.9600   52.2370  -15.2550 N.am  306  ALA306     -0.1963
    123  CA        37.6360   51.1050  -16.1280 C.3   306  ALA306      0.1728
    124  C         38.6250   49.9460  -15.9900 C.2   306  ALA306      0.2616
    125  O         39.7960   50.1330  -15.6170 O.2   306  ALA306     -0.2715
    126  CB        37.4400   51.5390  -17.6090 C.3   306  ALA306      0.0334
    127  N         38.1220   48.7470  -16.2930 N.am  307  VAL307     -0.1977
    128  CA        38.8570   47.5010  -16.0340 C.3   307  VAL307      0.1596
    129  C         38.6850   46.3760  -17.1200 C.2   307  VAL307      0.2287
    130  O         37.5660   45.9270  -17.4630 O.2   307  VAL307     -0.2864
    131  CB        38.6590   47.0240  -14.5420 C.3   307  VAL307      0.0276
    132  CG1       37.2090   46.5640  -14.2690 C.3   307  VAL307      0.0022
    133  CG2       39.6640   45.9580  -14.1660 C.3   307  VAL307      0.0022
    134  N         43.4230   64.3340  -14.6430 N.3   338  ASN338     -0.1225
    135  CA        43.4200   62.9930  -15.2480 C.3   338  ASN338      0.1785
    136  C         42.3780   62.0050  -14.7020 C.2   338  ASN338      0.2597
    137  O         42.7170   61.0440  -13.9830 O.2   338  ASN338     -0.2718
    138  CB        44.8350   62.4570  -15.2170 C.3   338  ASN338      0.1169
    139  CG        45.8310   63.5730  -15.3340 C.2   338  ASN338      0.2627
    140  OD1       45.8860   64.4410  -14.4680 O.2   338  ASN338     -0.2716
    141  ND2       46.5670   63.6130  -16.4380 N.am  338  ASN338     -0.0877
    142  N         41.1210   62.2520  -15.1040 N.am  339  ASN339     -0.1974
    143  CA        39.9280   61.7020  -14.4540 C.3   339  ASN339      0.1688
    144  C         39.4510   60.3880  -15.0380 C.2   339  ASN339      0.2292
    145  O         38.3560   59.9140  -14.7010 O.2   339  ASN339     -0.2864
    146  CB        38.7870   62.7370  -14.3970 C.3   339  ASN339      0.1181
    147  CG        38.3020   63.1710  -15.7800 C.2   339  ASN339      0.2629
    148  OD1       37.1320   63.5450  -15.9590 O.2   339  ASN339     -0.2716
    149  ND2       39.1960   63.1230  -16.7680 N.am  339  ASN339     -0.0877
    150  N         41.2030   56.6260  -15.1070 N.3   341  LYS341     -0.1231
    151  CA        42.2550   55.6450  -14.8530 C.3   341  LYS341      0.1693
    152  C         41.7080   54.2880  -15.3080 C.2   341  LYS341      0.2593
    153  O         40.4940   54.0290  -15.2210 O.2   341  LYS341     -0.2718
    154  CB        42.6460   55.6270  -13.3740 C.3   341  LYS341      0.0285
    155  CG        43.0560   56.9790  -12.8090 C.3   341  LYS341      0.0035
    156  CD        44.4970   57.2910  -13.1630 C.3   341  LYS341      0.0206
    157  CE        45.0050   58.5080  -12.4140 C.3   341  LYS341      0.1093
    158  NZ        44.8960   59.7420  -13.2490 N.3   341  LYS341     -0.1314
    159  N         42.5780   53.4420  -15.8480 N.am  342  THR342     -0.1939
    160  CA        42.1540   52.0940  -16.2120 C.3   342  THR342      0.2028
    161  C         43.1840   51.1090  -15.7950 C.2   342  THR342      0.2642
    162  O         44.3760   51.4210  -15.7280 O.2   342  THR342     -0.2714
    163  CB        41.9050   51.9160  -17.7050 C.3   342  THR342      0.1808
    164  OG1       42.9600   52.5240  -18.4430 O.3   342  THR342     -0.2208
    165  CG2       40.6940   52.6800  -18.1380 C.3   342  THR342      0.0379
    166  N         42.7000   49.9100  -15.5090 N.am  343  ALA343     -0.1977
    167  CA        43.5590   48.8030  -15.1020 C.3   343  ALA343      0.1597
    168  C         43.1810   47.5150  -15.8470 C.2   343  ALA343      0.2287
    169  O         42.1300   47.4210  -16.5090 O.2   343  ALA343     -0.2864
    170  CB        43.6070   48.6060  -13.5190 C.3   343  ALA343      0.0319
    171  N         33.1360   51.7620  -14.9660 N.3   359  ILE359     -0.1245
    172  CA        32.5230   52.3340  -13.7830 C.3   359  ILE359      0.1561
    173  C         32.3690   53.8320  -14.0080 C.2   359  ILE359      0.2260
    174  O         33.3330   54.5140  -14.3560 O.2   359  ILE359     -0.2867
    175  CB        33.3800   51.9920  -12.5380 C.3   359  ILE359      0.0252
    176  CG1       32.7770   50.7970  -11.7830 C.3   359  ILE359      0.0019
    177  CG2       33.5770   53.2160  -11.6100 C.3   359  ILE359      0.0019
    178  CD1       33.7360   50.0830  -10.8180 C.3   359  ILE359      0.0001
@<TRIPOS>BOND
     1   164   163    1
     2   165   163    1
     3   163   160    1
     4   126   123    1
     5   130   129    2
     6   129   128    1
     7   115   114    1
     8   149   147   am
     9   169   168    2
    10   141   139   am
    11   116   114    1
    12   127   128    1
    13   127   124   am
    14   160   159    1
    15   160   161    1
    16   114   111    1
    17   123   124    1
    18   123   122    1
    19   128   131    1
    20   124   125    2
    21   148   147    2
    22   159   152   am
    23   168   167    1
    24   161   162    2
    25   161   166   am
    26   147   146    1
    27   166   167    1
    28   139   138    1
    29   139   140    2
    30   152   153    2
    31   152   151    1
    32   122   119   am
    33   135   138    1
    34   135   136    1
    35   135   134    1
    36   150   151    1
    37   142   136   am
    38   142   143    1
    39   167   170    1
    40   144   145    2
    41   144   143    1
    42   171   172    1
    43   120   119    2
    44   113   112    2
    45   151   154    1
    46   111   112    1
    47   111   110    1
    48   136   137    2
    49   119   118    1
    50   131   132    1
    51   131   133    1
    52   143   146    1
    53   112   117   am
    54   174   173    2
    55   110   105   am
    56   173   172    1
    57   172   175    1
    58   117   118    1
    59   118   121    1
    60   105   106    2
    61   105   104    1
    62   154   155    1
    63   158   157    1
    64   104   103    1
    65   104   107    1
    66   156   155    1
    67   156   157    1
    68   175   176    1
    69   175   177    1
    70    21    22    1
    71   107   109    1
    72   107   108    1
    73   176   178    1
    74    27    25    1
    75    22    25    1
    76    22    23    1
    77   102   101    1
    78    40    39    1
    79    25    26    1
    80   101   100    1
    81    23    24    2
    82    23    28   am
    83    56    54    1
    84    55    54    1
    85    16    18   ar
    86    16    14   ar
    87    28    29    1
    88    54    53    1
    89    18    19   ar
    90    35    36    1
    91    39    36    1
    92    36    37    1
    93    11    10    1
    94    11    12    2
    95    49    50    1
    96    13    14    1
    97    13    10    1
    98   100    99    1
    99    33    32    1
   100    14    15   ar
   101    30    29    1
   102    30    31    2
   103    10     9    1
   104    98    97    2
   105    29    32    1
   106    19    20    1
   107    19    17   ar
   108    90    89    2
   109    53    50    1
   110    86    84    1
   111    96    99    1
   112    96    97    1
   113    96    95    1
   114    50    51    1
   115    94    92   am
   116    32    34    1
   117    37    38    2
   118    37    41   am
   119    15    17   ar
   120    89    95   am
   121    89    88    1
   122    41    42    1
   123    92    91    1
   124    92    93    2
   125    91    88    1
   126    84    85    1
   127    84    83    1
   128    51    52    2
   129    88    87    1
   130    61    58    1
   131    82    81    2
   132    83    80    1
   133    42    43    1
   134    42    45    1
   135    80    81    1
   136    80    79    1
   137    43    44    2
   138    57    58    1
   139    58    59    1
   140    45    46    1
   141    46    47    1
   142    46    48    1
   143    73    72    2
   144    79    72   am
   145    76    77    1
   146    76    75    1
   147     7     6    2
   148    72    71    1
   149     8     6   am
   150    59    60    2
   151    77    78    1
   152    74    75    1
   153    74    71    1
   154     6     5    1
   155    71    70    1
   156    68    67    1
   157    62    63    1
   158    63    64    1
   159    63    66    1
   160    65    64    2
   161    66    67    1
   162     5     2    1
   163     3     2    1
   164     3     4    2
   165    67    69    1
   166     2     1    1
