@<TRIPOS>MOLECULE
tmp/3hkdB01.pdb
 183 170 0 0 0
SMALL
GASTEIGER

@<TRIPOS>ATOM
      1  N        111.8900   78.3780   17.1430 N.3     3  ILE3       -0.1245
      2  CA       110.5290   78.5860   16.5620 C.3     3  ILE3        0.1561
      3  C        109.5710   77.3570   16.5300 C.2     3  ILE3        0.2260
      4  O        109.9680   76.2720   16.1120 O.2     3  ILE3       -0.2867
      5  CB       110.6090   79.2420   15.1380 C.3     3  ILE3        0.0252
      6  CG1      110.0460   78.3330   14.0690 C.3     3  ILE3        0.0019
      7  CG2      112.0190   79.5550   14.7510 C.3     3  ILE3        0.0019
      8  CD1      109.5310   79.0810   12.9380 C.3     3  ILE3        0.0001
      9  N        114.3920   74.4640   14.6320 N.3    49  TYR49      -0.1241
     10  CA       113.1850   73.8310   14.1230 C.3    49  TYR49       0.1605
     11  C        112.8820   72.4420   14.7000 C.2    49  TYR49       0.2264
     12  O        111.9010   71.8030   14.3030 O.2    49  TYR49      -0.2867
     13  CB       113.2540   73.7280   12.6170 C.3    49  TYR49       0.0534
     14  CG       112.5910   74.8530   11.9290 C.ar   49  TYR49      -0.0201
     15  CD1      113.2950   75.9960   11.6440 C.ar   49  TYR49      -0.0009
     16  CD2      111.2660   74.7750   11.5410 C.ar   49  TYR49      -0.0009
     17  CE1      112.7090   77.0620   10.9880 C.ar   49  TYR49       0.0417
     18  CE2      110.6500   75.8350   10.8780 C.ar   49  TYR49       0.0417
     19  CZ       111.3850   76.9870   10.6040 C.ar   49  TYR49       0.1957
     20  OH       110.8310   78.0740    9.9470 O.3    49  TYR49      -0.2866
     21  N        105.2740   80.0370   13.4430 N.3   133  GLN133     -0.1245
     22  CA       104.8500   80.1130   12.0510 C.3   133  GLN133      0.1566
     23  C        103.6760   79.1500   11.8460 C.2   133  GLN133      0.2260
     24  O        103.5860   78.1390   12.5550 O.2   133  GLN133     -0.2867
     25  CB       105.9930   79.7460   11.1060 C.3   133  GLN133      0.0367
     26  CG       106.5420   78.3680   11.3360 C.3   133  GLN133      0.0905
     27  CD       107.1610   77.7820   10.1260 C.2   133  GLN133      0.2608
     28  OE1      106.5800   76.9300    9.4920 O.2   133  GLN133     -0.2717
     29  NE2      108.3510   78.2170    9.8070 N.am  133  GLN133     -0.0878
     30  N        103.4650   84.5990   12.0580 N.3   164  ASN164     -0.1240
     31  CA       103.9930   84.3470   10.7100 C.3   164  ASN164      0.1653
     32  C        103.2590   83.2440    9.9710 C.2   164  ASN164      0.2266
     33  O        103.1130   82.1550   10.4870 O.2   164  ASN164     -0.2867
     34  CB       105.4780   83.9610   10.8390 C.3   164  ASN164      0.1155
     35  CG       106.4100   85.0600   10.3630 C.2   164  ASN164      0.2627
     36  OD1      106.1110   85.7100    9.3820 O.2   164  ASN164     -0.2716
     37  ND2      107.5330   85.2710   11.0520 N.am  164  ASN164     -0.0877
     38  N        102.2850   81.1080    6.1630 N.3   166  PHE166     -0.1241
     39  CA       102.1080   80.8460    4.7480 C.3   166  PHE166      0.1605
     40  C        100.6500   80.5090    4.6360 C.2   166  PHE166      0.2264
     41  O        100.1790   79.5400    5.2240 O.2   166  PHE166     -0.2867
     42  CB       103.0130   79.7090    4.2920 C.3   166  PHE166      0.0534
     43  CG       104.4170   79.8610    4.7840 C.ar  166  PHE166     -0.0203
     44  CD1      104.7790   79.4070    6.0610 C.ar  166  PHE166     -0.0042
     45  CD2      105.3660   80.5280    4.0230 C.ar  166  PHE166     -0.0042
     46  CE1      106.0770   79.5850    6.5540 C.ar  166  PHE166     -0.0003
     47  CE2      106.6590   80.7090    4.5090 C.ar  166  PHE166     -0.0003
     48  CZ       107.0140   80.2340    5.7740 C.ar  166  PHE166     -0.0000
     49  N        104.1560   88.8670    9.4830 N.3   197  GLU197     -0.1196
     50  CA       104.4180   88.6250    8.0530 C.3   197  GLU197      0.1783
     51  C        103.4900   87.5190    7.5520 C.2   197  GLU197      0.2306
     52  O        103.1530   86.6080    8.3100 O.2   197  GLU197     -0.2863
     53  CB       105.8910   88.2430    7.7510 C.2   197  GLU197      0.0071
     54  CG       106.9470   88.6010    8.8180 C.2   197  GLU197      0.0834
     55  CD       108.4190   88.3800    8.4000 C.2   197  GLU197      0.3877
     56  OE1      109.2790   88.1770    9.3200 O.co2 197  GLU197     -0.2406
     57  OE2      108.7160   88.4240    7.1720 O.co2 197  GLU197     -0.2406
     58  N        103.2040   85.2630    3.9660 N.3   199  TYR199     -0.1241
     59  CA       103.5340   84.8450    2.5980 C.3   199  TYR199      0.1605
     60  C        102.2610   84.4790    1.8490 C.2   199  TYR199      0.2264
     61  O        101.5390   83.5670    2.2440 O.2   199  TYR199     -0.2867
     62  CB       104.6060   83.7430    2.5860 C.3   199  TYR199      0.0534
     63  CG       105.8250   84.2520    3.2860 C.ar  199  TYR199     -0.0201
     64  CD1      105.8110   84.4510    4.6550 C.ar  199  TYR199     -0.0009
     65  CD2      106.9570   84.6360    2.5930 C.ar  199  TYR199     -0.0009
     66  CE1      106.9050   84.9790    5.3400 C.ar  199  TYR199      0.0417
     67  CE2      108.0760   85.1760    3.2870 C.ar  199  TYR199      0.0417
     68  CZ       108.0230   85.3340    4.6680 C.ar  199  TYR199      0.1957
     69  OH       109.0540   85.8390    5.4050 O.3   199  TYR199     -0.2866
     70  N        112.5060   80.2850    2.0430 N.3   235  VAL235     -0.1231
     71  CA       112.3060   81.3720    2.9880 C.3   235  VAL235      0.1692
     72  C        112.9000   81.1450    4.3840 C.2   235  VAL235      0.2592
     73  O        113.4060   82.0650    5.0120 O.2   235  VAL235     -0.2718
     74  CB       110.8320   81.6790    3.1260 C.3   235  VAL235      0.0266
     75  CG1      110.6010   82.6460    4.2880 C.3   235  VAL235      0.0020
     76  CG2      110.2870   82.2260    1.8120 C.3   235  VAL235      0.0020
     77  N        112.8260   79.9190    4.8680 N.am  236  THR236     -0.1953
     78  CA       113.3720   79.5890    6.1810 C.3   236  THR236      0.1897
     79  C        114.9110   79.7090    6.2400 C.2   236  THR236      0.2313
     80  O        115.4970   80.3460    7.1350 O.2   236  THR236     -0.2863
     81  CB       112.9330   78.1600    6.6100 C.3   236  THR236      0.1794
     82  OG1      112.8270   77.3150    5.4600 O.3   236  THR236     -0.2208
     83  CG2      111.5320   78.1780    7.1490 C.3   236  THR236      0.0378
     84  N        117.7770   80.8820    6.2530 N.3   238  CYS238     -0.1221
     85  CA       118.7670   81.6170    7.0080 C.3   238  CYS238      0.1808
     86  C        118.3810   81.9260    8.4430 C.2   238  CYS238      0.2601
     87  O        119.1530   82.5950    9.1470 O.2   238  CYS238     -0.2717
     88  CB       119.2170   82.8650    6.2610 C.3   238  CYS238      0.0970
     89  SG       117.8350   83.5520    5.3670 S.3   238  CYS238     -0.0800
     90  N        117.2270   81.4310    8.8950 N.am  239  LEU239     -0.1979
     91  CA       117.0860   81.2430   10.3420 C.3   239  LEU239      0.1596
     92  C        117.5800   79.8750   10.7270 C.2   239  LEU239      0.2287
     93  O        117.9560   79.6470   11.8820 O.2   239  LEU239     -0.2864
     94  CB       115.6890   81.4820   10.9310 C.3   239  LEU239      0.0297
     95  CG       114.3820   81.6840   10.1970 C.3   239  LEU239      0.0022
     96  CD1      113.2890   81.9920   11.2180 C.3   239  LEU239      0.0001
     97  CD2      114.5120   82.8010    9.1400 C.3   239  LEU239      0.0001
     98  N        124.1640   85.6050    8.0540 N.3   245  LEU245     -0.1245
     99  CA       123.1500   86.5560    8.4860 C.3   245  LEU245      0.1561
    100  C        123.1890   86.6460   10.0180 C.2   245  LEU245      0.2260
    101  O        124.2540   86.6990   10.6330 O.2   245  LEU245     -0.2867
    102  CB       121.7890   86.0670    8.0080 C.3   245  LEU245      0.0270
    103  CG       121.1660   87.0910    7.0790 C.3   245  LEU245      0.0019
    104  CD1      119.6540   87.0390    7.1270 C.3   245  LEU245      0.0001
    105  CD2      121.6790   88.4740    7.4540 C.3   245  LEU245      0.0001
    106  N        114.2170   86.9380   13.1390 N.3   249  LEU249     -0.1245
    107  CA       112.8000   86.7550   12.8350 C.3   249  LEU249      0.1561
    108  C        112.1000   88.0370   13.1690 C.2   249  LEU249      0.2260
    109  O        111.2880   88.5150   12.3870 O.2   249  LEU249     -0.2867
    110  CB       112.1540   85.5430   13.5270 C.3   249  LEU249      0.0270
    111  CG       110.7730   85.0430   13.0740 C.3   249  LEU249      0.0019
    112  CD1      110.6750   84.6240   11.6160 C.3   249  LEU249      0.0001
    113  CD2      110.3650   83.8970   13.9210 C.3   249  LEU249      0.0001
    114  N        114.3240   90.3700   11.0860 N.3   252  LEU252     -0.1245
    115  CA       113.7940   90.0390    9.7790 C.3   252  LEU252      0.1561
    116  C        112.4680   90.7490    9.4360 C.2   252  LEU252      0.2260
    117  O        112.2710   91.1670    8.2880 O.2   252  LEU252     -0.2867
    118  CB       113.6860   88.5190    9.6390 C.3   252  LEU252      0.0270
    119  CG       114.8380   87.8810    8.8420 C.3   252  LEU252      0.0019
    120  CD1      116.2350   88.5080    9.1080 C.3   252  LEU252      0.0001
    121  CD2      114.8480   86.3590    8.9980 C.3   252  LEU252      0.0001
    122  N        112.7590   94.9190    9.2620 N.3   255  ASN255     -0.1225
    123  CA       113.4310   95.4260    8.0760 C.3   255  ASN255      0.1785
    124  C        112.7020   95.1210    6.7760 C.2   255  ASN255      0.2597
    125  O        113.1440   95.4670    5.6680 O.2   255  ASN255     -0.2718
    126  CB       114.8380   94.8650    8.0450 C.3   255  ASN255      0.1169
    127  CG       115.8290   95.8090    8.6470 C.2   255  ASN255      0.2627
    128  OD1      116.5330   95.4740    9.5880 O.2   255  ASN255     -0.2716
    129  ND2      115.8780   97.0150    8.1140 N.am  255  ASN255     -0.0877
    130  N        111.5670   94.4670    6.9370 N.am  256  MET256     -0.1979
    131  CA       110.7580   94.0390    5.8250 C.3   256  MET256      0.1605
    132  C        109.4280   94.8080    5.7720 C.2   256  MET256      0.2287
    133  O        108.8160   94.9570    4.7070 O.2   256  MET256     -0.2864
    134  CB       110.5190   92.5340    5.9370 C.3   256  MET256      0.0413
    135  CG       111.4030   91.6770    5.0540 C.3   256  MET256      0.0598
    136  SD       111.7450   92.3990    3.4590 S.3   256  MET256     -0.1393
    137  CE       110.2440   92.1380    2.5060 C.3   256  MET256      0.0692
    138  N        113.6770   91.1660   -0.2790 N.3   305  ALA305     -0.1231
    139  CA       114.8050   90.3310    0.1390 C.3   305  ALA305      0.1694
    140  C        114.9370   89.1520   -0.8000 C.2   305  ALA305      0.2592
    141  O        113.9300   88.6470   -1.2740 O.2   305  ALA305     -0.2718
    142  CB       114.6030   89.8370    1.5470 C.3   305  ALA305      0.0304
    143  N        116.1650   88.7280   -1.0930 N.am  306  ALA306     -0.1966
    144  CA       116.3930   87.4360   -1.7600 C.3   306  ALA306      0.1728
    145  C        117.4790   86.6560   -1.0320 C.2   306  ALA306      0.2616
    146  O        118.3810   87.2430   -0.4140 O.2   306  ALA306     -0.2715
    147  CB       116.7260   87.5900   -3.2530 C.3   306  ALA306      0.0334
    148  N        117.3580   85.3300   -1.0580 N.am  307  VAL307     -0.1977
    149  CA       118.4020   84.4650   -0.5110 C.3   307  VAL307      0.1596
    150  C        118.8060   83.4380   -1.5680 C.2   307  VAL307      0.2287
    151  O        117.9450   82.7830   -2.1740 O.2   307  VAL307     -0.2864
    152  CB       118.0880   83.8580    0.9290 C.3   307  VAL307      0.0276
    153  CG1      116.7360   84.2760    1.4790 C.3   307  VAL307      0.0022
    154  CG2      118.2180   82.3730    0.9600 C.3   307  VAL307      0.0022
    155  N        118.1890   94.3450    0.0240 N.3   341  LYS341     -0.1231
    156  CA       119.3360   93.5930    0.5470 C.3   341  LYS341      0.1693
    157  C        119.1690   92.1100    0.2060 C.2   341  LYS341      0.2593
    158  O        118.0410   91.5960    0.1720 O.2   341  LYS341     -0.2718
    159  CB       119.4970   93.7690    2.0840 C.3   341  LYS341      0.0285
    160  CG       119.3770   95.2040    2.6270 C.3   341  LYS341      0.0035
    161  CD       120.5700   96.0800    2.2520 C.3   341  LYS341      0.0206
    162  CE       120.6010   97.3030    3.1100 C.3   341  LYS341      0.1093
    163  NZ       121.7510   97.2260    3.9990 N.3   341  LYS341     -0.1314
    164  N        120.2910   91.4380   -0.0640 N.am  342  THR342     -0.1939
    165  CA       120.3060   90.0000   -0.3470 C.3   342  THR342      0.2028
    166  C        121.4410   89.3340    0.4050 C.2   342  THR342      0.2642
    167  O        122.4420   89.9820    0.7290 O.2   342  THR342     -0.2714
    168  CB       120.4400   89.7180   -1.8660 C.3   342  THR342      0.1808
    169  OG1      121.5010   90.5100   -2.4160 O.3   342  THR342     -0.2208
    170  CG2      119.1940   90.1830   -2.6240 C.3   342  THR342      0.0379
    171  N        121.2660   88.0530    0.7080 N.am  343  ALA343     -0.1977
    172  CA       122.3690   87.2650    1.2150 C.3   343  ALA343      0.1597
    173  C        122.3440   85.8510    0.6530 C.2   343  ALA343      0.2287
    174  O        121.3940   85.4730   -0.0380 O.2   343  ALA343     -0.2864
    175  CB       122.4130   87.2840    2.7190 C.3   343  ALA343      0.0319
    176  N        111.5660   86.7790   -1.5700 N.3   359  ILE359     -0.1245
    177  CA       110.5780   87.3460   -0.6460 C.3   359  ILE359      0.1561
    178  C        110.2380   88.7700   -1.1390 C.2   359  ILE359      0.2260
    179  O        111.1410   89.5410   -1.4460 O.2   359  ILE359     -0.2867
    180  CB       111.2110   87.4030    0.7550 C.3   359  ILE359      0.0252
    181  CG1      111.1150   86.0710    1.4550 C.3   359  ILE359      0.0019
    182  CG2      110.5830   88.4890    1.6210 C.3   359  ILE359      0.0019
    183  CD1      111.5930   86.1820    2.8610 C.3   359  ILE359      0.0001
@<TRIPOS>BOND
     1   147   144    1
     2   170   168    1
     3   169   168    1
     4   151   150    2
     5   168   165    1
     6   144   143    1
     7   144   145    1
     8   176   177    1
     9   150   149    1
    10   179   178    2
    11   141   140    2
    12   178   177    1
    13   143   140   am
    14   148   145   am
    15   148   149    1
    16   145   146    2
    17   140   139    1
    18   177   180    1
    19   149   152    1
    20   165   164    1
    21   165   166    1
    22   138   139    1
    23   164   157   am
    24   174   173    2
    25   155   156    1
    26   139   142    1
    27   158   157    2
    28   157   156    1
    29   166   171   am
    30   166   167    2
    31   156   159    1
    32   173   172    1
    33   171   172    1
    34   180   181    1
    35   180   182    1
    36   152   154    1
    37   152   153    1
    38   172   175    1
    39   181   183    1
    40    76    74    1
    41    60    61    2
    42    60    59    1
    43    70    71    1
    44   159   160    1
    45   161   160    1
    46   161   162    1
    47   137   136    1
    48    62    59    1
    49    62    63    1
    50    65    63   ar
    51    65    67   ar
    52    59    58    1
    53    71    74    1
    54    71    72    1
    55   162   163    1
    56    74    75    1
    57    63    64   ar
    58    67    68   ar
    59   136   135    1
    60    45    47   ar
    61    45    43   ar
    62    42    39    1
    63    42    43    1
    64    72    77   am
    65    72    73    2
    66    47    48   ar
    67    40    39    1
    68    40    41    2
    69    64    66   ar
    70    68    66   ar
    71    68    69    1
    72   133   132    2
    73    39    38    1
    74    43    44   ar
    75    77    78    1
    76   135   134    1
    77    89    88    1
    78    82    81    1
    79   125   124    2
    80   132   131    1
    81    48    46   ar
    82   131   134    1
    83   131   130    1
    84    44    46   ar
    85    78    79    1
    86    78    81    1
    87    79    80    2
    88    84    85    1
    89    88    85    1
    90    81    83    1
    91   124   130   am
    92   124   123    1
    93    85    86    1
    94   103   104    1
    95   103   105    1
    96   103   102    1
    97    57    55   ar
    98    51    50    1
    99    51    52    2
   100    53    50    1
   101    53    54    2
   102   102    99    1
   103   126   123    1
   104   126   127    1
   105    50    49    1
   106    98    99    1
   107   123   122    1
   108   129   127   am
   109   117   116    2
   110    55    54    1
   111    55    56   ar
   112    86    90   am
   113    86    87    2
   114    99   100    1
   115   127   128    2
   116   119   121    1
   117   119   120    1
   118   119   118    1
   119    90    91    1
   120    97    95    1
   121    36    35    2
   122   116   115    1
   123    28    27    2
   124   118   115    1
   125   115   114    1
   126    29    27   am
   127    20    19    1
   128    32    33    2
   129    32    31    1
   130   100   101    2
   131    27    26    1
   132    95    94    1
   133    95    96    1
   134    91    92    1
   135    91    94    1
   136    35    34    1
   137    35    37   am
   138    19    18   ar
   139    19    17   ar
   140    31    34    1
   141    31    30    1
   142    92    93    2
   143    18    16   ar
   144    17    15   ar
   145    25    26    1
   146    25    22    1
   147    16    14   ar
   148   112   111    1
   149    15    14   ar
   150    23    22    1
   151    23    24    2
   152    14    13    1
   153    22    21    1
   154   109   108    2
   155    13    10    1
   156   107   106    1
   157   107   108    1
   158   107   110    1
   159     8     6    1
   160   111   110    1
   161   111   113    1
   162     6     5    1
   163    10     9    1
   164    10    11    1
   165    12    11    2
   166     7     5    1
   167     5     2    1
   168     4     3    2
   169     3     2    1
   170     2     1    1
