@<TRIPOS>MOLECULE
tmp/3hkeD02.pdb
 143 133 0 0 0
SMALL
GASTEIGER

@<TRIPOS>ATOM
      1  N         32.6770   44.3340  -12.1930 N.3   235  VAL235     -0.1245
      2  CA        32.7820   45.5290  -11.3750 C.3   235  VAL235      0.1561
      3  C         33.7050   45.2690  -10.1720 C.2   235  VAL235      0.2260
      4  O         34.4650   46.1610   -9.7560 O.2   235  VAL235     -0.2867
      5  CB        31.3860   46.0240  -10.9200 C.3   235  VAL235      0.0252
      6  CG1       31.4720   46.7520   -9.6110 C.3   235  VAL235      0.0019
      7  CG2       30.7790   46.9350  -11.9510 C.3   235  VAL235      0.0019
      8  N         38.7010   44.0870   -9.2800 N.3   238  CYS238     -0.1221
      9  CA        39.9490   44.6030   -8.7180 C.3   238  CYS238      0.1808
     10  C         40.0500   44.4100   -7.2450 C.2   238  CYS238      0.2601
     11  O         41.1500   44.4240   -6.6970 O.2   238  CYS238     -0.2717
     12  CB        40.0380   46.0510   -9.0430 C.3   238  CYS238      0.0970
     13  SG        40.1520   46.0420  -10.8250 S.3   238  CYS238     -0.0800
     14  N         38.9060   44.2270   -6.6040 N.am  239  LEU239     -0.1979
     15  CA        38.8940   43.9410   -5.1800 C.3   239  LEU239      0.1596
     16  C         39.4370   42.5350   -4.9070 C.2   239  LEU239      0.2287
     17  O         40.1240   42.2990   -3.8810 O.2   239  LEU239     -0.2864
     18  CB        37.4790   44.0870   -4.6100 C.3   239  LEU239      0.0297
     19  CG        36.7610   45.4430   -4.6470 C.3   239  LEU239      0.0022
     20  CD1       35.4120   45.3090   -3.9460 C.3   239  LEU239      0.0001
     21  CD2       37.5920   46.5780   -4.0280 C.3   239  LEU239      0.0001
     22  N         47.6580   47.6560   -7.6340 N.3   245  LEU245     -0.1245
     23  CA        47.7890   47.0180   -6.3470 C.3   245  LEU245      0.1561
     24  C         46.4830   47.3620   -5.6310 C.2   245  LEU245      0.2260
     25  O         46.2300   48.5210   -5.3050 O.2   245  LEU245     -0.2867
     26  CB        49.0440   47.3910   -5.5480 C.3   245  LEU245      0.0270
     27  CG        49.6010   46.1920   -4.7300 C.3   245  LEU245      0.0019
     28  CD1       50.7910   46.5760   -3.8380 C.3   245  LEU245      0.0001
     29  CD2       48.5430   45.4000   -3.9070 C.3   245  LEU245      0.0001
     30  N         42.9200   47.9660   -4.8180 N.3   247  ALA247     -0.1245
     31  CA        41.5720   48.5680   -4.6960 C.3   247  ALA247      0.1562
     32  C         40.9370   48.4300   -3.2930 C.2   247  ALA247      0.2260
     33  O         40.3570   47.3960   -2.9210 O.2   247  ALA247     -0.2867
     34  CB        40.6090   48.0640   -5.7970 C.3   247  ALA247      0.0290
     35  N         39.3010   53.2320   -1.4870 N.3   251  LYS251     -0.1231
     36  CA        40.0300   53.9100   -2.5380 C.3   251  LYS251      0.1693
     37  C         39.0770   54.1870   -3.6860 C.2   251  LYS251      0.2591
     38  O         39.0530   55.3080   -4.2090 O.2   251  LYS251     -0.2718
     39  CB        41.2120   53.0770   -3.0120 C.3   251  LYS251      0.0285
     40  CG        42.5530   53.5140   -2.4400 C.3   251  LYS251      0.0035
     41  CD        43.3640   52.3250   -1.9310 C.3   251  LYS251      0.0206
     42  CE        44.4480   51.9410   -2.9100 C.3   251  LYS251      0.1093
     43  NZ        45.7610   52.6700   -2.6730 N.3   251  LYS251     -0.1314
     44  N         38.2750   53.1800   -4.0510 N.am  252  LEU252     -0.1980
     45  CA        37.2480   53.3280   -5.0910 C.3   252  LEU252      0.1596
     46  C         36.3710   54.5300   -4.8370 C.2   252  LEU252      0.2287
     47  O         36.1180   55.3090   -5.7300 O.2   252  LEU252     -0.2864
     48  CB        36.3680   52.0850   -5.1520 C.3   252  LEU252      0.0297
     49  CG        35.3600   51.8350   -6.2860 C.3   252  LEU252      0.0022
     50  CD1       33.9690   52.3510   -5.9750 C.3   252  LEU252      0.0001
     51  CD2       35.8350   52.3670   -7.6020 C.3   252  LEU252      0.0001
     52  N         38.0960   58.1070   -4.9620 N.3   255  ASN255     -0.1225
     53  CA        38.4850   58.4560   -6.3100 C.3   255  ASN255      0.1785
     54  C         37.3130   58.6850   -7.2630 C.2   255  ASN255      0.2597
     55  O         37.4240   59.3960   -8.2560 O.2   255  ASN255     -0.2718
     56  CB        39.4110   57.3880   -6.8610 C.3   255  ASN255      0.1169
     57  CG        40.8660   57.7360   -6.6840 C.2   255  ASN255      0.2627
     58  OD1       41.6220   56.9870   -6.0720 O.2   255  ASN255     -0.2716
     59  ND2       41.2760   58.8660   -7.2380 N.am  255  ASN255     -0.0877
     60  N         36.1790   58.0840   -6.9640 N.am  256  MET256     -0.1979
     61  CA        35.0700   58.1850   -7.8800 C.3   256  MET256      0.1605
     62  C         34.1200   59.3010   -7.5230 C.2   256  MET256      0.2287
     63  O         33.5260   59.8960   -8.4150 O.2   256  MET256     -0.2864
     64  CB        34.3120   56.8720   -7.9420 C.3   256  MET256      0.0413
     65  CG        35.0550   55.7910   -8.6730 C.3   256  MET256      0.0598
     66  SD        35.3610   56.2060  -10.3820 S.3   256  MET256     -0.1393
     67  CE        33.8800   55.3850  -11.2000 C.3   256  MET256      0.0692
     68  N         33.7160   61.1130  -13.2710 N.3   311  THR311     -0.1203
     69  CA        34.8840   60.2580  -13.1920 C.3   311  THR311      0.1994
     70  C         34.4900   58.9200  -13.7670 C.2   311  THR311      0.2618
     71  O         33.3190   58.5250  -13.6820 O.2   311  THR311     -0.2717
     72  CB        35.3100   60.0730  -11.7230 C.3   311  THR311      0.1784
     73  OG1       34.1910   59.6150  -10.9520 O.3   311  THR311     -0.2211
     74  CG2       35.6500   61.4110  -11.0640 C.3   311  THR311      0.0376
     75  N         35.4540   58.2150  -14.3480 N.am  312  VAL312     -0.1965
     76  CA        35.1700   56.8840  -14.8690 C.3   312  VAL312      0.1727
     77  C         36.2490   55.8750  -14.5340 C.2   312  VAL312      0.2616
     78  O         37.4420   56.1490  -14.6850 O.2   312  VAL312     -0.2715
     79  CB        34.9150   56.9070  -16.3790 C.3   312  VAL312      0.0290
     80  CG1       35.2980   55.5890  -17.0330 C.3   312  VAL312      0.0023
     81  CG2       33.4650   57.2030  -16.6350 C.3   312  VAL312      0.0023
     82  N         35.8090   54.7110  -14.0610 N.am  313  ALA313     -0.1963
     83  CA        36.6810   53.5550  -13.9070 C.3   313  ALA313      0.1728
     84  C         36.3170   52.4990  -14.9590 C.2   313  ALA313      0.2616
     85  O         35.1390   52.1510  -15.1180 O.2   313  ALA313     -0.2715
     86  CB        36.5670   52.9900  -12.4980 C.3   313  ALA313      0.0334
     87  N         37.3210   52.0150  -15.6880 N.am  314  ALA314     -0.1963
     88  CA        37.0960   50.9650  -16.6660 C.3   314  ALA314      0.1728
     89  C         38.1370   49.8770  -16.5350 C.2   314  ALA314      0.2616
     90  O         39.3240   50.1480  -16.4120 O.2   314  ALA314     -0.2715
     91  CB        37.0880   51.5320  -18.0440 C.3   314  ALA314      0.0334
     92  N         37.6720   48.6380  -16.5710 N.am  315  VAL315     -0.1977
     93  CA        38.5150   47.4980  -16.2630 C.3   315  VAL315      0.1596
     94  C         38.3020   46.3170  -17.2270 C.2   315  VAL315      0.2287
     95  O         37.2590   45.6540  -17.2350 O.2   315  VAL315     -0.2864
     96  CB        38.3900   47.1010  -14.7600 C.3   315  VAL315      0.0276
     97  CG1       36.9880   47.3600  -14.2280 C.3   315  VAL315      0.0022
     98  CG2       38.8100   45.6570  -14.5160 C.3   315  VAL315      0.0022
     99  N         42.8300   63.9920  -15.7480 N.3   346  ASN346     -0.1225
    100  CA        43.0550   62.5360  -15.8990 C.3   346  ASN346      0.1785
    101  C         42.0040   61.6490  -15.2120 C.2   346  ASN346      0.2597
    102  O         42.3320   60.6380  -14.5680 O.2   346  ASN346     -0.2718
    103  CB        44.4810   62.1490  -15.4630 C.3   346  ASN346      0.1169
    104  CG        45.3830   63.3580  -15.2720 C.2   346  ASN346      0.2627
    105  OD1       45.4380   63.9310  -14.1820 O.2   346  ASN346     -0.2716
    106  ND2       46.0780   63.7630  -16.3340 N.am  346  ASN346     -0.0877
    107  N         40.7420   62.0390  -15.3960 N.am  347  ASN347     -0.1974
    108  CA        39.6200   61.5770  -14.5770 C.3   347  ASN347      0.1688
    109  C         38.9950   60.2650  -15.0180 C.2   347  ASN347      0.2292
    110  O         37.8790   59.9140  -14.5990 O.2   347  ASN347     -0.2864
    111  CB        38.5450   62.6500  -14.5380 C.3   347  ASN347      0.1181
    112  CG        37.9530   62.9190  -15.8970 C.2   347  ASN347      0.2629
    113  OD1       36.7560   63.1990  -16.0120 O.2   347  ASN347     -0.2716
    114  ND2       38.7820   62.8300  -16.9480 N.am  347  ASN347     -0.0877
    115  N         40.5620   56.3300  -15.2560 N.3   349  LYS349     -0.1231
    116  CA        41.6400   55.3800  -15.0390 C.3   349  LYS349      0.1693
    117  C         41.1970   53.9940  -15.4980 C.2   349  LYS349      0.2593
    118  O         40.0840   53.5490  -15.1970 O.2   349  LYS349     -0.2718
    119  CB        42.0620   55.3620  -13.5580 C.3   349  LYS349      0.0285
    120  CG        42.9430   56.5600  -13.1050 C.3   349  LYS349      0.0035
    121  CD        44.4640   56.3660  -13.3720 C.3   349  LYS349      0.0206
    122  CE        45.1600   57.6740  -13.8310 C.3   349  LYS349      0.1093
    123  NZ        44.6030   58.9310  -13.2230 N.3   349  LYS349     -0.1314
    124  N         42.0730   53.3290  -16.2430 N.am  350  THR350     -0.1939
    125  CA        41.7620   52.0200  -16.7840 C.3   350  THR350      0.2028
    126  C         42.7870   51.0250  -16.3640 C.2   350  THR350      0.2642
    127  O         43.9800   51.3180  -16.3540 O.2   350  THR350     -0.2714
    128  CB        41.7280   52.0440  -18.2960 C.3   350  THR350      0.1808
    129  OG1       42.4320   53.1930  -18.7630 O.3   350  THR350     -0.2208
    130  CG2       40.3440   52.2890  -18.7630 C.3   350  THR350      0.0379
    131  N         42.2980   49.8340  -16.0460 N.am  351  ALA351     -0.1977
    132  CA        43.1260   48.7090  -15.6240 C.3   351  ALA351      0.1597
    133  C         42.7920   47.4550  -16.4350 C.2   351  ALA351      0.2287
    134  O         41.7060   47.3500  -17.0140 O.2   351  ALA351     -0.2864
    135  CB        42.9330   48.4480  -14.1470 C.3   351  ALA351      0.0319
    136  N         32.7120   51.4650  -14.9720 N.3   367  ILE367     -0.1245
    137  CA        32.0150   52.1500  -13.8810 C.3   367  ILE367      0.1561
    138  C         32.0800   53.6440  -14.1270 C.2   367  ILE367      0.2260
    139  O         33.1640   54.2120  -14.2340 O.2   367  ILE367     -0.2867
    140  CB        32.5960   51.8120  -12.4730 C.3   367  ILE367      0.0252
    141  CG1       32.6020   50.2990  -12.2010 C.3   367  ILE367      0.0019
    142  CG2       31.7750   52.5060  -11.3850 C.3   367  ILE367      0.0019
    143  CD1       33.6810   49.8360  -11.1980 C.3   367  ILE367      0.0001
@<TRIPOS>BOND
     1   129   128    1
     2   130   128    1
     3   128   125    1
     4    91    88    1
     5    95    94    2
     6    94    93    1
     7    80    79    1
     8   134   133    2
     9   114   112   am
    10   125   126    1
    11   125   124    1
    12    88    89    1
    13    88    87    1
    14    81    79    1
    15    92    89   am
    16    92    93    1
    17    89    90    2
    18   133   132    1
    19    79    76    1
    20   126   127    2
    21   126   131   am
    22   106   104   am
    23    93    96    1
    24   124   117   am
    25   131   132    1
    26   113   112    2
    27   100    99    1
    28   100   103    1
    29   100   101    1
    30   112   111    1
    31    87    84   am
    32   132   135    1
    33   117   118    2
    34   117   116    1
    35   103   104    1
    36   107   101   am
    37   107   108    1
    38   104   105    2
    39   115   116    1
    40   101   102    2
    41    85    84    2
    42   116   119    1
    43   109   110    2
    44   109   108    1
    45   136   137    1
    46    84    83    1
    47    76    77    1
    48    76    75    1
    49    96    98    1
    50    96    97    1
    51    78    77    2
    52   108   111    1
    53    77    82   am
    54    75    70   am
    55   139   138    2
    56   138   137    1
    57    82    83    1
    58    83    86    1
    59   137   140    1
    60   122   121    1
    61   122   123    1
    62    70    71    2
    63    70    69    1
    64   119   120    1
    65   121   120    1
    66    68    69    1
    67    69    72    1
    68   140   141    1
    69   140   142    1
    70   141   143    1
    71     1     2    1
    72     7     5    1
    73    72    74    1
    74    72    73    1
    75     2     5    1
    76     2     3    1
    77    67    66    1
    78     5     6    1
    79    13    12    1
    80    66    65    1
    81     3     4    2
    82     8     9    1
    83    12     9    1
    84     9    10    1
    85    65    64    1
    86    63    62    2
    87    55    54    2
    88    64    61    1
    89    61    62    1
    90    61    60    1
    91    22    23    1
    92    51    49    1
    93    54    60   am
    94    54    53    1
    95    10    11    2
    96    10    14   am
    97    59    57   am
    98    56    57    1
    99    56    53    1
   100    57    58    2
   101    14    15    1
   102    23    24    1
   103    23    26    1
   104    53    52    1
   105    49    50    1
   106    49    48    1
   107    34    31    1
   108    47    46    2
   109    24    25    2
   110    26    27    1
   111    15    16    1
   112    15    18    1
   113    48    45    1
   114    45    46    1
   115    45    44    1
   116    16    17    2
   117    30    31    1
   118    27    29    1
   119    27    28    1
   120    31    32    1
   121    19    18    1
   122    19    21    1
   123    19    20    1
   124    38    37    2
   125    44    37   am
   126    37    36    1
   127    32    33    2
   128    39    36    1
   129    39    40    1
   130    42    43    1
   131    42    41    1
   132    36    35    1
   133    40    41    1
