@<TRIPOS>MOLECULE
tmp/3hkeD00.pdb
 109 104 0 0 0
SMALL
GASTEIGER

@<TRIPOS>ATOM
      1  N         36.0490   42.8060   -9.8490 N.3   237  THR237     -0.1203
      2  CA        37.3570   42.2300  -10.1580 C.3   237  THR237      0.1994
      3  C         38.5280   42.7790   -9.3210 C.2   237  THR237      0.2618
      4  O         39.2630   42.0220   -8.6910 O.2   237  THR237     -0.2717
      5  CB        37.6640   42.3740  -11.6450 C.3   237  THR237      0.1784
      6  OG1       37.3000   43.6940  -12.0660 O.3   237  THR237     -0.2211
      7  CG2       36.7560   41.4720  -12.4450 C.3   237  THR237      0.0376
      8  N         38.7010   44.0870   -9.2800 N.am  238  CYS238     -0.1969
      9  CA        39.9490   44.6030   -8.7180 C.3   238  CYS238      0.1712
     10  C         40.0500   44.4100   -7.2450 C.2   238  CYS238      0.2296
     11  O         41.1500   44.4240   -6.6970 O.2   238  CYS238     -0.2864
     12  CB        40.0380   46.0510   -9.0430 C.3   238  CYS238      0.0983
     13  SG        40.1520   46.0420  -10.8250 S.3   238  CYS238     -0.0798
     14  N         41.4620   40.2070   -7.0580 N.3   241  PHE241     -0.1228
     15  CA        42.3970   39.6040   -8.0240 C.3   241  PHE241      0.1721
     16  C         43.9410   39.8680   -7.9860 C.2   241  PHE241      0.2437
     17  O         44.6980   38.9960   -7.5080 O.2   241  PHE241     -0.2733
     18  CB        41.8410   39.7080   -9.4570 C.3   241  PHE241      0.0547
     19  CG        41.1120   38.4740   -9.8970 C.ar  241  PHE241     -0.0202
     20  CD1       39.8000   38.5440  -10.3550 C.ar  241  PHE241     -0.0042
     21  CD2       41.7310   37.2320   -9.8310 C.ar  241  PHE241     -0.0042
     22  CE1       39.1160   37.3910  -10.7580 C.ar  241  PHE241     -0.0003
     23  CE2       41.0610   36.0810  -10.2290 C.ar  241  PHE241     -0.0003
     24  CZ        39.7470   36.1590  -10.6950 C.ar  241  PHE241     -0.0000
     25  N         44.4180   41.0230   -8.4840 N.am  242  PRO242     -0.2729
     26  CA        45.8150   41.1020   -8.9410 C.3   242  PRO242      0.1401
     27  C         46.7830   41.2130   -7.7880 C.2   242  PRO242      0.2269
     28  O         46.9090   40.2720   -6.9940 O.2   242  PRO242     -0.2865
     29  CB        45.8480   42.3740   -9.8070 C.3   242  PRO242      0.0296
     30  CG        44.7320   43.2730   -9.2480 C.3   242  PRO242      0.0237
     31  CD        43.7270   42.3340   -8.5860 C.3   242  PRO242      0.0939
     32  N         48.2860   44.7310   -8.0230 N.3   244  GLN244     -0.1231
     33  CA        48.5040   45.7860   -8.9780 C.3   244  GLN244      0.1698
     34  C         47.4780   46.9160   -8.7240 C.2   244  GLN244      0.2592
     35  O         46.4110   46.9690   -9.3760 O.2   244  GLN244     -0.2718
     36  CB        48.3110   45.2190  -10.3890 C.3   244  GLN244      0.0381
     37  CG        49.3060   44.1700  -10.8610 C.3   244  GLN244      0.0905
     38  CD        50.2150   44.6970  -11.9590 C.2   244  GLN244      0.2608
     39  OE1       51.4120   44.9090  -11.7250 O.2   244  GLN244     -0.2717
     40  NE2       49.6530   44.9180  -13.1570 N.am  244  GLN244     -0.0878
     41  N         47.6580   47.6560   -7.6340 N.am  245  LEU245     -0.1966
     42  CA        47.7890   47.0180   -6.3470 C.3   245  LEU245      0.1728
     43  C         46.4830   47.3620   -5.6310 C.2   245  LEU245      0.2616
     44  O         46.2300   48.5210   -5.3050 O.2   245  LEU245     -0.2715
     45  CB        49.0440   47.3910   -5.5480 C.3   245  LEU245      0.0311
     46  CG        49.6010   46.1920   -4.7300 C.3   245  LEU245      0.0022
     47  CD1       50.7910   46.5760   -3.8380 C.3   245  LEU245      0.0001
     48  CD2       48.5430   45.4000   -3.9070 C.3   245  LEU245      0.0001
     49  N         45.6120   46.3560   -5.5550 N.am  246  ASN246     -0.1958
     50  CA        44.5900   46.1540   -4.5000 C.3   246  ASN246      0.1819
     51  C         43.1350   46.6780   -4.5490 C.2   246  ASN246      0.2621
     52  O         42.2120   45.8840   -4.3280 O.2   246  ASN246     -0.2715
     53  CB        45.1950   46.1240   -3.0580 C.3   246  ASN246      0.1195
     54  CG        45.3290   47.5020   -2.4090 C.2   246  ASN246      0.2630
     55  OD1       44.4480   48.3820   -2.5300 O.2   246  ASN246     -0.2716
     56  ND2       46.4340   47.6830   -1.6760 N.am  246  ASN246     -0.0877
     57  N         42.9200   47.9660   -4.8180 N.am  247  ALA247     -0.1977
     58  CA        41.5720   48.5680   -4.6960 C.3   247  ALA247      0.1597
     59  C         40.9370   48.4300   -3.2930 C.2   247  ALA247      0.2287
     60  O         40.3570   47.3960   -2.9210 O.2   247  ALA247     -0.2864
     61  CB        40.6090   48.0640   -5.7970 C.3   247  ALA247      0.0319
     62  N         37.6720   48.6380  -16.5710 N.3   315  VAL315     -0.1245
     63  CA        38.5150   47.4980  -16.2630 C.3   315  VAL315      0.1561
     64  C         38.3020   46.3170  -17.2270 C.2   315  VAL315      0.2260
     65  O         37.2590   45.6540  -17.2350 O.2   315  VAL315     -0.2867
     66  CB        38.3900   47.1010  -14.7600 C.3   315  VAL315      0.0252
     67  CG1       36.9880   47.3600  -14.2280 C.3   315  VAL315      0.0019
     68  CG2       38.8100   45.6570  -14.5160 C.3   315  VAL315      0.0019
     69  N         47.6460   45.1160  -24.0080 N.3   322  MET322     -0.1245
     70  CA        47.1860   46.2910  -23.2850 C.3   322  MET322      0.1570
     71  C         47.8880   47.5660  -23.7600 C.2   322  MET322      0.2261
     72  O         47.4370   48.6680  -23.4620 O.2   322  MET322     -0.2867
     73  CB        47.2740   46.0860  -21.7640 C.3   322  MET322      0.0387
     74  CG        48.6690   46.0240  -21.1910 C.3   322  MET322      0.0595
     75  SD        49.1700   47.6170  -20.4830 S.3   322  MET322     -0.1393
     76  CE        50.7900   47.9100  -21.4030 C.3   322  MET322      0.0692
     77  N         45.5150   51.2300  -23.8220 N.3   326  ASP326     -0.1239
     78  CA        45.9150   52.5900  -23.4780 C.3   326  ASP326      0.1674
     79  C         45.4450   53.5900  -24.5190 C.2   326  ASP326      0.2266
     80  O         44.7260   54.5380  -24.2000 O.2   326  ASP326     -0.2867
     81  CB        47.4390   52.6740  -23.3630 C.3   326  ASP326      0.1410
     82  CG        47.9620   52.2880  -21.9750 C.2   326  ASP326      0.3668
     83  OD1       47.1570   52.0370  -21.0380 O.co2 326  ASP326     -0.2456
     84  OD2       49.1930   52.2160  -21.7360 O.co2 326  ASP326     -0.2456
     85  N         42.0730   53.3290  -16.2430 N.3   350  THR350     -0.1203
     86  CA        41.7620   52.0200  -16.7840 C.3   350  THR350      0.1994
     87  C         42.7870   51.0250  -16.3640 C.2   350  THR350      0.2618
     88  O         43.9800   51.3180  -16.3540 O.2   350  THR350     -0.2717
     89  CB        41.7280   52.0440  -18.2960 C.3   350  THR350      0.1784
     90  OG1       42.4320   53.1930  -18.7630 O.3   350  THR350     -0.2211
     91  CG2       40.3440   52.2890  -18.7630 C.3   350  THR350      0.0376
     92  N         42.2980   49.8340  -16.0460 N.am  351  ALA351     -0.1965
     93  CA        43.1260   48.7090  -15.6240 C.3   351  ALA351      0.1728
     94  C         42.7920   47.4550  -16.4350 C.2   351  ALA351      0.2616
     95  O         41.7060   47.3500  -17.0140 O.2   351  ALA351     -0.2715
     96  CB        42.9330   48.4480  -14.1470 C.3   351  ALA351      0.0334
     97  N         43.7240   46.5100  -16.4760 N.am  352  VAL352     -0.1963
     98  CA        43.5230   45.2690  -17.2060 C.3   352  VAL352      0.1727
     99  C         43.7140   44.1160  -16.2580 C.2   352  VAL352      0.2616
    100  O         44.5610   44.1870  -15.3890 O.2   352  VAL352     -0.2715
    101  CB        44.5210   45.1390  -18.3650 C.3   352  VAL352      0.0290
    102  CG1       44.0690   45.9840  -19.5210 C.3   352  VAL352      0.0023
    103  CG2       45.9360   45.5440  -17.9340 C.3   352  VAL352      0.0023
    104  N         42.9180   43.0670  -16.3940 N.am  353  CYS353     -0.1968
    105  CA        43.2260   41.8200  -15.6970 C.3   353  CYS353      0.1712
    106  C         43.1520   40.6620  -16.6530 C.2   353  CYS353      0.2296
    107  O         42.2160   40.5670  -17.4420 O.2   353  CYS353     -0.2864
    108  CB        42.2840   41.5410  -14.5370 C.3   353  CYS353      0.0983
    109  SG        42.2180   39.7670  -14.1690 S.3   353  CYS353     -0.0798
@<TRIPOS>BOND
     1    79    80    2
     2    79    78    1
     3    69    70    1
     4    77    78    1
     5    71    72    2
     6    71    70    1
     7    78    81    1
     8    81    82    1
     9    70    73    1
    10    82    84   ar
    11    82    83   ar
    12    73    74    1
    13    76    75    1
    14    74    75    1
    15   102   101    1
    16    90    89    1
    17    91    89    1
    18   101   103    1
    19   101    98    1
    20    89    86    1
    21   107   106    2
    22    65    64    2
    23    64    63    1
    24    98    97    1
    25    98    99    1
    26    95    94    2
    27    86    87    1
    28    86    85    1
    29   106   105    1
    30    62    63    1
    31    97    94   am
    32    94    93    1
    33   104    99   am
    34   104   105    1
    35    87    88    2
    36    87    92   am
    37    63    66    1
    38    99   100    2
    39    92    93    1
    40   105   108    1
    41    93    96    1
    42    66    68    1
    43    66    67    1
    44   108   109    1
    45    40    38   am
    46     7     5    1
    47     6     5    1
    48    38    39    2
    49    38    37    1
    50     5     2    1
    51    37    36    1
    52    13    12    1
    53    22    24   ar
    54    22    20   ar
    55    24    23   ar
    56    36    33    1
    57    20    19   ar
    58    23    21   ar
    59     2     1    1
    60     2     3    1
    61    19    21   ar
    62    19    18    1
    63    29    30    1
    64    29    26    1
    65    18    15    1
    66    35    34    2
    67     3     8   am
    68     3     4    2
    69     8     9    1
    70    30    31    1
    71    12     9    1
    72    33    34    1
    73    33    32    1
    74    26    25    1
    75    26    27    1
    76    34    41   am
    77     9    10    1
    78    31    25    1
    79    25    16   am
    80    15    16    1
    81    15    14    1
    82    16    17    2
    83    27    28    2
    84    41    42    1
    85    10    11    2
    86    42    43    1
    87    42    45    1
    88    61    58    1
    89    43    49   am
    90    43    44    2
    91    49    50    1
    92    45    46    1
    93    57    58    1
    94    57    51   am
    95    46    48    1
    96    46    47    1
    97    58    59    1
    98    51    50    1
    99    51    52    2
   100    50    53    1
   101    59    60    2
   102    53    54    1
   103    55    54    2
   104    54    56   am
