@<TRIPOS>MOLECULE
tmp/3hknA00.pdb
 206 201 0 0 0
SMALL
GASTEIGER

@<TRIPOS>ATOM
      1  N         29.3890    1.4730   10.3840 N.3     2  TRP2       -0.1241
      2  CA        28.8510    0.4630   11.2870 C.3     2  TRP2        0.1605
      3  C         27.8540   -0.4230   10.5520 C.2     2  TRP2        0.2264
      4  O         27.2830   -0.0270    9.5350 O.2     2  TRP2       -0.2867
      5  CB        28.1560    1.1120   12.4890 C.3     2  TRP2        0.0550
      6  CG        26.9320    1.8960   12.1370 C.ar    2  TRP2        0.0003
      7  CD1       26.8740    3.2120   11.7670 C.ar    2  TRP2        0.0946
      8  CD2       25.5830    1.4140   12.1110 C.ar    2  TRP2        0.0152
      9  NE1       25.5730    3.5770   11.5160 N.ar    2  TRP2       -0.2442
     10  CE2       24.7600    2.4920   11.7190 C.ar    2  TRP2        0.0810
     11  CE3       24.9910    0.1730   12.3800 C.ar    2  TRP2        0.0012
     12  CZ2       23.3740    2.3680   11.5900 C.ar    2  TRP2        0.0191
     13  CZ3       23.6120    0.0480   12.2530 C.ar    2  TRP2        0.0001
     14  CH2       22.8190    1.1440   11.8620 C.ar    2  TRP2        0.0015
     15  N         26.0260   -4.8210   10.8910 N.3     4  TYR4       -0.1241
     16  CA        25.6330   -5.9650   11.7010 C.3     4  TYR4        0.1605
     17  C         26.4930   -7.1840   11.3870 C.2     4  TYR4        0.2264
     18  O         26.1370   -8.3090   11.7330 O.2     4  TYR4       -0.2867
     19  CB        24.1620   -6.2890   11.4510 C.3     4  TYR4        0.0534
     20  CG        23.2240   -5.2250   11.9630 C.ar    4  TYR4       -0.0201
     21  CD1       22.8890   -5.1550   13.3140 C.ar    4  TYR4       -0.0009
     22  CD2       22.6850   -4.2720   11.0980 C.ar    4  TYR4       -0.0009
     23  CE1       22.0360   -4.1620   13.7950 C.ar    4  TYR4        0.0417
     24  CE2       21.8370   -3.2730   11.5670 C.ar    4  TYR4        0.0417
     25  CZ        21.5160   -3.2260   12.9160 C.ar    4  TYR4        0.1957
     26  OH        20.6690   -2.2470   13.3750 O.3     4  TYR4       -0.2866
     27  N         17.8960    2.1340    3.5900 N.3    59  ASN59      -0.1240
     28  CA        19.0550    2.9130    4.0150 C.3    59  ASN59       0.1653
     29  C         20.3110    2.0930    4.2840 C.2    59  ASN59       0.2266
     30  O         21.2580    2.5960    4.8920 O.2    59  ASN59      -0.2867
     31  CB        18.7140    3.7330    5.2600 C.3    59  ASN59       0.1155
     32  CG        18.2430    2.8700    6.4060 C.2    59  ASN59       0.2627
     33  OD1       18.7540    1.7700    6.6180 O.2    59  ASN59      -0.2716
     34  ND2       17.2680    3.3650    7.1620 N.am   59  ASN59      -0.0877
     35  N         20.5930   -0.4240    6.2610 N.3    61  HIS61      -0.1226
     36  CA        20.5140   -1.0810    7.5660 C.3    61  HIS61       0.1752
     37  C         19.1370   -1.7170    7.7400 C.2    61  HIS61       0.2595
     38  O         18.9900   -2.7640    8.3740 O.2    61  HIS61      -0.2718
     39  CB        20.7740   -0.0690    8.6840 C.3    61  HIS61       0.0759
     40  CG        22.0920    0.6340    8.5550 C.ar   61  HIS61       0.0818
     41  ND1       22.1990    1.9510    8.1660 N.ar   61  HIS61      -0.2268
     42  CD2       23.3600    0.1860    8.7220 C.ar   61  HIS61       0.1154
     43  CE1       23.4770    2.2850    8.0980 C.ar   61  HIS61       0.1986
     44  NE2       24.2020    1.2320    8.4320 N.ar   61  HIS61      -0.2212
     45  N         18.1300   -1.0660    7.1670 N.am   62  ALA62      -0.1980
     46  CA        16.7500   -1.5320    7.2080 C.3    62  ALA62       0.1597
     47  C         16.0240   -0.6460    6.1980 C.2    62  ALA62       0.2287
     48  O         16.6720    0.0130    5.3830 O.2    62  ALA62      -0.2864
     49  CB        16.1670   -1.3280    8.6120 C.3    62  ALA62       0.0319
     50  N         12.9230    2.3460    5.9000 N.3    64  ASN64      -0.1240
     51  CA        12.0790    3.2360    6.6830 C.3    64  ASN64       0.1653
     52  C         10.9100    3.7620    5.8760 C.2    64  ASN64       0.2266
     53  O         11.0630    4.1200    4.7110 O.2    64  ASN64      -0.2867
     54  CB        12.8650    4.4590    7.1640 C.3    64  ASN64       0.1155
     55  CG        13.9360    4.1200    8.1680 C.2    64  ASN64       0.2627
     56  OD1       14.6260    5.0120    8.6550 O.2    64  ASN64      -0.2716
     57  ND2       14.0910    2.8450    8.4850 N.am   64  ASN64      -0.0877
     58  N          7.3210   10.0520   12.9240 N.3    88  ILE88      -0.1231
     59  CA         8.1750   10.5000   11.8300 C.3    88  ILE88       0.1692
     60  C          8.5430    9.3570   10.8870 C.2    88  ILE88       0.2591
     61  O          8.7340    9.5720    9.6920 O.2    88  ILE88      -0.2718
     62  CB         9.4610   11.2050   12.3600 C.3    88  ILE88       0.0266
     63  CG1       10.3600   11.6050   11.1820 C.3    88  ILE88       0.0019
     64  CG2       10.2090   10.3020   13.3270 C.3    88  ILE88       0.0020
     65  CD1       11.5570   12.4500   11.5810 C.3    88  ILE88       0.0001
     66  N          8.6230    8.1370   11.4120 N.am   89  GLN89      -0.1979
     67  CA         8.9590    6.9880   10.5780 C.3    89  GLN89       0.1601
     68  C          8.7940    5.6770   11.3280 C.2    89  GLN89       0.2287
     69  O          8.6740    5.6680   12.5510 O.2    89  GLN89      -0.2864
     70  CB        10.4110    7.0840   10.0940 C.3    89  GLN89       0.0394
     71  CG        11.4480    7.0600   11.2200 C.3    89  GLN89       0.0908
     72  CD        12.2080    5.7410   11.3250 C.2    89  GLN89       0.2608
     73  OE1       11.6150    4.6570   11.3440 O.2    89  GLN89      -0.2717
     74  NE2       13.5310    5.8290   11.4090 N.am   89  GLN89      -0.0878
     75  N         10.1200    1.3270   10.9960 N.3    91  HIS91      -0.1241
     76  CA        10.9980    0.3790   10.3340 C.3    91  HIS91       0.1621
     77  C         10.9400   -0.8920   11.1570 C.2    91  HIS91       0.2264
     78  O         10.2970   -0.9310   12.2110 O.2    91  HIS91      -0.2867
     79  CB        12.4360    0.8930   10.3220 C.3    91  HIS91       0.0745
     80  CG        12.9580    1.2090   11.6860 C.ar   91  HIS91       0.0817
     81  ND1       12.6630    2.3870   12.3380 N.ar   91  HIS91      -0.2268
     82  CD2       13.6820    0.4650   12.5570 C.ar   91  HIS91       0.1154
     83  CE1       13.1780    2.3550   13.5540 C.ar   91  HIS91       0.1986
     84  NE2       13.8010    1.2010   13.7110 N.ar   91  HIS91      -0.2212
     85  N         13.2060   -4.7030   12.4160 N.3    93  HIS93      -0.1241
     86  CA        14.4580   -5.4060   12.6800 C.3    93  HIS93       0.1621
     87  C         14.0140   -6.8610   12.5540 C.2    93  HIS93       0.2264
     88  O         12.9870   -7.2410   13.1240 O.2    93  HIS93      -0.2867
     89  CB        14.9430   -5.1340   14.1050 C.3    93  HIS93       0.0745
     90  CG        15.3250   -3.7090   14.3430 C.ar   93  HIS93       0.0817
     91  ND1       16.5990   -3.2330   14.1260 N.ar   93  HIS93      -0.2268
     92  CD2       14.5910   -2.6460   14.7500 C.ar   93  HIS93       0.1154
     93  CE1       16.6370   -1.9410   14.3920 C.ar   93  HIS93       0.1986
     94  NE2       15.4320   -1.5590   14.7710 N.ar   93  HIS93      -0.2212
     95  N          9.2980   -0.8170   14.9140 N.3   116  HIS116     -0.1241
     96  CA         9.5270    0.3660   15.7170 C.3   116  HIS116      0.1621
     97  C          8.8730    1.5680   15.0540 C.2   116  HIS116      0.2264
     98  O          9.2230    1.9230   13.9260 O.2   116  HIS116     -0.2867
     99  CB        11.0310    0.6290   15.8740 C.3   116  HIS116      0.0745
    100  CG        11.7240   -0.3590   16.7600 C.ar  116  HIS116      0.0817
    101  ND1       13.0940   -0.5210   16.7720 N.ar  116  HIS116     -0.2268
    102  CD2       11.2340   -1.2350   17.6680 C.ar  116  HIS116      0.1154
    103  CE1       13.4170   -1.4580   17.6480 C.ar  116  HIS116      0.1986
    104  NE2       12.3060   -1.9060   18.2060 N.ar  116  HIS116     -0.2212
    105  N          8.6540    5.3340   15.3740 N.3   118  VAL118     -0.1245
    106  CA         9.3790    6.4220   16.0210 C.3   118  VAL118      0.1561
    107  C          8.6380    7.7620   16.0460 C.2   118  VAL118      0.2260
    108  O          8.1590    8.2300   15.0150 O.2   118  VAL118     -0.2867
    109  CB        10.7290    6.6380   15.3310 C.3   118  VAL118      0.0252
    110  CG1       11.5720    7.5940   16.1480 C.3   118  VAL118      0.0019
    111  CG2       11.4440    5.3050   15.1480 C.3   118  VAL118      0.0019
    112  N         13.0730   17.0260   14.9720 N.3   127  PHE127     -0.1227
    113  CA        13.6650   15.7460   15.3370 C.3   127  PHE127      0.1736
    114  C         15.1090   15.8680   15.8190 C.2   127  PHE127      0.2596
    115  O         15.4910   15.2630   16.8200 O.2   127  PHE127     -0.2718
    116  CB        13.6060   14.7990   14.1400 C.3   127  PHE127      0.0547
    117  CG        14.1940   13.4570   14.4130 C.ar  127  PHE127     -0.0202
    118  CD1       13.4840   12.5100   15.1410 C.ar  127  PHE127     -0.0042
    119  CD2       15.4740   13.1460   13.9660 C.ar  127  PHE127     -0.0042
    120  CE1       14.0410   11.2710   15.4200 C.ar  127  PHE127     -0.0003
    121  CE2       16.0430   11.9110   14.2410 C.ar  127  PHE127     -0.0003
    122  CZ        15.3270   10.9740   14.9690 C.ar  127  PHE127     -0.0000
    123  N         15.9040   16.6510   15.0910 N.am  128  GLY128     -0.1957
    124  CA        17.3020   16.8380   15.4480 C.3   128  GLY128      0.1869
    125  C         17.5260   17.3700   16.8520 C.2   128  GLY128      0.2309
    126  O         18.4760   16.9680   17.5220 O.2   128  GLY128     -0.2863
    127  N         16.4160   14.4980   19.6810 N.3   131  VAL131     -0.1245
    128  CA        17.3280   13.3980   20.0000 C.3   131  VAL131      0.1561
    129  C         18.4230   13.8000   20.9860 C.2   131  VAL131      0.2260
    130  O         19.1550   12.9510   21.4880 O.2   131  VAL131     -0.2867
    131  CB        17.9860   12.8060   18.7270 C.3   131  VAL131      0.0252
    132  CG1       16.9150   12.2780   17.7960 C.3   131  VAL131      0.0019
    133  CG2       18.8350   13.8550   18.0310 C.3   131  VAL131      0.0019
    134  N         12.3960   11.3270   22.3540 N.3   137  LEU137     -0.1245
    135  CA        11.6760   10.3880   21.5050 C.3   137  LEU137      0.1561
    136  C         10.8640    9.3800   22.2920 C.2   137  LEU137      0.2260
    137  O         11.1430    9.0950   23.4590 O.2   137  LEU137     -0.2867
    138  CB        12.6540    9.6070   20.6160 C.3   137  LEU137      0.0270
    139  CG        13.6480   10.3550   19.7220 C.3   137  LEU137      0.0019
    140  CD1       14.4790    9.3440   18.9560 C.3   137  LEU137      0.0001
    141  CD2       12.9180   11.2710   18.7560 C.3   137  LEU137      0.0001
    142  N          9.3660    5.5780   21.2860 N.3   139  VAL139     -0.1245
    143  CA         9.3050    4.5590   20.2510 C.3   139  VAL139      0.1561
    144  C          8.3530    3.4610   20.6840 C.2   139  VAL139      0.2260
    145  O          8.4730    2.9270   21.7840 O.2   139  VAL139     -0.2867
    146  CB        10.6980    3.9410   19.9600 C.3   139  VAL139      0.0252
    147  CG1       10.5920    2.9300   18.8170 C.3   139  VAL139      0.0019
    148  CG2       11.6880    5.0450   19.5980 C.3   139  VAL139      0.0019
    149  N         18.4610    4.7460   21.3880 N.3   194  LEU194     -0.1231
    150  CA        18.2650    4.3000   20.0150 C.3   194  LEU194      0.1693
    151  C         19.0280    2.9820   20.0230 C.2   194  LEU194      0.2593
    152  O         20.0060    2.8480   20.7650 O.2   194  LEU194     -0.2718
    153  CB        18.9460    5.2550   19.0340 C.3   194  LEU194      0.0284
    154  CG        18.5710    6.7280   19.1370 C.3   194  LEU194      0.0019
    155  CD1       19.3840    7.5470   18.1330 C.3   194  LEU194      0.0001
    156  CD2       17.0880    6.8730   18.8950 C.3   194  LEU194      0.0001
    157  N         18.6030    2.0190   19.2130 N.am  195  THR195     -0.1939
    158  CA        19.2880    0.7260   19.1680 C.3   195  THR195      0.2028
    159  C         20.3320    0.6320   18.0610 C.2   195  THR195      0.2643
    160  O         20.9030   -0.4400   17.8230 O.2   195  THR195     -0.2714
    161  CB        18.2920   -0.4340   19.0070 C.3   195  THR195      0.1808
    162  OG1       17.6520   -0.3340   17.7320 O.3   195  THR195     -0.2208
    163  CG2       17.2400   -0.3920   20.1150 C.3   195  THR195      0.0379
    164  N         20.5680    1.7450   17.3700 N.am  196  THR196     -0.1937
    165  CA        21.5860    1.8040   16.3220 C.3   196  THR196      0.2013
    166  C         22.3900    3.0760   16.5250 C.2   196  THR196      0.2484
    167  O         21.9050    4.0380   17.1240 O.2   196  THR196     -0.2729
    168  CB        20.9890    1.9040   14.9190 C.3   196  THR196      0.1807
    169  OG1       20.1540    3.0680   14.8570 O.3   196  THR196     -0.2208
    170  CG2       20.1800    0.6550   14.5720 C.3   196  THR196      0.0379
    171  N         23.6340    3.0960   16.0320 N.am  197  PRO197     -0.2715
    172  CA        24.4510    4.3010   16.1840 C.3   197  PRO197      0.1521
    173  C         23.6160    5.4680   15.6830 C.2   197  PRO197      0.2440
    174  O         22.8610    5.3390   14.7130 O.2   197  PRO197     -0.2731
    175  CB        25.6430    4.0110   15.2860 C.3   197  PRO197      0.0310
    176  CG        25.8400    2.5380   15.4930 C.3   197  PRO197      0.0237
    177  CD        24.4130    1.9990   15.4320 C.3   197  PRO197      0.0939
    178  N         23.7590    6.6310   16.3110 N.am  198  PRO198     -0.2727
    179  CA        24.5970    7.0610   17.4440 C.3   198  PRO198      0.1402
    180  C         24.1990    6.5910   18.8500 C.2   198  PRO198      0.2269
    181  O         24.7870    7.0340   19.8340 O.2   198  PRO198     -0.2865
    182  CB        24.5390    8.5630   17.3350 C.3   198  PRO198      0.0296
    183  CG        23.1970    8.6830   17.0140 C.3   198  PRO198      0.0237
    184  CD        22.9840    7.7800   15.8470 C.3   198  PRO198      0.0939
    185  N         21.9320    7.3200   20.9130 N.3   200  LEU200     -0.1245
    186  CA        21.5760    8.3780   21.8530 C.3   200  LEU200      0.1561
    187  C         20.5460    7.9210   22.8890 C.2   200  LEU200      0.2260
    188  O         19.5920    7.2080   22.5690 O.2   200  LEU200     -0.2867
    189  CB        21.0660    9.5930   21.0760 C.3   200  LEU200      0.0270
    190  CG        22.0530   10.1210   20.0220 C.3   200  LEU200      0.0019
    191  CD1       21.4100   11.2420   19.2220 C.3   200  LEU200      0.0001
    192  CD2       23.3230   10.6080   20.7090 C.3   200  LEU200      0.0001
    193  N         10.8270    4.0230   25.8230 N.3   205  TRP205     -0.1241
    194  CA        10.3450    2.8440   25.1300 C.3   205  TRP205      0.1605
    195  C          8.9850    2.3770   25.6180 C.2   205  TRP205      0.2264
    196  O          8.7280    2.3150   26.8230 O.2   205  TRP205     -0.2867
    197  CB        11.3560    1.6890   25.2580 C.3   205  TRP205      0.0550
    198  CG        12.4950    1.8110   24.3010 C.ar  205  TRP205      0.0003
    199  CD1       13.7110    2.4030   24.5280 C.ar  205  TRP205      0.0946
    200  CD2       12.4940    1.4090   22.9260 C.ar  205  TRP205      0.0152
    201  NE1       14.4590    2.3980   23.3720 N.ar  205  TRP205     -0.2442
    202  CE2       13.7350    1.7940   22.3760 C.ar  205  TRP205      0.0810
    203  CE3       11.5600    0.7600   22.1050 C.ar  205  TRP205      0.0012
    204  CZ2       14.0670    1.5530   21.0380 C.ar  205  TRP205      0.0191
    205  CZ3       11.8920    0.5220   20.7750 C.ar  205  TRP205      0.0001
    206  CH2       13.1350    0.9190   20.2570 C.ar  205  TRP205      0.0015
@<TRIPOS>BOND
     1    27    28    1
     2    28    29    1
     3    28    31    1
     4    29    30    2
     5    53    52    2
     6    31    32    1
     7    48    47    2
     8    52    51    1
     9    50    51    1
    10    47    46    1
    11    35    36    1
    12    32    33    2
    13    32    34   am
    14    51    54    1
    15    54    55    1
    16    45    46    1
    17    45    37   am
    18    46    49    1
    19    36    37    1
    20    36    39    1
    21    37    38    2
    22    43    41   ar
    23    43    44   ar
    24    41    40   ar
    25    55    57   am
    26    55    56    2
    27    44    42   ar
    28    40    39    1
    29    40    42   ar
    30     4     3    2
    31    61    60    2
    32    70    67    1
    33    70    71    1
    34    79    76    1
    35    79    80    1
    36    76    75    1
    37    76    77    1
    38     1     2    1
    39     3     2    1
    40    67    68    1
    41    67    66    1
    42    60    66   am
    43    60    59    1
    44    15    16    1
    45    22    24   ar
    46    22    20   ar
    47    77    78    2
    48    63    65    1
    49    63    62    1
    50    71    72    1
    51     2     5    1
    52    72    73    2
    53    72    74   am
    54    68    69    2
    55    17    16    1
    56    17    18    2
    57    19    16    1
    58    19    20    1
    59     9    10   ar
    60     9     7   ar
    61    24    25   ar
    62    12    10   ar
    63    12    14   ar
    64    80    81   ar
    65    80    82   ar
    66    10     8   ar
    67     7     6   ar
    68    59    62    1
    69    59    58    1
    70    14    13   ar
    71    20    21   ar
    72     8     6   ar
    73     8    11   ar
    74     6     5    1
    75    13    11   ar
    76    81    83   ar
    77    62    64    1
    78    85    86    1
    79    87    86    1
    80    87    88    2
    81    82    84   ar
    82    86    89    1
    83    25    26    1
    84    25    23   ar
    85    21    23   ar
    86    83    84   ar
    87    98    97    2
    88   119   121   ar
    89   119   117   ar
    90    89    90    1
    91    91    90   ar
    92    91    93   ar
    93   116   117    1
    94   116   113    1
    95   121   122   ar
    96    90    92   ar
    97    93    94   ar
    98   117   118   ar
    99   170   168    1
   100   174   173    2
   101    92    94   ar
   102   169   168    1
   103    95    96    1
   104   168   165    1
   105   122   120   ar
   106   112   113    1
   107   108   107    2
   108    97    96    1
   109   123   124    1
   110   123   114   am
   111   118   120   ar
   112   111   109    1
   113   175   176    1
   114   175   172    1
   115   109   106    1
   116   109   110    1
   117   113   114    1
   118   105   106    1
   119   177   176    1
   120   177   171    1
   121   124   125    1
   122   173   172    1
   123   173   178   am
   124    96    99    1
   125   114   115    2
   126   184   178    1
   127   184   183    1
   128    99   100    1
   129   106   107    1
   130   171   172    1
   131   171   166   am
   132   178   179    1
   133   165   166    1
   134   165   164    1
   135   166   167    2
   136   100   101   ar
   137   100   102   ar
   138   101   103   ar
   139   125   126    2
   140   183   182    1
   141   182   179    1
   142   164   159   am
   143   179   180    1
   144   103   104   ar
   145   102   104   ar
   146   162   161    1
   147   132   131    1
   148   160   159    2
   149   133   131    1
   150   159   158    1
   151   155   154    1
   152   131   128    1
   153   141   139    1
   154   147   146    1
   155   180   181    2
   156   156   154    1
   157   140   139    1
   158   161   158    1
   159   161   163    1
   160   153   154    1
   161   153   150    1
   162   158   157    1
   163   157   151   am
   164   191   190    1
   165   148   146    1
   166   127   128    1
   167   139   138    1
   168   146   143    1
   169   128   129    1
   170   150   151    1
   171   150   149    1
   172   190   192    1
   173   190   189    1
   174   151   152    2
   175   143   144    1
   176   143   142    1
   177   206   205   ar
   178   206   204   ar
   179   138   135    1
   180   144   145    2
   181   205   203   ar
   182   185   186    1
   183   129   130    2
   184   204   202   ar
   185   189   186    1
   186   135   136    1
   187   135   134    1
   188   186   187    1
   189   203   200   ar
   190   136   137    2
   191   202   200   ar
   192   202   201   ar
   193   188   187    2
   194   200   198   ar
   195   201   199   ar
   196   198   199   ar
   197   198   197    1
   198   194   197    1
   199   194   195    1
   200   194   193    1
   201   195   196    2
