@<TRIPOS>MOLECULE
tmp/3hkoA00.pdb
 163 153 0 0 0
SMALL
GASTEIGER

@<TRIPOS>ATOM
      1  N         15.7980  -20.6160  -35.4330 N.3    21  ILE21      -0.1231
      2  CA        16.7840  -20.5460  -34.3440 C.3    21  ILE21       0.1692
      3  C         16.4950  -21.6030  -33.2640 C.2    21  ILE21       0.2593
      4  O         17.2740  -21.7990  -32.3120 O.2    21  ILE21      -0.2718
      5  CB        16.8920  -19.1050  -33.7700 C.3    21  ILE21       0.0266
      6  CG1       18.2050  -18.9310  -32.9840 C.3    21  ILE21       0.0019
      7  CG2       15.6140  -18.7180  -32.9710 C.3    21  ILE21       0.0020
      8  CD1       18.4840  -17.5270  -32.5180 C.3    21  ILE21       0.0001
      9  N         15.3780  -22.3010  -33.4270 N.am   22  GLY22      -0.1942
     10  CA        15.0640  -23.4250  -32.5670 C.3    22  GLY22       0.2014
     11  C         13.8200  -24.1340  -33.0440 C.2    22  GLY22       0.2639
     12  O         13.1050  -23.6340  -33.9040 O.2    22  GLY22      -0.2714
     13  N         13.5770  -25.3100  -32.4810 N.am   23  GLN23      -0.1963
     14  CA        12.3460  -26.0370  -32.7150 C.3    23  GLN23       0.1733
     15  C         11.7830  -26.5000  -31.3790 C.2    23  GLN23       0.2617
     16  O         12.5160  -27.0420  -30.5410 O.2    23  GLN23      -0.2715
     17  CB        12.6000  -27.2340  -33.6260 C.3    23  GLN23       0.0408
     18  CG        11.4060  -28.1700  -33.7890 C.3    23  GLN23       0.0908
     19  CD        11.8370  -29.5850  -34.1010 C.2    23  GLN23       0.2608
     20  OE1       12.5530  -29.8270  -35.0780 O.2    23  GLN23      -0.2717
     21  NE2       11.4010  -30.5400  -33.2710 N.am   23  GLN23      -0.0878
     22  N         10.4920  -26.2450  -31.1730 N.am   24  GLY24      -0.1940
     23  CA         9.7850  -26.7430  -30.0030 C.3    24  GLY24       0.2014
     24  C          8.9120  -27.9270  -30.3810 C.2    24  GLY24       0.2640
     25  O          8.9980  -28.4480  -31.4960 O.2    24  GLY24      -0.2714
     26  N          8.0700  -28.3490  -29.4450 N.am   25  SER25      -0.1935
     27  CA         7.1850  -29.4990  -29.6410 C.3    25  SER25       0.2055
     28  C          6.0980  -29.2360  -30.6880 C.2    25  SER25       0.2643
     29  O          5.5590  -30.1700  -31.2940 O.2    25  SER25      -0.2714
     30  CB         6.5120  -29.8600  -28.3110 C.3    25  SER25       0.2130
     31  OG         7.4700  -30.1690  -27.3090 O.3    25  SER25      -0.2179
     32  N          5.7710  -27.9610  -30.8830 N.am   26  TYR26      -0.1973
     33  CA         4.6100  -27.5830  -31.6800 C.3    26  TYR26       0.1639
     34  C          4.9600  -26.7810  -32.9260 C.2    26  TYR26       0.2290
     35  O          4.0790  -26.4290  -33.7140 O.2    26  TYR26      -0.2864
     36  CB         3.5890  -26.8460  -30.7950 C.3    26  TYR26       0.0560
     37  CG         3.1980  -27.6530  -29.5770 C.ar   26  TYR26      -0.0198
     38  CD1        2.6320  -28.9220  -29.7200 C.ar   26  TYR26      -0.0009
     39  CD2        3.4040  -27.1640  -28.2840 C.ar   26  TYR26      -0.0009
     40  CE1        2.2780  -29.6800  -28.6170 C.ar   26  TYR26       0.0417
     41  CE2        3.0390  -27.9200  -27.1610 C.ar   26  TYR26       0.0417
     42  CZ         2.4800  -29.1760  -27.3440 C.ar   26  TYR26       0.1957
     43  OH         2.1140  -29.9510  -26.2660 O.3    26  TYR26      -0.2866
     44  N         10.8790  -21.8710  -34.0240 N.3    29  VAL29      -0.1245
     45  CA        11.0610  -20.4740  -33.6670 C.3    29  VAL29       0.1561
     46  C         11.9470  -19.8690  -34.7710 C.2    29  VAL29       0.2260
     47  O         13.0420  -20.3790  -35.0460 O.2    29  VAL29      -0.2867
     48  CB        11.7100  -20.3260  -32.2560 C.3    29  VAL29       0.0252
     49  CG1       11.9650  -18.8650  -31.9270 C.3    29  VAL29       0.0019
     50  CG2       10.8270  -20.9910  -31.1690 C.3    29  VAL29       0.0019
     51  N         12.2130  -12.9080  -32.5010 N.3    42  ALA42      -0.1245
     52  CA        11.9790  -14.3430  -32.6070 C.3    42  ALA42       0.1562
     53  C         10.4790  -14.5320  -32.6780 C.2    42  ALA42       0.2260
     54  O          9.7430  -13.9510  -31.8800 O.2    42  ALA42      -0.2867
     55  CB        12.5340  -15.0670  -31.4000 C.3    42  ALA42       0.0290
     56  N          7.7200  -17.4470  -32.4360 N.3    44  LYS44      -0.1245
     57  CA         7.5030  -18.8260  -32.0570 C.3    44  LYS44       0.1561
     58  C          6.1980  -19.2520  -32.6870 C.2    44  LYS44       0.2260
     59  O          5.1520  -18.6540  -32.4290 O.2    44  LYS44      -0.2867
     60  CB         7.4560  -18.9720  -30.5280 C.3    44  LYS44       0.0271
     61  CG         7.1610  -20.3940  -30.0650 C.3    44  LYS44       0.0035
     62  CD         7.3230  -20.5790  -28.5670 C.3    44  LYS44       0.0206
     63  CE         6.8650  -21.9680  -28.1470 C.3    44  LYS44       0.1093
     64  NZ         6.9530  -22.2040  -26.6670 N.3    44  LYS44      -0.1314
     65  N          1.5590  -19.1180  -19.9410 N.3    62  GLU62      -0.1245
     66  CA         2.8570  -18.6340  -20.4000 C.3    62  GLU62       0.1567
     67  C          2.7050  -17.3400  -21.2070 C.2    62  GLU62       0.2260
     68  O          3.4070  -16.3650  -20.9520 O.2    62  GLU62      -0.2867
     69  CB         3.5880  -19.7120  -21.2150 C.3    62  GLU62       0.0388
     70  CG         4.9370  -19.2630  -21.7760 C.3    62  GLU62       0.1160
     71  CD         5.8480  -20.4160  -22.1730 C.2    62  GLU62       0.3649
     72  OE1        5.3460  -21.4870  -22.5970 O.co2  62  GLU62      -0.2457
     73  OE2        7.0780  -20.2390  -22.0660 O.co2  62  GLU62      -0.2457
     74  N         12.7670  -12.5030  -21.3030 N.3    75  ALA75      -0.1245
     75  CA        12.4580  -12.2310  -22.7140 C.3    75  ALA75       0.1562
     76  C         11.0460  -11.6520  -22.8410 C.2    75  ALA75       0.2260
     77  O         10.0810  -12.2020  -22.2920 O.2    75  ALA75      -0.2867
     78  CB        12.6160  -13.5020  -23.5690 C.3    75  ALA75       0.0290
     79  N          8.4430  -12.3800  -30.0230 N.3    91  MET91      -0.1230
     80  CA         9.2050  -12.0950  -28.8100 C.3    91  MET91       0.1702
     81  C         10.5820  -11.5320  -29.0720 C.2    91  MET91       0.2592
     82  O         11.0510  -11.4770  -30.2120 O.2    91  MET91      -0.2718
     83  CB         9.3180  -13.3300  -27.9100 C.3    91  MET91       0.0401
     84  CG         9.6250  -14.6150  -28.5940 C.3    91  MET91       0.0596
     85  SD         9.3010  -16.0060  -27.4900 S.3    91  MET91      -0.1393
     86  CE         7.7320  -15.4700  -26.7970 C.3    91  MET91       0.0692
     87  N         11.1960  -11.0970  -27.9810 N.am   92  GLU92      -0.1966
     88  CA        12.5660  -10.6400  -27.9550 C.3    92  GLU92       0.1733
     89  C         13.4610  -11.7910  -28.3900 C.2    92  GLU92       0.2616
     90  O         13.3190  -12.9080  -27.9020 O.2    92  GLU92      -0.2715
     91  CB        12.8970  -10.2120  -26.5240 C.3    92  GLU92       0.0429
     92  CG        14.1420   -9.3820  -26.3870 C.3    92  GLU92       0.1163
     93  CD        14.3290   -8.8560  -24.9660 C.2    92  GLU92       0.3649
     94  OE1       13.4870   -9.1250  -24.0690 O.co2  92  GLU92      -0.2457
     95  OE2       15.3400   -8.1690  -24.7460 O.co2  92  GLU92      -0.2457
     96  N         14.3650  -11.5190  -29.3220 N.am   93  LEU93      -0.1963
     97  CA        15.2560  -12.5480  -29.8270 C.3    93  LEU93       0.1728
     98  C         16.5260  -12.6360  -28.9910 C.2    93  LEU93       0.2616
     99  O         17.1610  -11.6240  -28.6890 O.2    93  LEU93      -0.2715
    100  CB        15.6200  -12.2750  -31.2940 C.3    93  LEU93       0.0311
    101  CG        16.6630  -13.1910  -31.9410 C.3    93  LEU93       0.0022
    102  CD1       16.1350  -14.6030  -32.1170 C.3    93  LEU93       0.0001
    103  CD2       17.0660  -12.6150  -33.2830 C.3    93  LEU93       0.0001
    104  N         16.8850  -13.8620  -28.6350 N.am   94  CYS94      -0.1968
    105  CA        18.1570  -14.1350  -27.9830 C.3    94  CYS94       0.1712
    106  C         19.0610  -14.8300  -28.9860 C.2    94  CYS94       0.2296
    107  O         18.7120  -15.8920  -29.5050 O.2    94  CYS94      -0.2864
    108  CB        17.9340  -15.0150  -26.7580 C.3    94  CYS94       0.0983
    109  SG        16.8790  -14.2540  -25.5000 S.3    94  CYS94      -0.0798
    110  N         22.2250  -18.4390  -27.6640 N.3    97  GLY97      -0.1210
    111  CA        22.0370  -19.8580  -27.3630 C.3    97  GLY97       0.1956
    112  C         21.7800  -20.0530  -25.8860 C.2    97  GLY97       0.2611
    113  O         21.7720  -19.0780  -25.1150 O.2    97  GLY97      -0.2717
    114  N         21.5650  -21.3000  -25.4720 N.am   98  HIS98      -0.1975
    115  CA        21.2970  -21.6530  -24.0810 C.3    98  HIS98       0.1656
    116  C         22.5140  -21.4240  -23.1890 C.2    98  HIS98       0.2291
    117  O         23.6530  -21.3930  -23.6820 O.2    98  HIS98      -0.2864
    118  CB        20.8640  -23.1230  -23.9950 C.3    98  HIS98       0.0771
    119  CG        19.6100  -23.4290  -24.7540 C.ar   98  HIS98       0.0820
    120  ND1       18.3750  -23.5120  -24.1480 N.ar   98  HIS98      -0.2267
    121  CD2       19.3970  -23.6570  -26.0720 C.ar   98  HIS98       0.1154
    122  CE1       17.4570  -23.7820  -25.0590 C.ar   98  HIS98       0.1986
    123  NE2       18.0520  -23.8730  -26.2340 N.ar   98  HIS98      -0.2212
    124  N         16.0270  -23.7430  -14.5960 N.3   177  LYS177     -0.1245
    125  CA        17.0390  -24.7030  -15.0390 C.3   177  LYS177      0.1561
    126  C         17.8090  -24.0670  -16.2040 C.2   177  LYS177      0.2260
    127  O         17.2990  -23.1330  -16.8280 O.2   177  LYS177     -0.2867
    128  CB        16.3990  -26.0410  -15.4330 C.3   177  LYS177      0.0271
    129  CG        15.4020  -25.9480  -16.5840 C.3   177  LYS177      0.0035
    130  CD        14.7720  -27.2910  -16.9260 C.3   177  LYS177      0.0206
    131  CE        13.8700  -27.1370  -18.1340 C.3   177  LYS177      0.1093
    132  NZ        13.3880  -28.4380  -18.7010 N.3   177  LYS177     -0.1314
    133  N         16.3260  -23.0210  -19.7050 N.3   180  ASN180     -0.1240
    134  CA        15.3600  -21.9160  -19.7800 C.3   180  ASN180      0.1653
    135  C         15.9480  -20.5070  -19.7830 C.2   180  ASN180      0.2266
    136  O         15.2020  -19.5210  -19.8610 O.2   180  ASN180     -0.2867
    137  CB        14.2670  -22.0790  -18.7140 C.3   180  ASN180      0.1155
    138  CG        13.3320  -23.2260  -19.0370 C.2   180  ASN180      0.2627
    139  OD1       13.2270  -23.6340  -20.1930 O.2   180  ASN180     -0.2716
    140  ND2       12.6580  -23.7530  -18.0320 N.am  180  ASN180     -0.0877
    141  N         18.6360  -18.0250  -21.9040 N.3   182  LEU182     -0.1245
    142  CA        19.3750  -17.8410  -23.1460 C.3   182  LEU182      0.1561
    143  C         20.2330  -16.5940  -23.0500 C.2   182  LEU182      0.2260
    144  O         19.8350  -15.5970  -22.4410 O.2   182  LEU182     -0.2867
    145  CB        18.4050  -17.6910  -24.3420 C.3   182  LEU182      0.0270
    146  CG        17.3210  -18.7390  -24.6050 C.3   182  LEU182      0.0019
    147  CD1       16.4530  -18.3700  -25.8190 C.3   182  LEU182      0.0001
    148  CD2       17.9160  -20.1230  -24.8300 C.3   182  LEU182      0.0001
    149  N         13.3430  -17.3800  -20.6750 N.3   194  VAL194     -0.1231
    150  CA        12.5330  -17.4250  -21.9110 C.3   194  VAL194      0.1692
    151  C         11.3480  -18.3790  -21.8900 C.2   194  VAL194      0.2592
    152  O         10.6380  -18.5080  -22.8960 O.2   194  VAL194     -0.2718
    153  CB        13.3960  -17.7400  -23.1600 C.3   194  VAL194      0.0266
    154  CG1       14.4630  -16.6660  -23.3590 C.3   194  VAL194      0.0020
    155  CG2       14.0120  -19.1550  -23.0630 C.3   194  VAL194      0.0020
    156  N         11.1280  -19.0340  -20.7530 N.am  195  ASP195     -0.1974
    157  CA        10.1170  -20.0840  -20.6570 C.3   195  ASP195      0.1709
    158  C          9.3030  -19.9110  -19.3810 C.2   195  ASP195      0.2293
    159  O          9.8850  -19.7900  -18.2980 O.2   195  ASP195     -0.2864
    160  CB        10.8170  -21.4400  -20.6400 C.3   195  ASP195      0.1436
    161  CG         9.8830  -22.5890  -20.9480 C.2   195  ASP195      0.3671
    162  OD1        8.9410  -22.8350  -20.1750 O.co2 195  ASP195     -0.2456
    163  OD2       10.1030  -23.2510  -21.9790 O.co2 195  ASP195     -0.2456
@<TRIPOS>BOND
     1     1     2    1
     2    20    19    2
     3    47    46    2
     4    46    45    1
     5     2     5    1
     6     2     3    1
     7    19    18    1
     8    19    21   am
     9    44    45    1
    10    12    11    2
    11    18    17    1
    12     5     6    1
    13     5     7    1
    14    35    34    2
    15    45    48    1
    16    17    14    1
    17     9     3   am
    18     9    10    1
    19   103   101    1
    20     3     4    2
    21    11    10    1
    22    11    13   am
    23     6     8    1
    24    34    33    1
    25    14    13    1
    26    14    15    1
    27    58    59    2
    28    58    57    1
    29    53    52    1
    30    53    54    2
    31    52    51    1
    32    52    55    1
    33    56    57    1
    34    48    49    1
    35    48    50    1
    36   102   101    1
    37    57    60    1
    38   101   100    1
    39    33    32    1
    40    33    36    1
    41    25    24    2
    42    15    22   am
    43    15    16    2
    44   100    97    1
    45    29    28    2
    46    22    23    1
    47    32    28   am
    48    36    37    1
    49    28    27    1
    50    60    61    1
    51    24    23    1
    52    24    26   am
    53    82    81    2
    54    61    62    1
    55    79    80    1
    56    97    96    1
    57    97    98    1
    58    38    37   ar
    59    38    40   ar
    60    27    26    1
    61    27    30    1
    62    37    39   ar
    63   107   106    2
    64    96    89   am
    65    81    80    1
    66    81    87   am
    67    98    99    2
    68    98   104   am
    69   106   105    1
    70    80    83    1
    71   104   105    1
    72    40    42   ar
    73    84    83    1
    74    84    85    1
    75    62    63    1
    76    89    88    1
    77    89    90    2
    78    30    31    1
    79    39    41   ar
    80    63    64    1
    81   105   108    1
    82    87    88    1
    83    88    91    1
    84   110   111    1
    85    85    86    1
    86   111   112    1
    87    42    41   ar
    88    42    43    1
    89   108   109    1
    90    91    92    1
    91    92    93    1
    92   123   121   ar
    93   123   122   ar
    94   121   119   ar
    95   112   114   am
    96   112   113    2
    97   147   146    1
    98   114   115    1
    99   122   120   ar
   100    93    95   ar
   101    93    94   ar
   102   148   146    1
   103   119   120   ar
   104   119   118    1
   105   146   145    1
   106   145   142    1
   107   115   118    1
   108   115   116    1
   109   117   116    2
   110    78    75    1
   111   154   153    1
   112   153   155    1
   113   153   150    1
   114   142   143    1
   115   142   141    1
   116   143   144    2
   117   152   151    2
   118    76    75    1
   119    76    77    2
   120    75    74    1
   121    72    71   ar
   122    71    73   ar
   123    71    70    1
   124   163   161   ar
   125   150   151    1
   126   150   149    1
   127   151   156   am
   128    70    69    1
   129    69    66    1
   130    67    68    2
   131    67    66    1
   132   161   160    1
   133   161   162   ar
   134   156   157    1
   135   157   160    1
   136   157   158    1
   137    66    65    1
   138   139   138    2
   139   136   135    2
   140   135   134    1
   141   134   133    1
   142   134   137    1
   143   158   159    2
   144   138   137    1
   145   138   140   am
   146   132   131    1
   147   131   130    1
   148   130   129    1
   149   127   126    2
   150   129   128    1
   151   126   125    1
   152   128   125    1
   153   125   124    1
