@<TRIPOS>MOLECULE
tmp/3hkpA00.pdb
 122 117 0 0 0
SMALL
GASTEIGER

@<TRIPOS>ATOM
      1  N          0.5640   -5.0240   26.6960 N.3    53  LEU53      -0.1245
      2  CA        -0.1450   -4.5080   25.5670 C.3    53  LEU53       0.1561
      3  C         -0.7880   -3.1280   25.9110 C.2    53  LEU53       0.2260
      4  O         -0.4970   -2.1150   25.2470 O.2    53  LEU53      -0.2867
      5  CB        -1.1840   -5.5410   25.1370 C.3    53  LEU53       0.0270
      6  CG        -2.2340   -4.9580   24.1670 C.3    53  LEU53       0.0019
      7  CD1       -1.6050   -4.8300   22.8420 C.3    53  LEU53       0.0001
      8  CD2       -3.4580   -5.8700   24.0820 C.3    53  LEU53       0.0001
      9  N          1.9890   -0.2060   26.9550 N.3    56  ASP56      -0.1225
     10  CA         2.7580    0.2460   25.7870 C.3    56  ASP56       0.1805
     11  C          1.9350    1.0990   24.8140 C.2    56  ASP56       0.2597
     12  O          2.4470    2.0710   24.2480 O.2    56  ASP56      -0.2718
     13  CB         3.5390   -0.9000   25.1090 C.3    56  ASP56       0.1424
     14  CG         4.6020   -1.5180   26.0150 C.2    56  ASP56       0.3668
     15  OD1        4.7740   -1.0770   27.1860 O.co2  56  ASP56      -0.2456
     16  OD2        5.2660   -2.5030   25.5760 O.co2  56  ASP56      -0.2456
     17  N          0.6500    0.7780   24.6550 N.am   57  VAL57      -0.1980
     18  CA        -0.1990    1.6350   23.8580 C.3    57  VAL57       0.1595
     19  C         -0.4820    2.9680   24.5220 C.2    57  VAL57       0.2287
     20  O         -0.2680    4.0410   23.9150 O.2    57  VAL57      -0.2864
     21  CB        -1.5590    0.9850   23.4850 C.3    57  VAL57       0.0276
     22  CG1       -2.4450    2.0120   22.7450 C.3    57  VAL57       0.0022
     23  CG2       -1.3430   -0.2220   22.6150 C.3    57  VAL57       0.0022
     24  N          8.3640    4.5180   21.2050 N.3    78  ILE78      -0.1245
     25  CA         8.1310    3.4610   22.1620 C.3    78  ILE78       0.1561
     26  C          8.7390    2.1790   21.6200 C.2    78  ILE78       0.2260
     27  O          8.8510    2.0190   20.4050 O.2    78  ILE78      -0.2867
     28  CB         6.6320    3.2930   22.4740 C.3    78  ILE78       0.0252
     29  CG1        5.8300    2.9070   21.2270 C.3    78  ILE78       0.0019
     30  CG2        6.0770    4.6010   23.0660 C.3    78  ILE78       0.0019
     31  CD1        4.3370    2.7240   21.4780 C.3    78  ILE78       0.0001
     32  N          7.2120   -0.8330   22.5340 N.3    80  GLY80      -0.1210
     33  CA         6.0750   -1.7610   22.3340 C.3    80  GLY80       0.1940
     34  C          6.4940   -3.0980   22.9660 C.2    80  GLY80       0.2454
     35  O          7.5910   -3.2160   23.5220 O.2    80  GLY80      -0.2732
     36  N          5.5990   -4.0790   22.9650 N.am   81  PRO81      -0.2717
     37  CA         5.7930   -5.2950   23.7370 C.3    81  PRO81       0.1535
     38  C          6.4810   -6.4800   23.0350 C.2    81  PRO81       0.2598
     39  O          6.6130   -7.5420   23.6480 O.2    81  PRO81      -0.2715
     40  CB         4.3630   -5.6360   24.1450 C.3    81  PRO81       0.0310
     41  CG         3.6030   -5.2850   22.9050 C.3    81  PRO81       0.0237
     42  CD         4.2730   -4.0600   22.3200 C.3    81  PRO81       0.0939
     43  N          6.9850   -6.2930   21.8200 N.am   82  TYR82      -0.1974
     44  CA         7.3730   -7.3860   20.9650 C.3    82  TYR82       0.1639
     45  C          8.8260   -7.3900   20.5920 C.2    82  TYR82       0.2290
     46  O          9.1940   -8.1150   19.6680 O.2    82  TYR82      -0.2864
     47  CB         6.5360   -7.4780   19.6570 C.3    82  TYR82       0.0560
     48  CG         5.0580   -7.5510   19.8720 C.ar   82  TYR82      -0.0198
     49  CD1        4.2100   -6.6850   19.2030 C.ar   82  TYR82      -0.0009
     50  CD2        4.5000   -8.4820   20.7590 C.ar   82  TYR82      -0.0009
     51  CE1        2.8380   -6.7280   19.4000 C.ar   82  TYR82       0.0417
     52  CE2        3.1350   -8.5390   20.9630 C.ar   82  TYR82       0.0417
     53  CZ         2.3150   -7.6510   20.2880 C.ar   82  TYR82       0.1957
     54  OH         0.9570   -7.7250   20.4770 O.3    82  TYR82      -0.2866
     55  N          3.5760  -10.5590   14.6350 N.3   138  TYR138     -0.1241
     56  CA         4.9670  -10.5830   15.0790 C.3   138  TYR138      0.1605
     57  C          5.3730  -12.0190   15.4210 C.2   138  TYR138      0.2264
     58  O          4.7020  -12.7070   16.2010 O.2   138  TYR138     -0.2867
     59  CB         5.1860   -9.7070   16.3140 C.3   138  TYR138      0.0534
     60  CG         5.1390   -8.1850   16.0160 C.ar  138  TYR138     -0.0201
     61  CD1        3.9180   -7.4850   15.9900 C.ar  138  TYR138     -0.0009
     62  CD2        6.3030   -7.4700   15.7980 C.ar  138  TYR138     -0.0009
     63  CE1        3.8600   -6.1170   15.7110 C.ar  138  TYR138      0.0417
     64  CE2        6.2610   -6.0900   15.5130 C.ar  138  TYR138      0.0417
     65  CZ         5.0330   -5.4150   15.4840 C.ar  138  TYR138      0.1957
     66  OH         5.0150   -4.0450   15.2680 O.3   138  TYR138     -0.2866
     67  N         -1.0410   -1.6350   11.4260 N.3   172  TYR172     -0.1241
     68  CA        -1.0120   -2.6440   12.4490 C.3   172  TYR172      0.1605
     69  C         -2.2140   -2.5020   13.4080 C.2   172  TYR172      0.2264
     70  O         -2.3510   -1.4840   14.0810 O.2   172  TYR172     -0.2867
     71  CB         0.3320   -2.5750   13.2260 C.3   172  TYR172      0.0534
     72  CG         0.3030   -3.4720   14.3810 C.ar  172  TYR172     -0.0201
     73  CD1        0.0330   -2.9880   15.6760 C.ar  172  TYR172     -0.0009
     74  CD2        0.4580   -4.8540   14.1990 C.ar  172  TYR172     -0.0009
     75  CE1       -0.0520   -3.8740   16.7720 C.ar  172  TYR172      0.0417
     76  CE2        0.3620   -5.7250   15.2710 C.ar  172  TYR172      0.0417
     77  CZ         0.1180   -5.2290   16.5460 C.ar  172  TYR172      0.1957
     78  OH         0.0210   -6.1080   17.5750 O.3   172  TYR172     -0.2866
     79  N         -4.1540   -3.3500   16.7850 N.3   174  ILE174     -0.1245
     80  CA        -3.9190   -3.9200   18.1050 C.3   174  ILE174      0.1561
     81  C         -4.9390   -5.0620   18.3730 C.2   174  ILE174      0.2260
     82  O         -6.0710   -4.9930   17.9170 O.2   174  ILE174     -0.2867
     83  CB        -3.7780   -2.8330   19.2380 C.3   174  ILE174      0.0252
     84  CG1       -5.0850   -2.2710   19.6610 C.3   174  ILE174      0.0019
     85  CG2       -2.7210   -1.7310   18.9240 C.3   174  ILE174      0.0019
     86  CD1       -4.9970   -1.7830   21.1190 C.3   174  ILE174      0.0001
     87  N         -2.5030    1.2070   14.5240 N.3   193  ARG193     -0.1245
     88  CA        -1.2640    1.9410   14.4290 C.3   193  ARG193      0.1563
     89  C         -0.9010    2.1040   12.9280 C.2   193  ARG193      0.2260
     90  O         -1.2390    1.2230   12.1340 O.2   193  ARG193     -0.2867
     91  CB        -0.1370    1.1850   15.1380 C.3   193  ARG193      0.0307
     92  CG        -0.2820    0.9490   16.6860 C.3   193  ARG193      0.0489
     93  CD         1.0560    0.9010   17.4000 C.3   193  ARG193      0.2205
     94  NE         1.7330    2.1940   17.2250 N.pl3 193  ARG193     -0.0865
     95  CZ         3.0280    2.3650   16.9660 C.cat 193  ARG193      0.5346
     96  NH1        3.8810    1.3370   16.9400 N.pl3 193  ARG193      0.1354
     97  NH2        3.4710    3.6060   16.7620 N.pl3 193  ARG193      0.1354
     98  N          4.7700    0.4070   10.4870 N.3   196  HIS196     -0.1241
     99  CA         5.9910    0.8280   11.1310 C.3   196  HIS196      0.1621
    100  C          7.0610   -0.2520   11.1730 C.2   196  HIS196      0.2264
    101  O          6.7600   -1.4760   11.2230 O.2   196  HIS196     -0.2867
    102  CB         5.7130    1.3580   12.5770 C.3   196  HIS196      0.0745
    103  CG         5.0550    0.3620   13.4710 C.ar  196  HIS196      0.0817
    104  ND1        3.6980    0.1150   13.4590 N.ar  196  HIS196     -0.2268
    105  CD2        5.5870   -0.4890   14.3800 C.ar  196  HIS196      0.1154
    106  CE1        3.4150   -0.8310   14.3460 C.ar  196  HIS196      0.1986
    107  NE2        4.5420   -1.2040   14.9320 N.ar  196  HIS196     -0.2212
    108  N         10.2290   -1.2760   13.8080 N.3   198  HIS198     -0.1241
    109  CA        10.8510   -1.0540   15.1240 C.3   198  HIS198      0.1621
    110  C         12.3590   -1.2110   15.0280 C.2   198  HIS198      0.2264
    111  O         12.8500   -2.1810   14.4130 O.2   198  HIS198     -0.2867
    112  CB        10.3980   -2.1190   16.1030 C.3   198  HIS198      0.0745
    113  CG         8.9960   -1.9680   16.5520 C.ar  198  HIS198      0.0817
    114  ND1        8.6410   -1.1150   17.5730 N.ar  198  HIS198     -0.2268
    115  CD2        7.8620   -2.5850   16.1530 C.ar  198  HIS198      0.1154
    116  CE1        7.3360   -1.2020   17.7710 C.ar  198  HIS198      0.1986
    117  NE2        6.8430   -2.0800   16.9210 N.ar  198  HIS198     -0.2212
    118  N         -1.4480    4.5140   19.7830 N.3   226  ALA226     -0.1245
    119  CA        -0.3410    4.5580   20.7460 C.3   226  ALA226      0.1562
    120  C          0.2920    5.9400   20.9070 C.2   226  ALA226      0.2260
    121  O          1.2170    6.1090   21.7210 O.2   226  ALA226     -0.2867
    122  CB         0.7010    3.5760   20.3610 C.3   226  ALA226      0.0290
@<TRIPOS>BOND
     1    98    99    1
     2    99   100    1
     3    99   102    1
     4   100   101    2
     5    67    68    1
     6    90    89    2
     7    68    71    1
     8    68    69    1
     9   102   103    1
    10    89    88    1
    11    71    72    1
    12    69    70    2
    13   104   103   ar
    14   104   106   ar
    15   103   105   ar
    16   108   109    1
    17    74    72   ar
    18    74    76   ar
    19   106   107   ar
    20   105   107   ar
    21    72    73   ar
    22   111   110    2
    23    88    87    1
    24    88    91    1
    25    55    56    1
    26   110   109    1
    27    56    57    1
    28    56    59    1
    29   109   112    1
    30    91    92    1
    31    66    65    1
    32    76    77   ar
    33    57    58    2
    34    65    64   ar
    35    65    63   ar
    36    64    62   ar
    37    73    75   ar
    38    63    61   ar
    39    62    60   ar
    40    61    60   ar
    41    60    59    1
    42   112   113    1
    43   115   113   ar
    44   115   117   ar
    45    77    75   ar
    46    77    78    1
    47   113   114   ar
    48    92    93    1
    49    97    95    1
    50    79    80    1
    51   117   116   ar
    52    96    95    1
    53    95    94    2
    54    94    93    1
    55   114   116   ar
    56    82    81    2
    57    80    81    1
    58    80    83    1
    59    85    83    1
    60    49    51   ar
    61    49    48   ar
    62    83    84    1
    63    51    53   ar
    64    47    48    1
    65    47    44    1
    66    84    86    1
    67    46    45    2
    68   118   119    1
    69    48    50   ar
    70    53    54    1
    71    53    52   ar
    72   122   119    1
    73    27    26    2
    74    45    44    1
    75   119   120    1
    76    50    52   ar
    77   120   121    2
    78    44    43    1
    79    24    25    1
    80    29    31    1
    81    29    28    1
    82    26    25    1
    83    43    38   am
    84    25    28    1
    85    42    41    1
    86    42    36    1
    87    33    32    1
    88    33    34    1
    89    28    30    1
    90    23    21    1
    91    22    21    1
    92     7     6    1
    93    41    40    1
    94    36    34   am
    95    36    37    1
    96    34    35    2
    97    38    39    2
    98    38    37    1
    99    21    18    1
   100    37    40    1
   101    18    19    1
   102    18    17    1
   103    20    19    2
   104     8     6    1
   105     6     5    1
   106    12    11    2
   107    17    11   am
   108    11    10    1
   109    13    10    1
   110    13    14    1
   111     5     2    1
   112     4     3    2
   113     2     3    1
   114     2     1    1
   115    16    14   ar
   116    10     9    1
   117    14    15   ar
