@<TRIPOS>MOLECULE
tmp/3hkqA00.pdb
 137 133 0 0 0
SMALL
GASTEIGER

@<TRIPOS>ATOM
      1  N         17.8780    2.1120    3.6470 N.3    59  ASN59      -0.1240
      2  CA        19.0390    2.8860    4.0820 C.3    59  ASN59       0.1653
      3  C         20.3120    2.0800    4.3080 C.2    59  ASN59       0.2266
      4  O         21.2860    2.6000    4.8550 O.2    59  ASN59      -0.2867
      5  CB        18.7110    3.6760    5.3560 C.3    59  ASN59       0.1155
      6  CG        18.3250    2.7810    6.5130 C.2    59  ASN59       0.2627
      7  OD1       18.8270    1.6680    6.6450 O.2    59  ASN59      -0.2716
      8  ND2       17.4380    3.2730    7.3730 N.am   59  ASN59      -0.0877
      9  N         12.9950    2.3170    5.9390 N.3    64  ASN64      -0.1240
     10  CA        12.1570    3.2240    6.7090 C.3    64  ASN64       0.1653
     11  C         10.9680    3.7130    5.8980 C.2    64  ASN64       0.2266
     12  O         11.0960    3.9950    4.7100 O.2    64  ASN64      -0.2867
     13  CB        12.9430    4.4710    7.1370 C.3    64  ASN64       0.1155
     14  CG        14.0420    4.1710    8.1300 C.2    64  ASN64       0.2627
     15  OD1       14.8240    5.0570    8.4850 O.2    64  ASN64      -0.2716
     16  ND2       14.1120    2.9310    8.5870 N.am   64  ASN64      -0.0877
     17  N          8.6170    8.1040   11.4580 N.3    89  GLN89      -0.1245
     18  CA         8.9510    6.9590   10.6190 C.3    89  GLN89       0.1566
     19  C          8.7990    5.6540   11.3650 C.2    89  GLN89       0.2260
     20  O          8.6900    5.6420   12.5870 O.2    89  GLN89      -0.2867
     21  CB        10.4030    7.0510   10.1330 C.3    89  GLN89       0.0367
     22  CG        11.4350    7.0420   11.2620 C.3    89  GLN89       0.0905
     23  CD        12.2120    5.7370   11.3590 C.2    89  GLN89       0.2608
     24  OE1       11.6330    4.6510   11.3840 O.2    89  GLN89      -0.2717
     25  NE2       13.5350    5.8420   11.4230 N.am   89  GLN89      -0.0878
     26  N         10.1480    1.3140   11.0520 N.3    91  HIS91      -0.1241
     27  CA        11.0290    0.3690   10.3880 C.3    91  HIS91       0.1621
     28  C         10.9770   -0.9090   11.1990 C.2    91  HIS91       0.2264
     29  O         10.3420   -0.9560   12.2560 O.2    91  HIS91      -0.2867
     30  CB        12.4610    0.9010   10.3730 C.3    91  HIS91       0.0745
     31  CG        13.0010    1.1810   11.7380 C.ar   91  HIS91       0.0817
     32  ND1       12.7410    2.3520   12.4170 N.ar   91  HIS91      -0.2268
     33  CD2       13.7190    0.4070   12.5840 C.ar   91  HIS91       0.1154
     34  CE1       13.2710    2.2850   13.6250 C.ar   91  HIS91       0.1986
     35  NE2       13.8690    1.1150   13.7500 N.ar   91  HIS91      -0.2212
     36  N         13.2370   -4.7390   12.4230 N.3    93  HIS93      -0.1241
     37  CA        14.4870   -5.4470   12.6740 C.3    93  HIS93       0.1621
     38  C         14.0380   -6.8950   12.5260 C.2    93  HIS93       0.2264
     39  O         12.9860   -7.2670   13.0430 O.2    93  HIS93      -0.2867
     40  CB        14.9840   -5.2060   14.0980 C.3    93  HIS93       0.0745
     41  CG        15.3610   -3.7880   14.3680 C.ar   93  HIS93       0.0817
     42  ND1       16.6320   -3.3020   14.1470 N.ar   93  HIS93      -0.2268
     43  CD2       14.6230   -2.7360   14.7930 C.ar   93  HIS93       0.1154
     44  CE1       16.6610   -2.0130   14.4270 C.ar   93  HIS93       0.1986
     45  NE2       15.4560   -1.6450   14.8200 N.ar   93  HIS93      -0.2212
     46  N          9.3040   -0.8670   14.9040 N.3   116  HIS116     -0.1241
     47  CA         9.5620    0.3140   15.7140 C.3   116  HIS116      0.1621
     48  C          8.9140    1.5290   15.0670 C.2   116  HIS116      0.2264
     49  O          9.2680    1.8930   13.9430 O.2   116  HIS116     -0.2867
     50  CB        11.0720    0.5690   15.8470 C.3   116  HIS116      0.0745
     51  CG        11.7660   -0.4020   16.7500 C.ar  116  HIS116      0.0817
     52  ND1       13.1360   -0.5460   16.7840 N.ar  116  HIS116     -0.2268
     53  CD2       11.2720   -1.2800   17.6540 C.ar  116  HIS116      0.1154
     54  CE1       13.4570   -1.4740   17.6690 C.ar  116  HIS116      0.1986
     55  NE2       12.3440   -1.9360   18.2100 N.ar  116  HIS116     -0.2212
     56  N          8.7050    5.3010   15.4050 N.3   118  VAL118     -0.1245
     57  CA         9.4470    6.3890   16.0370 C.3   118  VAL118      0.1561
     58  C          8.7020    7.7250   16.0820 C.2   118  VAL118      0.2260
     59  O          8.2220    8.2060   15.0590 O.2   118  VAL118     -0.2867
     60  CB        10.7870    6.5940   15.3110 C.3   118  VAL118      0.0252
     61  CG1       11.6550    7.5860   16.0730 C.3   118  VAL118      0.0019
     62  CG2       11.5040    5.2570   15.1600 C.3   118  VAL118      0.0019
     63  N         13.1020   16.9770   15.0260 N.3   127  PHE127     -0.1241
     64  CA        13.7200   15.7060   15.3870 C.3   127  PHE127      0.1605
     65  C         15.1690   15.8440   15.8470 C.2   127  PHE127      0.2264
     66  O         15.5720   15.2390   16.8440 O.2   127  PHE127     -0.2867
     67  CB        13.6600   14.7480   14.1950 C.3   127  PHE127      0.0534
     68  CG        14.2230   13.3920   14.4830 C.ar  127  PHE127     -0.0203
     69  CD1       13.4690   12.4410   15.1650 C.ar  127  PHE127     -0.0042
     70  CD2       15.5180   13.0680   14.0950 C.ar  127  PHE127     -0.0042
     71  CE1       13.9990   11.1840   15.4570 C.ar  127  PHE127     -0.0003
     72  CE2       16.0580   11.8150   14.3830 C.ar  127  PHE127     -0.0003
     73  CZ        15.2950   10.8710   15.0660 C.ar  127  PHE127     -0.0000
     74  N         16.4580   14.4460   19.7080 N.3   131  VAL131     -0.1245
     75  CA        17.3750   13.3540   20.0320 C.3   131  VAL131      0.1561
     76  C         18.4750   13.7630   21.0080 C.2   131  VAL131      0.2260
     77  O         19.2300   12.9210   21.5010 O.2   131  VAL131     -0.2867
     78  CB        18.0160   12.7500   18.7550 C.3   131  VAL131      0.0252
     79  CG1       16.9300   12.2460   17.8310 C.3   131  VAL131      0.0019
     80  CG2       18.8850   13.7840   18.0520 C.3   131  VAL131      0.0019
     81  N          9.3850    5.5140   21.3080 N.3   139  VAL139     -0.1245
     82  CA         9.3240    4.4960   20.2710 C.3   139  VAL139      0.1561
     83  C          8.3830    3.3970   20.7060 C.2   139  VAL139      0.2260
     84  O          8.4980    2.8730   21.8090 O.2   139  VAL139     -0.2867
     85  CB        10.7080    3.8740   19.9650 C.3   139  VAL139      0.0252
     86  CG1       10.5800    2.8720   18.8260 C.3   139  VAL139      0.0019
     87  CG2       11.6940    4.9670   19.5780 C.3   139  VAL139      0.0019
     88  N         18.4940    4.7240   21.4230 N.3   194  LEU194     -0.1231
     89  CA        18.3170    4.2810   20.0460 C.3   194  LEU194      0.1693
     90  C         19.0850    2.9640   20.0430 C.2   194  LEU194      0.2593
     91  O         20.0740    2.8290   20.7690 O.2   194  LEU194     -0.2718
     92  CB        19.0040    5.2470   19.0820 C.3   194  LEU194      0.0284
     93  CG        18.5000    6.6840   19.0420 C.3   194  LEU194      0.0019
     94  CD1       19.4060    7.5120   18.1300 C.3   194  LEU194      0.0001
     95  CD2       17.0650    6.6990   18.5520 C.3   194  LEU194      0.0001
     96  N         18.6570    2.0010   19.2330 N.am  195  THR195     -0.1939
     97  CA        19.3480    0.7170   19.1850 C.3   195  THR195      0.2028
     98  C         20.3850    0.6250   18.0650 C.2   195  THR195      0.2643
     99  O         20.9600   -0.4450   17.8250 O.2   195  THR195     -0.2714
    100  CB        18.3630   -0.4550   19.0310 C.3   195  THR195      0.1808
    101  OG1       17.7290   -0.3750   17.7530 O.3   195  THR195     -0.2208
    102  CG2       17.3110   -0.4250   20.1340 C.3   195  THR195      0.0379
    103  N         20.6040    1.7340   17.3650 N.am  196  THR196     -0.1937
    104  CA        21.6120    1.7960   16.3090 C.3   196  THR196      0.2013
    105  C         22.4290    3.0540   16.5430 C.2   196  THR196      0.2484
    106  O         21.9660    3.9900   17.1930 O.2   196  THR196     -0.2729
    107  CB        20.9950    1.9250   14.9030 C.3   196  THR196      0.1807
    108  OG1       20.1110    3.0530   14.8740 O.3   196  THR196     -0.2208
    109  CG2       20.2280    0.6660   14.5290 C.3   196  THR196      0.0379
    110  N         23.6660    3.0870   16.0310 N.am  197  PRO197     -0.2715
    111  CA        24.4860    4.2890   16.2210 C.3   197  PRO197      0.1521
    112  C         23.6520    5.4610   15.6990 C.2   197  PRO197      0.2440
    113  O         22.9200    5.3060   14.7160 O.2   197  PRO197     -0.2731
    114  CB        25.7040    4.0030   15.3510 C.3   197  PRO197      0.0310
    115  CG        25.8810    2.5300   15.5270 C.3   197  PRO197      0.0237
    116  CD        24.4490    1.9950   15.4260 C.3   197  PRO197      0.0939
    117  N         23.7700    6.6500   16.3120 N.am  198  PRO198     -0.2727
    118  CA        24.6010    7.0630   17.4500 C.3   198  PRO198      0.1402
    119  C         24.2410    6.5730   18.8590 C.2   198  PRO198      0.2269
    120  O         24.8340    7.0290   19.8360 O.2   198  PRO198     -0.2865
    121  CB        24.5700    8.5830   17.3470 C.3   198  PRO198      0.0296
    122  CG        23.1840    8.8360   16.8810 C.3   198  PRO198      0.0237
    123  CD        23.0070    7.8010   15.7900 C.3   198  PRO198      0.0939
    124  N         10.8380    3.9700   25.8280 N.3   205  TRP205     -0.1241
    125  CA        10.3460    2.8070   25.1160 C.3   205  TRP205      0.1605
    126  C          8.9990    2.3460   25.6210 C.2   205  TRP205      0.2264
    127  O          8.7550    2.2900   26.8270 O.2   205  TRP205     -0.2867
    128  CB        11.3400    1.6420   25.2230 C.3   205  TRP205      0.0550
    129  CG        12.4880    1.7800   24.2930 C.ar  205  TRP205      0.0003
    130  CD1       13.7010    2.3510   24.5550 C.ar  205  TRP205      0.0946
    131  CD2       12.5230    1.3680   22.9240 C.ar  205  TRP205      0.0152
    132  NE1       14.4900    2.3170   23.4280 N.ar  205  TRP205     -0.2442
    133  CE2       13.7900    1.7180   22.4140 C.ar  205  TRP205      0.0810
    134  CE3       11.6010    0.7340   22.0770 C.ar  205  TRP205      0.0012
    135  CZ2       14.1640    1.4570   21.0930 C.ar  205  TRP205      0.0191
    136  CZ3       11.9740    0.4720   20.7650 C.ar  205  TRP205      0.0001
    137  CH2       13.2440    0.8330   20.2860 C.ar  205  TRP205      0.0015
@<TRIPOS>BOND
     1     1     2    1
     2     2     3    1
     3     2     5    1
     4     3     4    2
     5    12    11    2
     6     5     6    1
     7    11    10    1
     8     9    10    1
     9     6     7    2
    10     6     8   am
    11    10    13    1
    12    13    14    1
    13    14    15    2
    14    14    16   am
    15    21    18    1
    16    21    22    1
    17    30    27    1
    18    30    31    1
    19    27    26    1
    20    27    28    1
    21    18    19    1
    22    18    17    1
    23    28    29    2
    24    22    23    1
    25    23    24    2
    26    23    25   am
    27    19    20    2
    28    31    32   ar
    29    31    33   ar
    30    32    34   ar
    31    36    37    1
    32    38    37    1
    33    38    39    2
    34    33    35   ar
    35    37    40    1
    36    34    35   ar
    37    49    48    2
    38    70    72   ar
    39    70    68   ar
    40    40    41    1
    41    42    41   ar
    42    42    44   ar
    43    67    68    1
    44    67    64    1
    45    41    43   ar
    46    72    73   ar
    47    44    45   ar
    48    68    69   ar
    49   109   107    1
    50   113   112    2
    51    43    45   ar
    52   108   107    1
    53   107   104    1
    54    46    47    1
    55    63    64    1
    56    59    58    2
    57    73    71   ar
    58    48    47    1
    59    62    60    1
    60    69    71   ar
    61    60    57    1
    62    60    61    1
    63   114   115    1
    64   114   111    1
    65    64    65    1
    66    56    57    1
    67   116   115    1
    68   116   110    1
    69   112   111    1
    70   112   117   am
    71    47    50    1
    72   123   117    1
    73   123   122    1
    74    65    66    2
    75    50    51    1
    76   110   111    1
    77   110   105   am
    78    57    58    1
    79   104   105    1
    80   104   103    1
    81   117   118    1
    82   105   106    2
    83    51    52   ar
    84    51    53   ar
    85    52    54   ar
    86   122   121    1
    87   121   118    1
    88   103    98   am
    89   118   119    1
    90    53    55   ar
    91    54    55   ar
    92   101   100    1
    93    99    98    2
    94    79    78    1
    95    80    78    1
    96    98    97    1
    97    94    93    1
    98    95    93    1
    99    78    75    1
   100    86    85    1
   101   119   120    2
   102   100    97    1
   103   100   102    1
   104    93    92    1
   105    92    89    1
   106    97    96    1
   107    96    90   am
   108    87    85    1
   109    74    75    1
   110    85    82    1
   111    75    76    1
   112    90    89    1
   113    90    91    2
   114    89    88    1
   115    82    83    1
   116    82    81    1
   117   137   136   ar
   118   137   135   ar
   119    83    84    2
   120   136   134   ar
   121    76    77    2
   122   135   133   ar
   123   134   131   ar
   124   133   131   ar
   125   133   132   ar
   126   131   129   ar
   127   132   130   ar
   128   129   130   ar
   129   129   128    1
   130   125   128    1
   131   125   126    1
   132   125   124    1
   133   126   127    2
