@<TRIPOS>MOLECULE
tmp/3hktA00.pdb
 161 157 0 0 0
SMALL
GASTEIGER

@<TRIPOS>ATOM
      1  N         17.9010    1.9430    3.4980 N.3    59  ASN59      -0.1240
      2  CA        19.0500    2.7180    3.9330 C.3    59  ASN59       0.1653
      3  C         20.3060    1.8590    4.1700 C.2    59  ASN59       0.2266
      4  O         21.2510    2.3080    4.7870 O.2    59  ASN59      -0.2867
      5  CB        18.6760    3.5930    5.1530 C.3    59  ASN59       0.1155
      6  CG        18.3310    2.7600    6.4020 C.2    59  ASN59       0.2627
      7  OD1       18.7060    1.6030    6.5040 O.2    59  ASN59      -0.2716
      8  ND2       17.6340    3.3550    7.3400 N.am   59  ASN59      -0.0877
      9  N         20.5320   -0.5430    6.2230 N.3    61  HIS61      -0.1226
     10  CA        20.4200   -1.1400    7.5790 C.3    61  HIS61       0.1752
     11  C         19.0540   -1.7560    7.7900 C.2    61  HIS61       0.2595
     12  O         18.9290   -2.7800    8.4750 O.2    61  HIS61      -0.2718
     13  CB        20.6640   -0.1060    8.6730 C.3    61  HIS61       0.0759
     14  CG        21.9220    0.6800    8.4790 C.ar   61  HIS61       0.0818
     15  ND1       21.9230    2.0400    8.2320 N.ar   61  HIS61      -0.2268
     16  CD2       23.2300    0.2890    8.4710 C.ar   61  HIS61       0.1154
     17  CE1       23.1790    2.4510    8.1010 C.ar   61  HIS61       0.1986
     18  NE2       23.9870    1.4110    8.2530 N.ar   61  HIS61      -0.2212
     19  N         18.0410   -1.1130    7.1990 N.am   62  ALA62      -0.1980
     20  CA        16.6520   -1.5430    7.2690 C.3    62  ALA62       0.1597
     21  C         15.9070   -0.7970    6.1590 C.2    62  ALA62       0.2287
     22  O         16.5400   -0.2620    5.2630 O.2    62  ALA62      -0.2864
     23  CB        16.0560   -1.2280    8.6680 C.3    62  ALA62       0.0319
     24  N         12.7830    2.2580    5.8010 N.3    64  ASN64      -0.1240
     25  CA        11.9840    3.2070    6.5260 C.3    64  ASN64       0.1653
     26  C         10.7700    3.6640    5.7280 C.2    64  ASN64       0.2266
     27  O         10.9110    4.1570    4.5910 O.2    64  ASN64      -0.2867
     28  CB        12.8280    4.4350    6.8500 C.3    64  ASN64       0.1155
     29  CG        14.0680    4.1000    7.6430 C.2    64  ASN64       0.2627
     30  OD1       15.1450    4.6540    7.3760 O.2    64  ASN64      -0.2716
     31  ND2       13.9500    3.1870    8.6020 N.am   64  ASN64      -0.0877
     32  N          7.1240   10.0890   12.6460 N.3    88  ILE88      -0.1231
     33  CA         8.0140   10.4440   11.5420 C.3    88  ILE88       0.1692
     34  C          8.3230    9.2310   10.6440 C.2    88  ILE88       0.2591
     35  O          8.4940    9.3900    9.4710 O.2    88  ILE88      -0.2718
     36  CB         9.3040   11.1920   12.0620 C.3    88  ILE88       0.0266
     37  CG1       10.2850   11.4850   10.9140 C.3    88  ILE88       0.0019
     38  CG2        9.9690   10.4540   13.2200 C.3    88  ILE88       0.0020
     39  CD1       11.4500   12.5000   11.2370 C.3    88  ILE88       0.0001
     40  N          8.3720    8.0180   11.1830 N.am   89  GLN89      -0.1979
     41  CA         8.7670    6.8500   10.3740 C.3    89  GLN89       0.1601
     42  C          8.5270    5.5680   11.1410 C.2    89  GLN89       0.2287
     43  O          8.4530    5.6070   12.3480 O.2    89  GLN89      -0.2864
     44  CB        10.2230    6.9390    9.8320 C.3    89  GLN89       0.0394
     45  CG        11.3260    6.9790   10.9390 C.3    89  GLN89       0.0908
     46  CD        12.0730    5.6450   11.1300 C.2    89  GLN89       0.2608
     47  OE1       11.4870    4.5560   11.0910 O.2    89  GLN89      -0.2717
     48  NE2       13.3890    5.7400   11.3340 N.am   89  GLN89      -0.0878
     49  N          9.9140    1.2540   10.9410 N.3    91  HIS91      -0.1241
     50  CA        10.7680    0.2680   10.3310 C.3    91  HIS91       0.1621
     51  C         10.7320   -0.9960   11.1940 C.2    91  HIS91       0.2264
     52  O         10.1130   -1.0330   12.2790 O.2    91  HIS91      -0.2867
     53  CB        12.1950    0.8030   10.2800 C.3    91  HIS91       0.0745
     54  CG        12.7480    1.0830   11.6350 C.ar   91  HIS91       0.0817
     55  ND1       12.6300    2.3050   12.2550 N.ar   91  HIS91      -0.2268
     56  CD2       13.3780    0.2750   12.5140 C.ar   91  HIS91       0.1154
     57  CE1       13.1930    2.2460   13.4490 C.ar   91  HIS91       0.1986
     58  NE2       13.6700    1.0250   13.6210 N.ar   91  HIS91      -0.2212
     59  N         13.1290   -4.7420   12.4490 N.3    93  HIS93      -0.1241
     60  CA        14.3570   -5.4990   12.6800 C.3    93  HIS93       0.1621
     61  C         13.9050   -6.9490   12.6490 C.2    93  HIS93       0.2264
     62  O         12.8510   -7.2600   13.1980 O.2    93  HIS93      -0.2867
     63  CB        14.9410   -5.1510   14.0450 C.3    93  HIS93       0.0745
     64  CG        15.1800   -3.6810   14.2330 C.ar   93  HIS93       0.0817
     65  ND1       16.4040   -3.0870   13.9880 N.ar   93  HIS93      -0.2268
     66  CD2       14.3500   -2.6850   14.6320 C.ar   93  HIS93       0.1154
     67  CE1       16.3170   -1.7910   14.2390 C.ar   93  HIS93       0.1986
     68  NE2       15.0810   -1.5200   14.6180 N.ar   93  HIS93      -0.2212
     69  N          9.1970   -0.9400   14.8510 N.3   116  HIS116     -0.1241
     70  CA         9.3620    0.3310   15.5920 C.3   116  HIS116      0.1621
     71  C          8.7130    1.5140   14.9250 C.2   116  HIS116      0.2264
     72  O          9.0340    1.8770   13.7830 O.2   116  HIS116     -0.2867
     73  CB        10.8390    0.6610   15.8180 C.3   116  HIS116      0.0745
     74  CG        11.5600   -0.3300   16.6930 C.ar  116  HIS116      0.0817
     75  ND1       12.9230   -0.5420   16.6150 N.ar  116  HIS116     -0.2268
     76  CD2       11.1100   -1.1440   17.6750 C.ar  116  HIS116      0.1154
     77  CE1       13.2760   -1.4420   17.5180 C.ar  116  HIS116      0.1986
     78  NE2       12.1950   -1.8330   18.1640 N.ar  116  HIS116     -0.2212
     79  N          8.3710    5.4210   15.1800 N.3   118  VAL118     -0.1245
     80  CA         9.2290    6.3980   15.8370 C.3   118  VAL118      0.1561
     81  C          8.5270    7.7590   15.8940 C.2   118  VAL118      0.2260
     82  O          8.0840    8.2770   14.8530 O.2   118  VAL118     -0.2867
     83  CB        10.6390    6.5180   15.1450 C.3   118  VAL118      0.0252
     84  CG1       11.5160    7.5870   15.8530 C.3   118  VAL118      0.0019
     85  CG2       11.3770    5.1760   15.1250 C.3   118  VAL118      0.0019
     86  N         12.9560   16.9740   14.7480 N.3   127  PHE127     -0.1241
     87  CA        13.5640   15.6700   15.1370 C.3   127  PHE127      0.1605
     88  C         15.0240   15.8110   15.6310 C.2   127  PHE127      0.2264
     89  O         15.4220   15.1920   16.6390 O.2   127  PHE127     -0.2867
     90  CB        13.4860   14.6560   13.9700 C.3   127  PHE127      0.0534
     91  CG        14.0760   13.3090   14.2820 C.ar  127  PHE127     -0.0203
     92  CD1       13.3010   12.3040   14.8640 C.ar  127  PHE127     -0.0042
     93  CD2       15.4140   13.0270   13.9830 C.ar  127  PHE127     -0.0042
     94  CE1       13.8690   11.0410   15.1640 C.ar  127  PHE127     -0.0003
     95  CE2       15.9950   11.7860   14.2970 C.ar  127  PHE127     -0.0003
     96  CZ        15.2340   10.7920   14.8780 C.ar  127  PHE127     -0.0000
     97  N         12.1820   11.4100   22.2480 N.3   137  LEU137     -0.1245
     98  CA        11.5280   10.4380   21.3850 C.3   137  LEU137      0.1561
     99  C         10.6610    9.4570   22.1600 C.2   137  LEU137      0.2260
    100  O         10.9030    9.1460   23.3250 O.2   137  LEU137     -0.2867
    101  CB        12.5490    9.6760   20.4930 C.3   137  LEU137      0.0270
    102  CG        13.5010   10.3100   19.4450 C.3   137  LEU137      0.0019
    103  CD1       14.1780    9.1910   18.6300 C.3   137  LEU137      0.0001
    104  CD2       12.8720   11.3140   18.5130 C.3   137  LEU137      0.0001
    105  N          9.1520    5.5940   21.1100 N.3   139  VAL139     -0.1245
    106  CA         9.1040    4.5900   20.0460 C.3   139  VAL139      0.1561
    107  C          8.1410    3.5150   20.5130 C.2   139  VAL139      0.2260
    108  O          8.2730    3.0250   21.6240 O.2   139  VAL139     -0.2867
    109  CB        10.5380    4.0250   19.6470 C.3   139  VAL139      0.0252
    110  CG1       10.4540    3.0690   18.4740 C.3   139  VAL139      0.0019
    111  CG2       11.5170    5.2080   19.3070 C.3   139  VAL139      0.0019
    112  N         18.1440    5.0130   21.1650 N.3   194  LEU194     -0.1231
    113  CA        18.1600    4.4120   19.8260 C.3   194  LEU194      0.1693
    114  C         18.9470    3.0580   19.8620 C.2   194  LEU194      0.2593
    115  O         19.9320    2.9260   20.6100 O.2   194  LEU194     -0.2718
    116  CB        18.8350    5.3650   18.8250 C.3   194  LEU194      0.0284
    117  CG        18.3980    6.8370   18.6500 C.3   194  LEU194      0.0019
    118  CD1       19.2900    7.4390   17.5780 C.3   194  LEU194      0.0001
    119  CD2       16.9030    6.9750   18.2680 C.3   194  LEU194      0.0001
    120  N         18.5450    2.0880   19.0380 N.am  195  THR195     -0.1939
    121  CA        19.1830    0.7580   19.0350 C.3   195  THR195      0.2028
    122  C         20.1560    0.6580   17.8500 C.2   195  THR195      0.2643
    123  O         20.7550   -0.4090   17.5900 O.2   195  THR195     -0.2714
    124  CB        18.1340   -0.4040   18.9330 C.3   195  THR195      0.1808
    125  OG1       17.3890   -0.2460   17.7250 O.3   195  THR195     -0.2208
    126  CG2       17.1450   -0.4230   20.1010 C.3   195  THR195      0.0379
    127  N         20.3010    1.7820   17.1400 N.am  196  THR196     -0.1937
    128  CA        21.3000    1.9840   16.1020 C.3   196  THR196      0.2013
    129  C         22.1910    3.1810   16.4240 C.2   196  THR196      0.2484
    130  O         21.7750    4.1120   17.1260 O.2   196  THR196     -0.2729
    131  CB        20.6560    2.2200   14.7170 C.3   196  THR196      0.1807
    132  OG1       19.5970    3.1700   14.8500 O.3   196  THR196     -0.2208
    133  CG2       20.1030    0.9680   14.1750 C.3   196  THR196      0.0379
    134  N         23.4620    3.1450   15.9530 N.am  197  PRO197     -0.2715
    135  CA        24.2520    4.3740   16.1080 C.3   197  PRO197      0.1521
    136  C         23.5020    5.5060   15.5060 C.2   197  PRO197      0.2440
    137  O         22.9160    5.3120   14.4250 O.2   197  PRO197     -0.2731
    138  CB        25.4960    4.0870   15.2990 C.3   197  PRO197      0.0310
    139  CG        25.6550    2.5750   15.4780 C.3   197  PRO197      0.0237
    140  CD        24.2640    2.0320   15.3960 C.3   197  PRO197      0.0939
    141  N         23.5850    6.7170   16.1140 N.am  198  PRO198     -0.2727
    142  CA        24.4800    7.1660   17.2100 C.3   198  PRO198      0.1402
    143  C         24.1030    6.7560   18.6790 C.2   198  PRO198      0.2269
    144  O         24.7060    7.2580   19.6620 O.2   198  PRO198     -0.2865
    145  CB        24.4790    8.6850   17.0290 C.3   198  PRO198      0.0296
    146  CG        23.0650    8.9810   16.5060 C.3   198  PRO198      0.0237
    147  CD        22.7230    7.8160   15.6180 C.3   198  PRO198      0.0939
    148  N         10.5130    4.1070   25.5950 N.3   205  TRP205     -0.1241
    149  CA        10.1050    2.9250   24.8980 C.3   205  TRP205      0.1605
    150  C          8.7690    2.5160   25.4440 C.2   205  TRP205      0.2264
    151  O          8.5290    2.5730   26.6740 O.2   205  TRP205     -0.2867
    152  CB        11.1410    1.8120   25.1080 C.3   205  TRP205      0.0550
    153  CG        12.2650    1.9360   24.1630 C.ar  205  TRP205      0.0003
    154  CD1       13.4810    2.4480   24.4260 C.ar  205  TRP205      0.0946
    155  CD2       12.2760    1.5160   22.7850 C.ar  205  TRP205      0.0152
    156  NE1       14.2750    2.4110   23.2780 N.ar  205  TRP205     -0.2442
    157  CE2       13.5630    1.8290   22.2630 C.ar  205  TRP205      0.0810
    158  CE3       11.3190    0.9050   21.9320 C.ar  205  TRP205      0.0012
    159  CZ2       13.9230    1.5530   20.9370 C.ar  205  TRP205      0.0191
    160  CZ3       11.6730    0.6290   20.6410 C.ar  205  TRP205      0.0001
    161  CH2       12.9660    0.9550   20.1440 C.ar  205  TRP205      0.0015
@<TRIPOS>BOND
     1     1     2    1
     2     2     3    1
     3     2     5    1
     4     3     4    2
     5    27    26    2
     6     5     6    1
     7    22    21    2
     8    26    25    1
     9    24    25    1
    10    21    20    1
    11     9    10    1
    12     6     7    2
    13     6     8   am
    14    25    28    1
    15    28    29    1
    16    19    20    1
    17    19    11   am
    18    20    23    1
    19    30    29    2
    20    10    11    1
    21    10    13    1
    22    29    31   am
    23    11    12    2
    24    17    15   ar
    25    17    18   ar
    26    15    14   ar
    27    18    16   ar
    28    16    14   ar
    29    14    13    1
    30    35    34    2
    31    44    41    1
    32    44    45    1
    33    53    50    1
    34    53    54    1
    35    50    49    1
    36    50    51    1
    37    41    42    1
    38    41    40    1
    39    34    40   am
    40    34    33    1
    41    37    39    1
    42    37    36    1
    43    45    46    1
    44    47    46    2
    45    46    48   am
    46    42    43    2
    47    51    52    2
    48    33    36    1
    49    33    32    1
    50    54    55   ar
    51    54    56   ar
    52    36    38    1
    53    55    57   ar
    54    59    60    1
    55    56    58   ar
    56    61    60    1
    57    61    62    2
    58    60    63    1
    59    57    58   ar
    60    72    71    2
    61    90    91    1
    62    90    87    1
    63    93    91   ar
    64    93    95   ar
    65    65    64   ar
    66    65    67   ar
    67    63    64    1
    68   133   131    1
    69    64    66   ar
    70    67    68   ar
    71    91    92   ar
    72    95    96   ar
    73   137   136    2
    74    68    66   ar
    75   131   132    1
    76   131   128    1
    77    86    87    1
    78    69    70    1
    79    82    81    2
    80    92    94   ar
    81    96    94   ar
    82    71    70    1
    83    85    83    1
    84    87    88    1
    85    83    80    1
    86    83    84    1
    87    79    80    1
    88   138   139    1
    89   138   135    1
    90   140   139    1
    91   140   134    1
    92   136   135    1
    93   136   141   am
    94    70    73    1
    95   147   141    1
    96   147   146    1
    97    88    89    2
    98    73    74    1
    99    80    81    1
   100   134   135    1
   101   134   129   am
   102   128   129    1
   103   128   127    1
   104   141   142    1
   105   129   130    2
   106   146   145    1
   107    75    74   ar
   108    75    77   ar
   109    74    76   ar
   110   145   142    1
   111   127   122   am
   112   142   143    1
   113    77    78   ar
   114   118   117    1
   115   123   122    2
   116    76    78   ar
   117   125   124    1
   118   122   121    1
   119   119   117    1
   120   110   109    1
   121   104   102    1
   122   103   102    1
   123   117   116    1
   124   143   144    2
   125   116   113    1
   126   124   121    1
   127   124   126    1
   128   121   120    1
   129   120   114   am
   130   111   109    1
   131   102   101    1
   132   109   106    1
   133   113   114    1
   134   113   112    1
   135   114   115    2
   136   106   107    1
   137   106   105    1
   138   161   160   ar
   139   161   159   ar
   140   101    98    1
   141   107   108    2
   142   160   158   ar
   143   159   157   ar
   144    98    99    1
   145    98    97    1
   146   158   155   ar
   147    99   100    2
   148   157   155   ar
   149   157   156   ar
   150   155   153   ar
   151   156   154   ar
   152   153   154   ar
   153   153   152    1
   154   149   152    1
   155   149   150    1
   156   149   148    1
   157   150   151    2
