@<TRIPOS>MOLECULE
tmp/3hkuA00.pdb
 179 176 0 0 0
SMALL
GASTEIGER

@<TRIPOS>ATOM
      1  N         29.1880    1.4740   10.2200 N.3     2  TRP2       -0.1241
      2  CA        28.5740    0.4800   11.1000 C.3     2  TRP2        0.1605
      3  C         27.5990   -0.4450   10.3750 C.2     2  TRP2        0.2264
      4  O         27.0200   -0.0940    9.3400 O.2     2  TRP2       -0.2867
      5  CB        27.9210    1.1610   12.3170 C.3     2  TRP2        0.0550
      6  CG        26.6500    1.8950   12.0030 C.ar    2  TRP2        0.0003
      7  CD1       26.5220    3.2180   11.6600 C.ar    2  TRP2        0.0946
      8  CD2       25.3210    1.3550   12.0320 C.ar    2  TRP2        0.0152
      9  NE1       25.1920    3.5200   11.4490 N.ar    2  TRP2       -0.2442
     10  CE2       24.4350    2.3980   11.6760 C.ar    2  TRP2        0.0810
     11  CE3       24.7960    0.0770   12.3040 C.ar    2  TRP2        0.0012
     12  CZ2       23.0440    2.2080   11.5860 C.ar    2  TRP2        0.0191
     13  CZ3       23.4180   -0.1120   12.2170 C.ar    2  TRP2        0.0001
     14  CH2       22.5590    0.9460   11.8620 C.ar    2  TRP2        0.0015
     15  N         25.8030   -4.8330   10.9330 N.3     4  TYR4       -0.1241
     16  CA        25.3980   -5.9340   11.7990 C.3     4  TYR4        0.1605
     17  C         26.2480   -7.1950   11.5930 C.2     4  TYR4        0.2264
     18  O         25.9890   -8.2210   12.2200 O.2     4  TYR4       -0.2867
     19  CB        23.9240   -6.2550   11.5710 C.3     4  TYR4        0.0534
     20  CG        22.9790   -5.1660   12.0080 C.ar    4  TYR4       -0.0201
     21  CD1       22.5710   -5.0680   13.3440 C.ar    4  TYR4       -0.0009
     22  CD2       22.4640   -4.2600   11.0870 C.ar    4  TYR4       -0.0009
     23  CE1       21.6980   -4.0730   13.7520 C.ar    4  TYR4        0.0417
     24  CE2       21.5650   -3.2700   11.4810 C.ar    4  TYR4        0.0417
     25  CZ        21.1910   -3.1840   12.8160 C.ar    4  TYR4        0.1957
     26  OH        20.3170   -2.1950   13.1970 O.3     4  TYR4       -0.2866
     27  N         17.8410    1.8390    3.5500 N.3    59  ASN59      -0.1240
     28  CA        19.0050    2.6390    3.9760 C.3    59  ASN59       0.1653
     29  C         20.2730    1.8070    4.2320 C.2    59  ASN59       0.2266
     30  O         21.2260    2.2940    4.8360 O.2    59  ASN59      -0.2867
     31  CB        18.6540    3.5340    5.2020 C.3    59  ASN59       0.1155
     32  CG        18.5840    2.7420    6.5130 C.2    59  ASN59       0.2627
     33  OD1       18.6010    1.5110    6.5080 O.2    59  ASN59      -0.2716
     34  ND2       18.5290    3.4530    7.6350 N.am   59  ASN59      -0.0877
     35  N         20.5570   -0.6620    6.2120 N.3    61  HIS61      -0.1226
     36  CA        20.4300   -1.2870    7.5390 C.3    61  HIS61       0.1752
     37  C         19.0660   -1.9670    7.6900 C.2    61  HIS61       0.2595
     38  O         18.9670   -3.1270    8.1160 O.2    61  HIS61      -0.2718
     39  CB        20.5910   -0.2210    8.6320 C.3    61  HIS61       0.0759
     40  CG        21.8840    0.5300    8.5350 C.ar   61  HIS61       0.0818
     41  ND1       21.9550    1.8630    8.1830 N.ar   61  HIS61      -0.2268
     42  CD2       23.1620    0.1160    8.7130 C.ar   61  HIS61       0.1154
     43  CE1       23.2260    2.2450    8.1840 C.ar   61  HIS61       0.1986
     44  NE2       23.9750    1.2050    8.5010 N.ar   61  HIS61      -0.2212
     45  N         18.0130   -1.2100    7.3800 N.am   62  ALA62      -0.1980
     46  CA        16.6910   -1.7740    7.2120 C.3    62  ALA62       0.1597
     47  C         15.9520   -0.9200    6.1730 C.2    62  ALA62       0.2287
     48  O         16.5980   -0.3840    5.2550 O.2    62  ALA62      -0.2864
     49  CB        15.9510   -1.8640    8.5720 C.3    62  ALA62       0.0319
     50  N         12.9760    2.3720    5.9250 N.3    64  ASN64      -0.1240
     51  CA        12.1480    3.3570    6.6240 C.3    64  ASN64       0.1653
     52  C         10.9080    3.6560    5.8040 C.2    64  ASN64       0.2266
     53  O         11.0210    3.8950    4.6000 O.2    64  ASN64      -0.2867
     54  CB        12.8840    4.6950    6.7620 C.3    64  ASN64       0.1155
     55  CG        14.0850    4.6270    7.6470 C.2    64  ASN64       0.2627
     56  OD1       15.0710    5.3350    7.4160 O.2    64  ASN64      -0.2716
     57  ND2       14.0150    3.8040    8.6770 N.am   64  ASN64      -0.0877
     58  N          8.4600    8.1410   11.4280 N.3    89  GLN89      -0.1245
     59  CA         8.7730    7.0100   10.5700 C.3    89  GLN89       0.1566
     60  C          8.5250    5.7060   11.2970 C.2    89  GLN89       0.2260
     61  O          8.3780    5.7010   12.5240 O.2    89  GLN89      -0.2867
     62  CB        10.2280    7.0700   10.0890 C.3    89  GLN89       0.0367
     63  CG        11.2490    7.0130   11.1760 C.3    89  GLN89       0.0905
     64  CD        12.0240    5.6990   11.1810 C.2    89  GLN89       0.2608
     65  OE1       11.5120    4.6620   11.5860 O.2    89  GLN89      -0.2717
     66  NE2       13.2620    5.7520   10.7340 N.am   89  GLN89      -0.0878
     67  N         10.0330    1.3940   11.0200 N.3    91  HIS91      -0.1241
     68  CA        10.9160    0.4280   10.3980 C.3    91  HIS91       0.1621
     69  C         10.8090   -0.8570   11.2250 C.2    91  HIS91       0.2264
     70  O         10.1340   -0.8940   12.2650 O.2    91  HIS91      -0.2867
     71  CB        12.3540    0.9440   10.4390 C.3    91  HIS91       0.0745
     72  CG        12.8540    1.1750   11.8280 C.ar   91  HIS91       0.0817
     73  ND1       12.7000    2.3800   12.4830 N.ar   91  HIS91      -0.2268
     74  CD2       13.5030    0.3550   12.6860 C.ar   91  HIS91       0.1154
     75  CE1       13.2280    2.2900   13.6920 C.ar   91  HIS91       0.1986
     76  NE2       13.7100    1.0670   13.8460 N.ar   91  HIS91      -0.2212
     77  N         13.1100   -4.6280   12.5370 N.3    93  HIS93      -0.1241
     78  CA        14.3170   -5.4390   12.6430 C.3    93  HIS93       0.1621
     79  C         13.8670   -6.8780   12.5610 C.2    93  HIS93       0.2264
     80  O         12.7990   -7.2050   13.0760 O.2    93  HIS93      -0.2867
     81  CB        15.0120   -5.2290   13.9920 C.3    93  HIS93       0.0745
     82  CG        15.2880   -3.7850   14.3000 C.ar   93  HIS93       0.0817
     83  ND1       16.5090   -3.1870   14.0670 N.ar   93  HIS93      -0.2268
     84  CD2       14.4690   -2.8070   14.7520 C.ar   93  HIS93       0.1154
     85  CE1       16.4470   -1.9120   14.4240 C.ar   93  HIS93       0.1986
     86  NE2       15.2140   -1.6530   14.8210 N.ar   93  HIS93      -0.2212
     87  N          9.1330   -0.8320   14.9120 N.3   116  HIS116     -0.1241
     88  CA         9.3790    0.3770   15.6730 C.3   116  HIS116      0.1621
     89  C          8.7310    1.5630   14.9970 C.2   116  HIS116      0.2264
     90  O          9.0800    1.8850   13.8510 O.2   116  HIS116     -0.2867
     91  CB        10.8920    0.6160   15.8120 C.3   116  HIS116      0.0745
     92  CG        11.5590   -0.3620   16.7270 C.ar  116  HIS116      0.0817
     93  ND1       12.9110   -0.6320   16.6830 N.ar  116  HIS116     -0.2268
     94  CD2       11.0480   -1.1520   17.7010 C.ar  116  HIS116      0.1154
     95  CE1       13.2090   -1.5360   17.6080 C.ar  116  HIS116      0.1986
     96  NE2       12.0970   -1.8560   18.2490 N.ar  116  HIS116     -0.2212
     97  N          8.4610    5.4070   15.3110 N.3   118  VAL118     -0.1245
     98  CA         9.3180    6.3840   15.9720 C.3   118  VAL118      0.1561
     99  C          8.5850    7.7280   16.0050 C.2   118  VAL118      0.2260
    100  O          8.0730    8.1800   14.9710 O.2   118  VAL118     -0.2867
    101  CB        10.6480    6.5430   15.2130 C.3   118  VAL118      0.0252
    102  CG1       11.5440    7.6110   15.8860 C.3   118  VAL118      0.0019
    103  CG2       11.3970    5.2130   15.1120 C.3   118  VAL118      0.0019
    104  N         13.0190   16.8550   14.9410 N.3   127  PHE127     -0.1241
    105  CA        13.5660   15.5650   15.3490 C.3   127  PHE127      0.1605
    106  C         15.0260   15.6900   15.7960 C.2   127  PHE127      0.2264
    107  O         15.4330   15.0830   16.7890 O.2   127  PHE127     -0.2867
    108  CB        13.4360   14.5680   14.1900 C.3   127  PHE127      0.0534
    109  CG        14.0030   13.2170   14.4800 C.ar  127  PHE127     -0.0203
    110  CD1       13.2420   12.2570   15.1360 C.ar  127  PHE127     -0.0042
    111  CD2       15.2890   12.8860   14.0700 C.ar  127  PHE127     -0.0042
    112  CE1       13.7600   10.9920   15.3940 C.ar  127  PHE127     -0.0003
    113  CE2       15.8160   11.6280   14.3280 C.ar  127  PHE127     -0.0003
    114  CZ        15.0440   10.6790   14.9920 C.ar  127  PHE127     -0.0000
    115  N          9.3610    5.5900   21.1970 N.3   139  VAL139     -0.1245
    116  CA         9.3340    4.5620   20.1620 C.3   139  VAL139      0.1561
    117  C          8.3850    3.4840   20.6430 C.2   139  VAL139      0.2260
    118  O          8.5180    2.9720   21.7650 O.2   139  VAL139     -0.2867
    119  CB        10.7440    4.0080   19.7900 C.3   139  VAL139      0.0252
    120  CG1       10.6240    2.9810   18.6300 C.3   139  VAL139      0.0019
    121  CG2       11.6660    5.1680   19.3750 C.3   139  VAL139      0.0019
    122  N         18.2820    4.9940   21.3190 N.3   194  LEU194     -0.1231
    123  CA        18.2550    4.4700   19.9440 C.3   194  LEU194      0.1693
    124  C         19.0230    3.1440   19.9880 C.2   194  LEU194      0.2593
    125  O         20.0050    3.0110   20.7390 O.2   194  LEU194     -0.2718
    126  CB        18.9530    5.4530   18.9910 C.3   194  LEU194      0.0284
    127  CG        18.3250    6.8370   18.8770 C.3   194  LEU194      0.0019
    128  CD1       19.1950    7.7020   17.9920 C.3   194  LEU194      0.0001
    129  CD2       16.9240    6.7120   18.2760 C.3   194  LEU194      0.0001
    130  N         18.5900    2.1710   19.1910 N.am  195  THR195     -0.1939
    131  CA        19.2650    0.8540   19.1540 C.3   195  THR195      0.2028
    132  C         20.2880    0.7160   18.0190 C.2   195  THR195      0.2643
    133  O         20.8190   -0.3950   17.7510 O.2   195  THR195     -0.2714
    134  CB        18.2440   -0.2930   19.0070 C.3   195  THR195      0.1808
    135  OG1       17.6350   -0.2070   17.7160 O.3   195  THR195     -0.2208
    136  CG2       17.1790   -0.2690   20.1360 C.3   195  THR195      0.0379
    137  N         20.5380    1.8270   17.3300 N.am  196  THR196     -0.1937
    138  CA        21.5610    1.9200   16.2890 C.3   196  THR196      0.2013
    139  C         22.4240    3.1390   16.5910 C.2   196  THR196      0.2484
    140  O         21.9700    4.0730   17.2700 O.2   196  THR196     -0.2729
    141  CB        20.9660    2.1670   14.8710 C.3   196  THR196      0.1807
    142  OG1       20.2440    3.4150   14.8460 O.3   196  THR196     -0.2208
    143  CG2       20.0530    1.0280   14.4070 C.3   196  THR196      0.0379
    144  N         23.6800    3.1430   16.0860 N.am  197  PRO197     -0.2715
    145  CA        24.4620    4.3720   16.1470 C.3   197  PRO197      0.1521
    146  C         23.6440    5.5590   15.6170 C.2   197  PRO197      0.2440
    147  O         22.9770    5.4120   14.5730 O.2   197  PRO197     -0.2731
    148  CB        25.6490    4.0510   15.2250 C.3   197  PRO197      0.0310
    149  CG        25.8740    2.5740   15.4290 C.3   197  PRO197      0.0237
    150  CD        24.4450    2.0270   15.4890 C.3   197  PRO197      0.0939
    151  N         23.7190    6.7360   16.2820 N.am  198  PRO198     -0.2727
    152  CA        24.6280    7.1190   17.3800 C.3   198  PRO198      0.1402
    153  C         24.1790    6.7460   18.8050 C.2   198  PRO198      0.2269
    154  O         24.7600    7.2420   19.7900 O.2   198  PRO198     -0.2865
    155  CB        24.6990    8.6410   17.2300 C.3   198  PRO198      0.0296
    156  CG        23.3070    9.0050   16.7730 C.3   198  PRO198      0.0237
    157  CD        22.8540    7.8650   15.8850 C.3   198  PRO198      0.0939
    158  N         10.8300    4.1200   25.7510 N.3   205  TRP205     -0.1241
    159  CA        10.3870    2.9000   25.0750 C.3   205  TRP205      0.1605
    160  C          9.0160    2.4820   25.5460 C.2   205  TRP205      0.2264
    161  O          8.7740    2.4250   26.7530 O.2   205  TRP205     -0.2867
    162  CB        11.4190    1.7630   25.2640 C.3   205  TRP205      0.0550
    163  CG        12.5030    1.9100   24.2560 C.ar  205  TRP205      0.0003
    164  CD1       13.7270    2.4970   24.4360 C.ar  205  TRP205      0.0946
    165  CD2       12.4370    1.5150   22.8810 C.ar  205  TRP205      0.0152
    166  NE1       14.4290    2.4860   23.2440 N.ar  205  TRP205     -0.2442
    167  CE2       13.6670    1.8600   22.2870 C.ar  205  TRP205      0.0810
    168  CE3       11.4600    0.8640   22.1020 C.ar  205  TRP205      0.0012
    169  CZ2       13.9460    1.6050   20.9360 C.ar  205  TRP205      0.0191
    170  CZ3       11.7480    0.5860   20.7580 C.ar  205  TRP205      0.0001
    171  CH2       12.9810    0.9650   20.1970 C.ar  205  TRP205      0.0015
    172  N         19.2990   -7.8470   11.4290 N.3   240  ASN240     -0.1240
    173  CA        19.6400   -6.4280   11.6290 C.3   240  ASN240      0.1653
    174  C         19.0800   -5.9550   12.9860 C.2   240  ASN240      0.2266
    175  O         18.3530   -4.9390   13.0810 O.2   240  ASN240     -0.2867
    176  CB        19.1260   -5.5800   10.4510 C.3   240  ASN240      0.1155
    177  CG        17.6550   -5.8380   10.1250 C.2   240  ASN240      0.2627
    178  OD1       16.9540   -6.5890   10.8230 O.2   240  ASN240     -0.2716
    179  ND2       17.1720   -5.1880    9.0630 N.am  240  ASN240     -0.0877
@<TRIPOS>BOND
     1    27    28    1
     2    28    29    1
     3    28    31    1
     4    29    30    2
     5    53    52    2
     6    31    32    1
     7    48    47    2
     8    52    51    1
     9    50    51    1
    10    47    46    1
    11    35    36    1
    12    33    32    2
    13    32    34   am
    14    51    54    1
    15    54    55    1
    16    46    45    1
    17    46    49    1
    18    45    37   am
    19    56    55    2
    20    36    37    1
    21    36    39    1
    22    55    57   am
    23    37    38    2
    24    41    43   ar
    25    41    40   ar
    26    43    44   ar
    27    44    42   ar
    28    40    39    1
    29    40    42   ar
    30   179   177   am
    31     4     3    2
    32    62    59    1
    33    62    63    1
    34   177   176    1
    35   177   178    2
    36     1     2    1
    37     3     2    1
    38    68    71    1
    39    68    67    1
    40    68    69    1
    41    71    72    1
    42   176   173    1
    43    59    60    1
    44    59    58    1
    45    66    64   am
    46    15    16    1
    47    22    24   ar
    48    22    20   ar
    49     2     5    1
    50    63    64    1
    51    64    65    2
    52    69    70    2
    53    60    61    2
    54   172   173    1
    55     9     7   ar
    56     9    10   ar
    57    24    25   ar
    58    19    16    1
    59    19    20    1
    60    12    10   ar
    61    12    14   ar
    62    17    16    1
    63    17    18    2
    64   173   174    1
    65     7     6   ar
    66    10     8   ar
    67    72    73   ar
    68    72    74   ar
    69    14    13   ar
    70     6     8   ar
    71     6     5    1
    72    20    21   ar
    73     8    11   ar
    74    13    11   ar
    75    73    75   ar
    76    77    78    1
    77    79    78    1
    78    79    80    2
    79    78    81    1
    80    74    76   ar
    81    25    26    1
    82    25    23   ar
    83   174   175    2
    84    21    23   ar
    85    75    76   ar
    86    90    89    2
    87    81    82    1
    88    83    82   ar
    89    83    85   ar
    90   111   113   ar
    91   111   109   ar
    92   108   109    1
    93   108   105    1
    94    82    84   ar
    95   113   114   ar
    96   143   141    1
    97    85    86   ar
    98   109   110   ar
    99   147   146    2
   100    84    86   ar
   101   142   141    1
   102   141   138    1
   103    87    88    1
   104   104   105    1
   105   100    99    2
   106   114   112   ar
   107    89    88    1
   108   103   101    1
   109   110   112   ar
   110   101   102    1
   111   101    98    1
   112   148   149    1
   113   148   145    1
   114    97    98    1
   115   105   106    1
   116   149   150    1
   117   150   144    1
   118   146   145    1
   119   146   151   am
   120    88    91    1
   121   106   107    2
   122    91    92    1
   123   157   151    1
   124   157   156    1
   125    98    99    1
   126   144   145    1
   127   144   139   am
   128   151   152    1
   129   138   139    1
   130   138   137    1
   131   139   140    2
   132    93    92   ar
   133    93    95   ar
   134    92    94   ar
   135   156   155    1
   136   155   152    1
   137   137   132   am
   138   152   153    1
   139    95    96   ar
   140    94    96   ar
   141   135   134    1
   142   133   132    2
   143   128   127    1
   144   132   131    1
   145   129   127    1
   146   120   119    1
   147   153   154    2
   148   127   126    1
   149   126   123    1
   150   134   131    1
   151   134   136    1
   152   131   130    1
   153   130   124   am
   154   121   119    1
   155   119   116    1
   156   123   124    1
   157   123   122    1
   158   124   125    2
   159   116   117    1
   160   116   115    1
   161   171   170   ar
   162   171   169   ar
   163   117   118    2
   164   170   168   ar
   165   169   167   ar
   166   168   165   ar
   167   167   165   ar
   168   167   166   ar
   169   165   163   ar
   170   166   164   ar
   171   163   164   ar
   172   163   162    1
   173   159   162    1
   174   159   160    1
   175   159   158    1
   176   160   161    2
