@<TRIPOS>MOLECULE
tmp/3hkvA00.pdb
 89 87 0 0 0
SMALL
GASTEIGER

@<TRIPOS>ATOM
      1  N         30.1800   45.0010   21.0870 N.3    71  HIS71      -0.1226
      2  CA        30.5820   43.6060   21.1910 C.3    71  HIS71       0.1752
      3  C         30.9310   43.0400   19.8090 C.2    71  HIS71       0.2596
      4  O         30.0590   42.7800   18.9690 O.2    71  HIS71      -0.2718
      5  CB        29.4760   42.7670   21.8320 C.3    71  HIS71       0.0759
      6  CG        29.8520   41.3380   21.9900 C.ar   71  HIS71       0.0818
      7  ND1       30.5940   40.8890   23.0590 N.ar   71  HIS71      -0.2268
      8  CD2       29.6500   40.2620   21.1860 C.ar   71  HIS71       0.1154
      9  CE1       30.8160   39.5900   22.9170 C.ar   71  HIS71       0.1986
     10  NE2       30.2490   39.1860   21.7920 N.ar   71  HIS71      -0.2212
     11  N         32.2150   42.8790   19.5660 N.am   72  GLY72      -0.1957
     12  CA        32.6540   42.2350   18.3570 C.3    72  GLY72       0.1869
     13  C         32.4310   40.7380   18.4330 C.2    72  GLY72       0.2309
     14  O         32.6270   40.1410   19.4840 O.2    72  GLY72      -0.2863
     15  N         34.2860   34.4880   24.9990 N.3    94  ASN94      -0.1225
     16  CA        34.8140   35.8020   25.1910 C.3    94  ASN94       0.1785
     17  C         36.1930   35.6470   25.7970 C.2    94  ASN94       0.2597
     18  O         36.6720   34.5240   25.9340 O.2    94  ASN94      -0.2718
     19  CB        33.8700   36.5290   26.1440 C.3    94  ASN94       0.1169
     20  CG        32.5840   36.9650   25.4680 C.2    94  ASN94       0.2627
     21  OD1       32.4050   38.1520   25.2290 O.2    94  ASN94      -0.2716
     22  ND2       31.6900   36.0010   25.1480 N.am   94  ASN94      -0.0877
     23  N         36.8360   36.7450   26.1810 N.am   95  ALA95      -0.1979
     24  CA        38.0890   36.6610   26.9520 C.3    95  ALA95       0.1597
     25  C         37.8350   36.0560   28.3500 C.2    95  ALA95       0.2287
     26  O         36.6940   35.6860   28.6950 O.2    95  ALA95      -0.2864
     27  CB        38.7350   38.0500   27.0570 C.3    95  ALA95       0.0319
     28  N         31.9850   40.0260   27.4170 N.3   103  TYR103     -0.1227
     29  CA        32.7770   41.2360   27.3520 C.3   103  TYR103      0.1736
     30  C         32.2220   42.2890   26.3650 C.2   103  TYR103      0.2595
     31  O         31.9080   41.9840   25.2060 O.2   103  TYR103     -0.2718
     32  CB        34.2210   40.9140   26.9480 C.3   103  TYR103      0.0548
     33  CG        35.0340   40.2430   28.0600 C.ar  103  TYR103     -0.0200
     34  CD1       36.2470   40.7650   28.4880 C.ar  103  TYR103     -0.0009
     35  CD2       34.5930   39.0660   28.6530 C.ar  103  TYR103     -0.0009
     36  CE1       36.9760   40.1710   29.5030 C.ar  103  TYR103      0.0417
     37  CE2       35.3210   38.4630   29.6540 C.ar  103  TYR103      0.0417
     38  CZ        36.5130   39.0160   30.0760 C.ar  103  TYR103      0.1957
     39  OH        37.2210   38.3920   31.0750 O.3   103  TYR103     -0.2866
     40  N         32.1170   43.5210   26.8590 N.am  104  PHE104     -0.1962
     41  CA        31.6500   44.6520   26.1010 C.3   104  PHE104      0.1771
     42  C         32.6870   45.7660   26.1950 C.2   104  PHE104      0.2619
     43  O         33.3160   45.9400   27.2370 O.2   104  PHE104     -0.2715
     44  CB        30.3180   45.1180   26.6490 C.3   104  PHE104      0.0574
     45  CG        29.2040   44.1580   26.4180 C.ar  104  PHE104     -0.0200
     46  CD1       28.4500   44.2100   25.2570 C.ar  104  PHE104     -0.0042
     47  CD2       28.9090   43.1800   27.3620 C.ar  104  PHE104     -0.0042
     48  CE1       27.4250   43.3190   25.0310 C.ar  104  PHE104     -0.0003
     49  CE2       27.9110   42.2800   27.1380 C.ar  104  PHE104     -0.0003
     50  CZ        27.1590   42.3370   25.9640 C.ar  104  PHE104     -0.0000
     51  N         32.8320   46.5310   25.1170 N.am  105  ALA105     -0.1977
     52  CA        33.8130   47.6030   25.0070 C.3   105  ALA105      0.1597
     53  C         33.0950   48.9450   24.9550 C.2   105  ALA105      0.2287
     54  O         32.0760   49.1100   24.2560 O.2   105  ALA105     -0.2864
     55  CB        34.6830   47.4240   23.7540 C.3   105  ALA105      0.0319
     56  N         38.1550   48.9690   20.2190 N.3   110  LEU110     -0.1231
     57  CA        38.5230   47.6760   20.7920 C.3   110  LEU110      0.1693
     58  C         37.8210   46.5310   20.0460 C.2   110  LEU110      0.2592
     59  O         38.4570   45.6490   19.5470 O.2   110  LEU110     -0.2718
     60  CB        38.2180   47.6310   22.2940 C.3   110  LEU110      0.0284
     61  CG        38.7360   46.3990   23.0810 C.3   110  LEU110      0.0019
     62  CD1       40.2700   46.1280   22.9010 C.3   110  LEU110      0.0001
     63  CD2       38.4180   46.6120   24.5390 C.3   110  LEU110      0.0001
     64  N         36.5000   46.5810   19.9510 N.am  111  SER111     -0.1952
     65  CA        35.6950   45.5130   19.3380 C.3   111  SER111      0.1924
     66  C         35.9330   45.2610   17.8580 C.2   111  SER111      0.2314
     67  O         35.7020   44.1520   17.3640 O.2   111  SER111     -0.2863
     68  CB        34.2300   45.8420   19.5390 C.3   111  SER111      0.2116
     69  OG        33.9130   45.8870   20.9040 O.3   111  SER111     -0.2180
     70  N         38.6000   40.0950   17.9270 N.3   116  TYR116     -0.1241
     71  CA        37.2340   40.0410   18.4440 C.3   116  TYR116      0.1605
     72  C         36.1850   39.9860   17.3570 C.2   116  TYR116      0.2264
     73  O         35.1650   39.3360   17.5320 O.2   116  TYR116     -0.2867
     74  CB        36.9780   41.2270   19.3660 C.3   116  TYR116      0.0534
     75  CG        38.0250   41.3470   20.4540 C.ar  116  TYR116     -0.0201
     76  CD1       38.3820   40.2430   21.2120 C.ar  116  TYR116     -0.0009
     77  CD2       38.6870   42.5550   20.6870 C.ar  116  TYR116     -0.0009
     78  CE1       39.3570   40.3270   22.1850 C.ar  116  TYR116      0.0417
     79  CE2       39.6520   42.6650   21.6790 C.ar  116  TYR116      0.0417
     80  CZ        39.9840   41.5420   22.4180 C.ar  116  TYR116      0.1957
     81  OH        40.9190   41.6090   23.4020 O.3   116  TYR116     -0.2866
     82  N         36.2700   48.3170   29.6170 N.3   171  ILE171     -0.1245
     83  CA        35.7140   46.9970   29.3710 C.3   171  ILE171      0.1561
     84  C         34.8090   46.5900   30.4980 C.2   171  ILE171      0.2260
     85  O         35.1650   46.7470   31.6790 O.2   171  ILE171     -0.2867
     86  CB        36.8200   45.9390   29.2560 C.3   171  ILE171      0.0252
     87  CG1       37.6630   46.1450   28.0160 C.3   171  ILE171      0.0019
     88  CG2       36.2550   44.5680   29.2300 C.3   171  ILE171      0.0019
     89  CD1       39.0660   45.5050   28.1550 C.3   171  ILE171      0.0001
@<TRIPOS>BOND
     1    72    73    2
     2    72    71    1
     3    67    66    2
     4    66    65    1
     5    70    71    1
     6    12    13    1
     7    12    11    1
     8    13    14    2
     9    71    74    1
    10     4     3    2
    11    65    68    1
    12    65    64    1
    13    74    75    1
    14    68    69    1
    15    59    58    2
    16    11     3   am
    17     3     2    1
    18    64    58   am
    19    58    57    1
    20    56    57    1
    21    75    77   ar
    22    75    76   ar
    23    77    79   ar
    24    57    60    1
    25     1     2    1
    26     8    10   ar
    27     8     6   ar
    28     2     5    1
    29    76    78   ar
    30    79    80   ar
    31    10     9   ar
    32     5     6    1
    33     6     7   ar
    34    78    80   ar
    35    60    61    1
    36    80    81    1
    37    62    61    1
    38     9     7   ar
    39    61    63    1
    40    55    52    1
    41    54    53    2
    42    53    52    1
    43    15    16    1
    44    52    51    1
    45    48    46   ar
    46    48    50   ar
    47    51    42   am
    48    22    20   am
    49    16    17    1
    50    16    19    1
    51    31    30    2
    52    21    20    2
    53    46    45   ar
    54    20    19    1
    55    17    18    2
    56    17    23   am
    57    50    49   ar
    58    41    42    1
    59    41    44    1
    60    41    40    1
    61    23    24    1
    62    42    43    2
    63    30    40   am
    64    30    29    1
    65    45    44    1
    66    45    47   ar
    67    32    29    1
    68    32    33    1
    69    24    27    1
    70    24    25    1
    71    49    47   ar
    72    29    28    1
    73    87    89    1
    74    87    86    1
    75    33    34   ar
    76    33    35   ar
    77    25    26    2
    78    34    36   ar
    79    35    37   ar
    80    88    86    1
    81    86    83    1
    82    83    82    1
    83    83    84    1
    84    36    38   ar
    85    37    38   ar
    86    38    39    1
    87    84    85    2
