@<TRIPOS>MOLECULE
tmp/3hkwC00.pdb
 195 183 0 0 0
SMALL
GASTEIGER

@<TRIPOS>ATOM
      1  N          0.7220  -50.0730   16.5250 N.3   155  ARG155     -0.1245
      2  CA         1.1790  -49.8970   15.1470 C.3   155  ARG155      0.1563
      3  C          1.2680  -51.2770   14.5360 C.2   155  ARG155      0.2260
      4  O          1.4260  -52.2590   15.2530 O.2   155  ARG155     -0.2867
      5  CB         2.5410  -49.2150   15.0890 C.3   155  ARG155      0.0307
      6  CG         2.4620  -47.7080   15.2780 C.3   155  ARG155      0.0489
      7  CD         3.7810  -47.0320   14.9470 C.3   155  ARG155      0.2205
      8  NE         3.6710  -45.5740   14.9730 N.pl3 155  ARG155     -0.0865
      9  CZ         4.6620  -44.7330   14.6810 C.cat 155  ARG155      0.5346
     10  NH1        4.4520  -43.4220   14.7330 N.pl3 155  ARG155      0.1354
     11  NH2        5.8620  -45.1920   14.3370 N.pl3 155  ARG155      0.1354
     12  N         19.8560  -38.6890    7.9010 N.3   190  PHE190     -0.1241
     13  CA        20.4670  -39.8120    8.5930 C.3   190  PHE190      0.1605
     14  C         21.9810  -39.8410    8.4470 C.2   190  PHE190      0.2264
     15  O         22.6330  -40.6910    9.0450 O.2   190  PHE190     -0.2867
     16  CB        19.8680  -41.1320    8.1390 C.3   190  PHE190      0.0534
     17  CG        18.4370  -41.3150    8.5190 C.ar  190  PHE190     -0.0203
     18  CD1       18.0420  -41.2660    9.8340 C.ar  190  PHE190     -0.0042
     19  CD2       17.4850  -41.5580    7.5510 C.ar  190  PHE190     -0.0042
     20  CE1       16.7180  -41.4570   10.1740 C.ar  190  PHE190     -0.0003
     21  CE2       16.1530  -41.7730    7.8840 C.ar  190  PHE190     -0.0003
     22  CZ        15.7720  -41.7160    9.1920 C.ar  190  PHE190     -0.0000
     23  N         23.8480  -36.6170   16.2320 N.3   194  PRO194     -0.2116
     24  CA        23.0380  -35.5930   16.8840 C.3   194  PRO194      0.1372
     25  C         23.6710  -34.1910   16.8720 C.2   194  PRO194      0.2244
     26  O         22.9880  -33.2010   16.5950 O.2   194  PRO194     -0.2868
     27  CB        22.9000  -36.1210   18.3150 C.3   194  PRO194      0.0268
     28  CG        23.0720  -37.5660   18.2060 C.3   194  PRO194      0.0207
     29  CD        24.0450  -37.7890   17.0970 C.3   194  PRO194      0.0892
     30  N         23.3340  -32.7590   13.4860 N.3   197  ARG197     -0.1245
     31  CA        21.9710  -32.4100   13.1460 C.3   197  ARG197      0.1563
     32  C         21.6300  -31.0580   13.7550 C.2   197  ARG197      0.2260
     33  O         21.0290  -30.1930   13.0960 O.2   197  ARG197     -0.2867
     34  CB        20.9850  -33.4800   13.6160 C.3   197  ARG197      0.0307
     35  CG        19.5530  -33.2000   13.1920 C.3   197  ARG197      0.0489
     36  CD        18.5940  -34.1810   13.8450 C.3   197  ARG197      0.2205
     37  NE        17.2070  -33.8850   13.4840 N.pl3 197  ARG197     -0.0865
     38  CZ        16.5370  -34.4180   12.4670 C.cat 197  ARG197      0.5346
     39  NH1       17.0890  -35.3040   11.6580 N.pl3 197  ARG197      0.1354
     40  NH2       15.2770  -34.0630   12.2630 N.pl3 197  ARG197      0.1354
     41  N         12.0290  -49.5370    3.3480 N.3   284  THR284     -0.1218
     42  CA        11.0280  -48.6470    3.9570 C.3   284  THR284      0.1862
     43  C         11.6260  -47.2630    4.2320 C.2   284  THR284      0.2287
     44  O         11.0440  -46.2510    3.8620 O.2   284  THR284     -0.2866
     45  CB        10.4400  -49.2630    5.2340 C.3   284  THR284      0.1770
     46  OG1        9.8390  -50.5210    4.9000 O.3   284  THR284     -0.2211
     47  CG2        9.3820  -48.3480    5.8540 C.3   284  THR284      0.0375
     48  N         10.6560  -44.1850    1.7740 N.3   288  ASN288     -0.1240
     49  CA         9.9450  -43.0800    2.4140 C.3   288  ASN288      0.1653
     50  C         10.7170  -41.7830    2.3040 C.2   288  ASN288      0.2266
     51  O         10.1400  -40.7420    2.0180 O.2   288  ASN288     -0.2867
     52  CB         9.6160  -43.3790    3.8690 C.3   288  ASN288      0.1155
     53  CG         8.4330  -44.3180    4.0230 C.2   288  ASN288      0.2627
     54  OD1        7.7290  -44.6100    3.0550 O.2   288  ASN288     -0.2716
     55  ND2        8.2010  -44.7920    5.2510 N.am  288  ASN288     -0.0877
     56  N          9.6480  -40.3450    6.7550 N.3   315  ASP315     -0.1225
     57  CA         8.4270  -39.5430    6.6200 C.3   315  ASP315      0.1805
     58  C          8.4870  -38.2320    7.3870 C.2   315  ASP315      0.2597
     59  O          7.5370  -37.4470    7.3400 O.2   315  ASP315     -0.2718
     60  CB         7.1520  -40.3330    7.0010 C.3   315  ASP315      0.1424
     61  CG         7.0100  -40.5930    8.4990 C.2   315  ASP315      0.3668
     62  OD1        8.0190  -40.6170    9.2300 O.co2 315  ASP315     -0.2456
     63  OD2        5.8580  -40.8150    8.9480 O.co2 315  ASP315     -0.2456
     64  N          9.5990  -37.9880    8.0750 N.am  316  ASP316     -0.1974
     65  CA         9.7720  -36.7680    8.8350 C.3   316  ASP316      0.1709
     66  C         10.3600  -35.6780    7.9480 C.2   316  ASP316      0.2293
     67  O         11.3570  -35.8800    7.2740 O.2   316  ASP316     -0.2864
     68  CB        10.6840  -36.9810   10.0450 C.3   316  ASP316      0.1436
     69  CG        10.6480  -35.8000   10.9870 C.2   316  ASP316      0.3671
     70  OD1        9.8840  -35.8590   11.9830 O.co2 316  ASP316     -0.2456
     71  OD2       11.3310  -34.7950   10.6890 O.co2 316  ASP316     -0.2456
     72  N         11.4750  -35.4910   14.2010 N.3   363  CYS363     -0.1221
     73  CA        11.9110  -36.7560   14.8020 C.3   363  CYS363      0.1808
     74  C         11.7670  -36.6660   16.3200 C.2   363  CYS363      0.2602
     75  O         12.6990  -36.9890   17.0700 O.2   363  CYS363     -0.2717
     76  CB        13.3310  -37.1030   14.3860 C.3   363  CYS363      0.0970
     77  SG        13.4990  -37.3790   12.6260 S.3   363  CYS363     -0.0800
     78  N         10.5870  -36.1960   16.7400 N.am  364  SER364     -0.1938
     79  CA        10.2030  -36.0160   18.1580 C.3   364  SER364      0.2055
     80  C         10.9840  -34.9410   18.8970 C.2   364  SER364      0.2643
     81  O         10.7280  -34.6950   20.0760 O.2   364  SER364     -0.2714
     82  CB        10.3500  -37.3190   18.9490 C.3   364  SER364      0.2130
     83  OG         9.7240  -38.3890   18.3080 O.3   364  SER364     -0.2179
     84  N         11.9200  -34.2840   18.2290 N.am  365  SER365     -0.1949
     85  CA        12.9450  -33.5350   18.9530 C.3   365  SER365      0.1924
     86  C         12.9290  -32.0690   18.5750 C.2   365  SER365      0.2314
     87  O         12.5080  -31.7060   17.4910 O.2   365  SER365     -0.2863
     88  CB        14.3140  -34.1270   18.6450 C.3   365  SER365      0.2116
     89  OG        14.3610  -35.5130   18.9390 O.3   365  SER365     -0.2180
     90  N         19.8400  -31.0130   21.0000 N.3   381  LEU381     -0.1245
     91  CA        18.5110  -31.5460   20.6970 C.3   381  LEU381      0.1561
     92  C         17.9260  -32.2550   21.9040 C.2   381  LEU381      0.2260
     93  O         18.5970  -33.0590   22.5500 O.2   381  LEU381     -0.2867
     94  CB        18.5750  -32.5210   19.5340 C.3   381  LEU381      0.0270
     95  CG        18.7640  -31.8760   18.1730 C.3   381  LEU381      0.0019
     96  CD1       19.3610  -32.8650   17.1810 C.3   381  LEU381      0.0001
     97  CD2       17.4680  -31.2420   17.6290 C.3   381  LEU381      0.0001
     98  N         13.8460  -33.6650   23.7000 N.3   383  ARG383     -0.1245
     99  CA        12.4880  -34.0850   23.4140 C.3   383  ARG383      0.1563
    100  C         11.7300  -34.1850   24.7100 C.2   383  ARG383      0.2260
    101  O         12.3220  -34.1370   25.7810 O.2   383  ARG383     -0.2867
    102  CB        12.4740  -35.4300   22.6860 C.3   383  ARG383      0.0307
    103  CG        13.0650  -36.6160   23.4710 C.3   383  ARG383      0.0489
    104  CD        12.5790  -37.9550   22.9450 C.3   383  ARG383      0.2205
    105  NE        11.1530  -38.1180   23.2030 N.pl3 383  ARG383     -0.0865
    106  CZ        10.3290  -38.8690   22.4800 C.cat 383  ARG383      0.5346
    107  NH1       10.7770  -39.5520   21.4460 N.pl3 383  ARG383      0.1354
    108  NH2        9.0420  -38.9280   22.7940 N.pl3 383  ARG383      0.1354
    109  N          9.3570  -46.1050   28.8820 N.3   391  ARG391     -0.1245
    110  CA        10.0160  -47.2520   28.2780 C.3   391  ARG391      0.1563
    111  C         11.1870  -47.7130   29.1480 C.2   391  ARG391      0.2260
    112  O         11.4410  -48.9110   29.2760 O.2   391  ARG391     -0.2867
    113  CB        10.4420  -46.9270   26.8460 C.3   391  ARG391      0.0307
    114  CG         9.2540  -46.7800   25.9420 C.3   391  ARG391      0.0489
    115  CD         9.5650  -46.4740   24.4980 C.3   391  ARG391      0.2205
    116  NE         8.3040  -46.4350   23.7750 N.pl3 391  ARG391     -0.0865
    117  CZ         8.1380  -46.0320   22.5220 C.cat 391  ARG391      0.5346
    118  NH1        9.1690  -45.6630   21.7770 N.pl3 391  ARG391      0.1354
    119  NH2        6.9210  -46.0370   22.0040 N.pl3 391  ARG391      0.1354
    120  N         15.6620  -49.2120   24.5880 N.3   404  SER404     -0.1217
    121  CA        15.4970  -47.8140   24.1780 C.3   404  SER404      0.1889
    122  C         16.2540  -46.8680   25.1030 C.2   404  SER404      0.2288
    123  O         16.7180  -45.8030   24.6840 O.2   404  SER404     -0.2866
    124  CB        14.0210  -47.4190   24.1020 C.3   404  SER404      0.2089
    125  OG        13.3930  -47.3880   25.3730 O.3   404  SER404     -0.2183
    126  N         19.7550  -46.2680   23.7050 N.3   407  GLY407     -0.1210
    127  CA        19.6420  -45.4240   22.5300 C.3   407  GLY407      0.1956
    128  C         19.3560  -43.9820   22.9130 C.2   407  GLY407      0.2611
    129  O         19.9520  -43.0580   22.3710 O.2   407  GLY407     -0.2717
    130  N         18.4470  -43.7920   23.8590 N.am  408  ASN408     -0.1974
    131  CA        18.0970  -42.4590   24.3150 C.3   408  ASN408      0.1688
    132  C         19.2280  -41.7420   25.0450 C.2   408  ASN408      0.2292
    133  O         19.4100  -40.5340   24.8670 O.2   408  ASN408     -0.2864
    134  CB        16.8460  -42.4980   25.1800 C.3   408  ASN408      0.1181
    135  CG        15.5700  -42.5540   24.3640 C.2   408  ASN408      0.2629
    136  OD1       15.4350  -41.8550   23.3720 O.2   408  ASN408     -0.2716
    137  ND2       14.6150  -43.3710   24.8020 N.am  408  ASN408     -0.0877
    138  N         21.5650  -40.7210   22.1050 N.3   411  MET411     -0.1230
    139  CA        21.0510  -39.6690   21.2110 C.3   411  MET411      0.1702
    140  C         20.7250  -38.3500   21.9300 C.2   411  MET411      0.2592
    141  O         20.7830  -37.2740   21.3130 O.2   411  MET411     -0.2718
    142  CB        19.8400  -40.1890   20.4290 C.3   411  MET411      0.0401
    143  CG        20.2190  -41.3670   19.5160 C.3   411  MET411      0.0596
    144  SD        21.4820  -41.0570   18.2480 S.3   411  MET411     -0.1393
    145  CE        20.4330  -40.3150   16.9980 C.3   411  MET411      0.0692
    146  N         20.4270  -38.4370   23.2250 N.am  412  PHE412     -0.1976
    147  CA        20.0290  -37.2810   24.0350 C.3   412  PHE412      0.1639
    148  C         20.9410  -37.0180   25.2410 C.2   412  PHE412      0.2290
    149  O         20.5240  -36.3860   26.2290 O.2   412  PHE412     -0.2864
    150  CB        18.5800  -37.4550   24.4990 C.3   412  PHE412      0.0560
    151  CG        17.5900  -37.4470   23.3810 C.ar  412  PHE412     -0.0200
    152  CD1       17.3170  -36.2700   22.7070 C.ar  412  PHE412     -0.0042
    153  CD2       16.9580  -38.6100   22.9650 C.ar  412  PHE412     -0.0042
    154  CE1       16.4250  -36.2520   21.6590 C.ar  412  PHE412     -0.0003
    155  CE2       16.0530  -38.5830   21.9040 C.ar  412  PHE412     -0.0003
    156  CZ        15.7860  -37.4050   21.2650 C.ar  412  PHE412     -0.0000
    157  N         19.1150  -49.3700   19.3970 N.3   443  GLU443     -0.1231
    158  CA        19.0090  -48.9210   18.0100 C.3   443  GLU443      0.1699
    159  C         19.5180  -47.5030   17.8380 C.2   443  GLU443      0.2592
    160  O         19.3550  -46.6610   18.7200 O.2   443  GLU443     -0.2718
    161  CB        17.5700  -49.0270   17.5260 C.3   443  GLU443      0.0402
    162  CG        17.1080  -50.4670   17.3820 C.3   443  GLU443      0.1161
    163  CD        15.6130  -50.6040   17.2160 C.2   443  GLU443      0.3649
    164  OE1       14.8730  -49.7610   17.7630 O.co2 443  GLU443     -0.2457
    165  OE2       15.1800  -51.5740   16.5560 O.co2 443  GLU443     -0.2457
    166  N         20.1540  -47.2610   16.6960 N.am  444  ILE444     -0.1966
    167  CA        20.5640  -45.9240   16.2760 C.3   444  ILE444      0.1727
    168  C         20.1000  -45.7690   14.8300 C.2   444  ILE444      0.2616
    169  O         20.5180  -46.5310   13.9430 O.2   444  ILE444     -0.2715
    170  CB        22.0780  -45.7150   16.3600 C.3   444  ILE444      0.0290
    171  CG1       22.5800  -45.9320   17.7900 C.3   444  ILE444      0.0022
    172  CG2       22.4600  -44.3020   15.8530 C.3   444  ILE444      0.0023
    173  CD1       24.0910  -45.9990   17.9020 C.3   444  ILE444      0.0001
    174  N         19.2100  -44.8080   14.6060 N.am  445  TYR445     -0.1960
    175  CA        18.5230  -44.6690   13.3170 C.3   445  TYR445      0.1771
    176  C         17.9710  -46.0040   12.7900 C.2   445  TYR445      0.2620
    177  O         18.0960  -46.3270   11.6140 O.2   445  TYR445     -0.2715
    178  CB        19.4350  -44.0060   12.2830 C.3   445  TYR445      0.0574
    179  CG        19.8200  -42.5640   12.5880 C.ar  445  TYR445     -0.0198
    180  CD1       19.1160  -41.7890   13.5140 C.ar  445  TYR445     -0.0009
    181  CD2       20.8840  -41.9570   11.9130 C.ar  445  TYR445     -0.0009
    182  CE1       19.4840  -40.4660   13.7700 C.ar  445  TYR445      0.0417
    183  CE2       21.2430  -40.6350   12.1580 C.ar  445  TYR445      0.0417
    184  CZ        20.5350  -39.8880   13.0930 C.ar  445  TYR445      0.1957
    185  OH        20.8760  -38.5660   13.3640 O.3   445  TYR445     -0.2866
    186  N         17.3740  -46.7960   13.6730 N.am  446  GLY446     -0.1954
    187  CA        16.6550  -47.9930   13.2460 C.3   446  GLY446      0.1869
    188  C         17.5020  -49.2390   13.0920 C.2   446  GLY446      0.2309
    189  O         16.9630  -50.3450   12.9780 O.2   446  GLY446     -0.2863
    190  N         15.1010  -48.0650    9.9170 N.3   553  SER553     -0.1217
    191  CA        13.9520  -48.5020   10.7000 C.3   553  SER553      0.1889
    192  C         13.0370  -49.4090    9.8760 C.2   553  SER553      0.2288
    193  O         12.6710  -49.0830    8.7460 O.2   553  SER553     -0.2866
    194  CB        13.1610  -47.3260   11.2580 C.3   553  SER553      0.2089
    195  OG        12.1560  -47.7970   12.1270 O.3   553  SER553     -0.2183
@<TRIPOS>BOND
     1    48    49    1
     2    51    50    2
     3    50    49    1
     4    49    52    1
     5    54    53    2
     6    41    42    1
     7    44    43    2
     8    52    53    1
     9    42    43    1
    10    42    45    1
    11    53    55   am
    12    46    45    1
    13    45    47    1
    14    57    56    1
    15    57    60    1
    16    57    58    1
    17    60    61    1
    18    67    66    2
    19    59    58    2
    20    58    64   am
    21    19    21   ar
    22    19    17   ar
    23    21    22   ar
    24    12    13    1
    25    66    65    1
    26    64    65    1
    27    16    17    1
    28    16    13    1
    29    14    13    1
    30    14    15    2
    31    61    63   ar
    32    61    62   ar
    33    17    18   ar
    34   193   192    2
    35    65    68    1
    36    22    20   ar
    37    18    20   ar
    38   192   191    1
    39   190   191    1
    40    68    69    1
    41    71    69   ar
    42   191   194    1
    43    69    70   ar
    44   194   195    1
    45   177   176    2
    46    39    38    1
    47   181   183   ar
    48   181   179   ar
    49   183   184   ar
    50    40    38    1
    51   178   179    1
    52   178   175    1
    53    38    37    2
    54   179   180   ar
    55    77    76    1
    56   176   175    1
    57   176   186   am
    58   189   188    2
    59   188   187    1
    60   184   185    1
    61   184   182   ar
    62    33    32    2
    63    31    30    1
    64    31    34    1
    65    31    32    1
    66    35    34    1
    67    35    36    1
    68   187   186    1
    69   175   174    1
    70    37    36    1
    71   180   182   ar
    72   169   168    2
    73    72    73    1
    74    11     9    1
    75    76    73    1
    76     3     2    1
    77     3     4    2
    78   174   168   am
    79     9    10    1
    80     9     8    2
    81    73    74    1
    82   168   167    1
    83     7     8    1
    84     7     6    1
    85     5     2    1
    86     5     6    1
    87     2     1    1
    88   172   170    1
    89    23    24    1
    90    23    29    1
    91   167   170    1
    92   167   166    1
    93    74    78   am
    94    74    75    2
    95   170   171    1
    96   165   163   ar
    97    26    25    2
    98   166   159   am
    99    78    79    1
   100    25    24    1
   101    24    27    1
   102   145   144    1
   103    29    28    1
   104    96    95    1
   105   163   162    1
   106   163   164   ar
   107   162   161    1
   108    87    86    2
   109   161   158    1
   110    97    95    1
   111   171   173    1
   112   159   158    1
   113   159   160    2
   114   158   157    1
   115    79    80    1
   116    79    82    1
   117    95    94    1
   118    28    27    1
   119    84    80   am
   120    84    85    1
   121   144   143    1
   122    83    82    1
   123    86    85    1
   124    88    89    1
   125    88    85    1
   126    80    81    2
   127   143   142    1
   128    94    91    1
   129   142   139    1
   130    91    90    1
   131    91    92    1
   132   139   140    1
   133   139   138    1
   134   156   154   ar
   135   156   155   ar
   136   141   140    2
   137   107   106    1
   138   154   152   ar
   139   118   117    1
   140    92    93    2
   141   155   153   ar
   142   140   146   am
   143   119   117    1
   144   129   128    2
   145   106   108    1
   146   106   105    2
   147   117   116    2
   148   127   128    1
   149   127   126    1
   150   102    99    1
   151   102   103    1
   152   152   151   ar
   153   128   130   am
   154   104   105    1
   155   104   103    1
   156   153   151   ar
   157   146   147    1
   158   136   135    2
   159   151   150    1
   160    99    98    1
   161    99   100    1
   162   116   115    1
   163   130   131    1
   164   147   150    1
   165   147   148    1
   166   124   121    1
   167   124   125    1
   168   121   120    1
   169   121   122    1
   170   131   132    1
   171   131   134    1
   172   135   137   am
   173   135   134    1
   174   115   114    1
   175   123   122    2
   176   100   101    2
   177   133   132    2
   178   148   149    2
   179   114   113    1
   180   113   110    1
   181   110   109    1
   182   110   111    1
   183   111   112    2
