@<TRIPOS>MOLECULE
tmp/3hl3A00.pdb
 169 159 0 0 0
SMALL
GASTEIGER

@<TRIPOS>ATOM
      1  N         40.8050   37.8120   38.9080 N.3    14  ARG14      -0.1245
      2  CA        42.0780   37.1480   39.1530 C.3    14  ARG14       0.1563
      3  C         42.8870   37.9010   40.2030 C.2    14  ARG14       0.2260
      4  O         43.6490   37.3070   40.9390 O.2    14  ARG14      -0.2867
      5  CB        42.8950   37.1530   37.8720 C.3    14  ARG14       0.0307
      6  CG        42.5610   36.0910   36.8590 C.3    14  ARG14       0.0489
      7  CD        43.2090   34.8130   37.2750 C.3    14  ARG14       0.2205
      8  NE        43.2360   33.8470   36.1890 N.pl3  14  ARG14      -0.0865
      9  CZ        43.8200   32.6550   36.2680 C.cat  14  ARG14       0.5346
     10  NH1       44.4360   32.2780   37.3930 N.pl3  14  ARG14       0.1354
     11  NH2       43.7920   31.8370   35.2220 N.pl3  14  ARG14       0.1354
     12  N         41.7970   47.1770   37.2260 N.3    24  LYS24      -0.1245
     13  CA        43.1080   46.5850   36.9900 C.3    24  LYS24       0.1561
     14  C         44.0700   47.5100   36.2510 C.2    24  LYS24       0.2260
     15  O         45.2420   47.6290   36.6060 O.2    24  LYS24      -0.2867
     16  CB        42.9380   45.2920   36.1770 C.3    24  LYS24       0.0271
     17  CG        44.2430   44.7330   35.6410 C.3    24  LYS24       0.0035
     18  CD        44.1010   43.3330   35.0210 C.3    24  LYS24       0.0206
     19  CE        43.2590   43.3010   33.7720 C.3    24  LYS24       0.1093
     20  NZ        43.2980   41.9340   33.1540 N.3    24  LYS24      -0.1314
     21  N         36.6800   40.4280   25.1600 N.3    87  ILE87      -0.1245
     22  CA        37.6480   41.0680   24.2480 C.3    87  ILE87       0.1561
     23  C         37.2120   41.2250   22.7540 C.2    87  ILE87       0.2260
     24  O         37.5200   42.2460   22.1340 O.2    87  ILE87      -0.2867
     25  CB        39.0630   40.3460   24.4010 C.3    87  ILE87       0.0252
     26  CG1       39.8690   40.9900   25.5460 C.3    87  ILE87       0.0019
     27  CG2       39.9080   40.4270   23.1270 C.3    87  ILE87       0.0019
     28  CD1       39.1480   41.0790   26.9190 C.3    87  ILE87       0.0001
     29  N         45.5320   45.2270   24.2530 N.3   107  LEU107     -0.1245
     30  CA        44.8400   44.8270   25.4620 C.3   107  LEU107      0.1561
     31  C         45.5680   45.5800   26.5980 C.2   107  LEU107      0.2260
     32  O         46.7800   45.5330   26.7130 O.2   107  LEU107     -0.2867
     33  CB        44.8800   43.3050   25.6600 C.3   107  LEU107      0.0270
     34  CG        44.3530   42.4610   24.4840 C.3   107  LEU107      0.0019
     35  CD1       44.2790   40.9910   24.8860 C.3   107  LEU107      0.0001
     36  CD2       42.9920   42.9340   24.0020 C.3   107  LEU107      0.0001
     37  N         46.3400   45.1860   29.6740 N.3   109  ASP109     -0.1225
     38  CA        47.2630   44.5790   30.6380 C.3   109  ASP109      0.1805
     39  C         48.5040   43.9510   29.9990 C.2   109  ASP109      0.2597
     40  O         49.2530   43.2500   30.6840 O.2   109  ASP109     -0.2718
     41  CB        46.5420   43.5720   31.5550 C.3   109  ASP109      0.1424
     42  CG        46.2270   42.2500   30.8660 C.2   109  ASP109      0.3668
     43  OD1       46.2550   42.2010   29.6260 O.co2 109  ASP109     -0.2456
     44  OD2       45.9560   41.2540   31.5790 O.co2 109  ASP109     -0.2456
     45  N         48.7130   44.2000   28.7010 N.am  110  ASN110     -0.1974
     46  CA        49.9080   43.7240   27.9850 C.3   110  ASN110      0.1688
     47  C         51.0280   44.7810   27.9900 C.2   110  ASN110      0.2292
     48  O         50.9570   45.7900   27.2880 O.2   110  ASN110     -0.2864
     49  CB        49.5780   43.3190   26.5490 C.3   110  ASN110      0.1181
     50  CG        48.9420   41.9450   26.4560 C.2   110  ASN110      0.2629
     51  OD1       49.2020   41.2040   25.5140 O.2   110  ASN110     -0.2716
     52  ND2       48.1380   41.5870   27.4430 N.am  110  ASN110     -0.0877
     53  N         48.6040   29.2620   28.7530 N.3   142  ARG142     -0.1231
     54  CA        47.7980   30.3880   29.2250 C.3   142  ARG142      0.1694
     55  C         47.3760   31.3630   28.1430 C.2   142  ARG142      0.2592
     56  O         46.5800   32.2470   28.4000 O.2   142  ARG142     -0.2718
     57  CB        48.5970   31.1850   30.2480 C.3   142  ARG142      0.0321
     58  CG        49.0380   30.4140   31.4950 C.3   142  ARG142      0.0489
     59  CD        50.0080   31.2800   32.2780 C.3   142  ARG142      0.2205
     60  NE        49.4260   32.5970   32.5500 N.pl3 142  ARG142     -0.0865
     61  CZ        50.1270   33.7100   32.7810 C.cat 142  ARG142      0.5346
     62  NH1       51.4600   33.6940   32.7490 N.pl3 142  ARG142      0.1354
     63  NH2       49.4910   34.8560   33.0160 N.pl3 142  ARG142      0.1354
     64  N         47.8840   31.2050   26.9360 N.am  143  PHE143     -0.1962
     65  CA        47.6140   32.1780   25.8970 C.3   143  PHE143      0.1771
     66  C         47.0760   31.5870   24.6160 C.2   143  PHE143      0.2620
     67  O         46.7450   30.4080   24.5410 O.2   143  PHE143     -0.2715
     68  CB        48.9410   32.8790   25.5590 C.3   143  PHE143      0.0574
     69  CG        49.6870   33.3530   26.7590 C.ar  143  PHE143     -0.0200
     70  CD1       49.3630   34.5650   27.3630 C.ar  143  PHE143     -0.0042
     71  CD2       50.7040   32.5900   27.3020 C.ar  143  PHE143     -0.0042
     72  CE1       50.0480   35.0040   28.4890 C.ar  143  PHE143     -0.0003
     73  CE2       51.3910   33.0220   28.4370 C.ar  143  PHE143     -0.0003
     74  CZ        51.0610   34.2330   29.0260 C.ar  143  PHE143     -0.0000
     75  N         46.9670   32.4480   23.6110 N.am  144  GLY144     -0.1954
     76  CA        46.6520   32.0260   22.2630 C.3   144  GLY144      0.1869
     77  C         48.0160   31.5860   21.7410 C.2   144  GLY144      0.2309
     78  O         49.0100   32.2740   21.9830 O.2   144  GLY144     -0.2863
     79  N         43.5630   28.8980   21.0890 N.3   158  GLU158     -0.1231
     80  CA        43.3850   29.6150   22.3660 C.3   158  GLU158      0.1699
     81  C         43.5220   28.6260   23.5350 C.2   158  GLU158      0.2592
     82  O         42.8630   27.5990   23.5440 O.2   158  GLU158     -0.2718
     83  CB        42.0210   30.3310   22.3910 C.3   158  GLU158      0.0402
     84  CG        41.7570   31.2170   23.6130 C.3   158  GLU158      0.1161
     85  CD        42.6440   32.4760   23.6870 C.2   158  GLU158      0.3649
     86  OE1       43.3250   32.8040   22.6800 O.co2 158  GLU158     -0.2457
     87  OE2       42.6440   33.1430   24.7640 O.co2 158  GLU158     -0.2457
     88  N         44.3870   28.9580   24.5060 N.am  159  LYS159     -0.1980
     89  CA        44.6760   28.1070   25.6810 C.3   159  LYS159      0.1596
     90  C         44.8280   26.5940   25.4580 C.2   159  LYS159      0.2287
     91  O         44.2100   25.7970   26.1660 O.2   159  LYS159     -0.2864
     92  CB        43.6670   28.3210   26.8240 C.3   159  LYS159      0.0298
     93  CG        43.8480   29.5660   27.7120 C.3   159  LYS159      0.0038
     94  CD        43.1510   30.8100   27.1920 C.3   159  LYS159      0.0206
     95  CE        43.0550   31.8740   28.2950 C.3   159  LYS159      0.1093
     96  NZ        42.3440   33.1130   27.8520 N.3   159  LYS159     -0.1314
     97  N         50.5630   34.3470   21.1540 N.3   169  VAL169     -0.1245
     98  CA        50.0680   35.4810   20.3750 C.3   169  VAL169      0.1561
     99  C         49.7390   36.5840   21.3780 C.2   169  VAL169      0.2260
    100  O         48.7480   36.4870   22.1130 O.2   169  VAL169     -0.2867
    101  CB        48.8080   35.1130   19.5350 C.3   169  VAL169      0.0252
    102  CG1       48.2860   36.3340   18.7560 C.3   169  VAL169      0.0019
    103  CG2       49.1260   33.9620   18.5820 C.3   169  VAL169      0.0019
    104  N         48.7730   40.3390   23.0340 N.3   171  GLY171     -0.1225
    105  CA        47.5640   41.1720   22.9010 C.3   171  GLY171      0.1811
    106  C         47.7740   42.5120   22.2130 C.2   171  GLY171      0.2280
    107  O         47.3500   43.5520   22.7110 O.2   171  GLY171     -0.2866
    108  N         47.2600   43.6920   18.3470 N.3   173  TYR173     -0.1241
    109  CA        46.7570   43.2840   17.0480 C.3   173  TYR173      0.1605
    110  C         46.6390   44.4590   16.1010 C.2   173  TYR173      0.2264
    111  O         46.1960   45.5500   16.4910 O.2   173  TYR173     -0.2867
    112  CB        45.3720   42.6600   17.2170 C.3   173  TYR173      0.0534
    113  CG        45.2790   41.6840   18.3770 C.ar  173  TYR173     -0.0201
    114  CD1       45.8460   40.4150   18.2880 C.ar  173  TYR173     -0.0009
    115  CD2       44.6190   42.0230   19.5500 C.ar  173  TYR173     -0.0009
    116  CE1       45.7670   39.5080   19.3390 C.ar  173  TYR173      0.0417
    117  CE2       44.5350   41.1180   20.6110 C.ar  173  TYR173      0.0417
    118  CZ        45.1140   39.8610   20.4890 C.ar  173  TYR173      0.1957
    119  OH        45.0490   38.9560   21.5080 O.3   173  TYR173     -0.2866
    120  N         36.0140   34.7080   20.2250 N.3   195  GLU195     -0.1231
    121  CA        37.2730   35.0480   20.8550 C.3   195  GLU195      0.1699
    122  C         38.1770   35.6720   19.8300 C.2   195  GLU195      0.2592
    123  O         38.0170   35.4470   18.6340 O.2   195  GLU195     -0.2718
    124  CB        37.9270   33.8130   21.4610 C.3   195  GLU195      0.0402
    125  CG        37.2130   33.3220   22.6970 C.3   195  GLU195      0.1161
    126  CD        37.8500   32.0900   23.3000 C.2   195  GLU195      0.3649
    127  OE1       38.4000   31.2580   22.5450 O.co2 195  GLU195     -0.2457
    128  OE2       37.7840   31.9360   24.5390 O.co2 195  GLU195     -0.2457
    129  N         39.1370   36.4610   20.2950 N.am  196  ILE196     -0.1966
    130  CA        40.0600   37.1410   19.3940 C.3   196  ILE196      0.1727
    131  C         40.7630   36.1390   18.4720 C.2   196  ILE196      0.2616
    132  O         41.0310   36.4430   17.3030 O.2   196  ILE196     -0.2715
    133  CB        41.1170   37.9540   20.1650 C.3   196  ILE196      0.0290
    134  CG1       41.7230   39.0210   19.2590 C.3   196  ILE196      0.0022
    135  CG2       42.1830   37.0460   20.7490 C.3   196  ILE196      0.0023
    136  CD1       40.7370   40.1020   18.8670 C.3   196  ILE196      0.0001
    137  N         41.0520   34.9470   18.9880 N.am  197  THR197     -0.1951
    138  CA        41.6970   33.9280   18.1770 C.3   197  THR197      0.1897
    139  C         40.8850   33.6110   16.8990 C.2   197  THR197      0.2313
    140  O         41.4610   33.4490   15.8130 O.2   197  THR197     -0.2863
    141  CB        41.9540   32.6630   18.9960 C.3   197  THR197      0.1794
    142  OG1       42.9170   32.9650   20.0080 O.3   197  THR197     -0.2208
    143  CG2       42.4940   31.5380   18.1190 C.3   197  THR197      0.0378
    144  N         57.9750   40.8840   27.2220 N.3   218  TRP218     -0.1241
    145  CA        56.5420   41.0700   27.2040 C.3   218  TRP218      0.1605
    146  C         55.9320   40.2640   28.3230 C.2   218  TRP218      0.2264
    147  O         56.4430   39.2180   28.6890 O.2   218  TRP218     -0.2867
    148  CB        55.9680   40.6330   25.8650 C.3   218  TRP218      0.0550
    149  CG        54.4810   40.5120   25.8340 C.ar  218  TRP218      0.0003
    150  CD1       53.5910   41.4760   25.5030 C.ar  218  TRP218      0.0946
    151  CD2       53.7150   39.3440   26.1330 C.ar  218  TRP218      0.0152
    152  NE1       52.3130   40.9900   25.5820 N.ar  218  TRP218     -0.2442
    153  CE2       52.3610   39.6810   25.9700 C.ar  218  TRP218      0.0810
    154  CE3       54.0430   38.0450   26.5240 C.ar  218  TRP218      0.0012
    155  CZ2       51.3300   38.7680   26.1850 C.ar  218  TRP218      0.0191
    156  CZ3       53.0200   37.1380   26.7350 C.ar  218  TRP218      0.0001
    157  CH2       51.6780   37.5060   26.5650 C.ar  218  TRP218      0.0015
    158  N         51.8440   39.7780   30.4800 N.3   220  ASP220     -0.1239
    159  CA        50.5130   40.2300   30.8150 C.3   220  ASP220      0.1674
    160  C         50.6270   40.7000   32.2740 C.2   220  ASP220      0.2266
    161  O         51.6150   40.4080   32.9560 O.2   220  ASP220     -0.2867
    162  CB        49.4960   39.1100   30.7330 C.3   220  ASP220      0.1410
    163  CG        49.7880   38.0000   31.7180 C.2   220  ASP220      0.3668
    164  OD1       50.6370   37.1360   31.4100 O.co2 220  ASP220     -0.2456
    165  OD2       49.1620   37.9780   32.8000 O.co2 220  ASP220     -0.2456
    166  N         47.7890   40.3600   34.4520 N.3   222  GLY222     -0.1225
    167  CA        46.4840   39.9110   34.9490 C.3   222  GLY222      0.1811
    168  C         46.4100   38.9880   36.1560 C.2   222  GLY222      0.2280
    169  O         45.3170   38.5600   36.5200 O.2   222  GLY222     -0.2866
@<TRIPOS>BOND
     1   140   139    2
     2   110   111    2
     3   110   109    1
     4   139   138    1
     5   109   112    1
     6   109   108    1
     7   112   113    1
     8   132   131    2
     9   143   141    1
    10   138   137    1
    11   138   141    1
    12   114   113   ar
    13   114   116   ar
    14   113   115   ar
    15   131   137   am
    16   131   130    1
    17   103   101    1
    18   123   122    2
    19   102   101    1
    20   136   134    1
    21   141   142    1
    22   134   133    1
    23   116   118   ar
    24   130   133    1
    25   130   129    1
    26   101    98    1
    27   115   117   ar
    28   122   129   am
    29   122   121    1
    30   133   135    1
    31   120   121    1
    32    98    97    1
    33    98    99    1
    34   118   117   ar
    35   118   119    1
    36   121   124    1
    37    79    80    1
    38    99   100    2
    39   124   125    1
    40    77    78    2
    41    77    76    1
    42    24    23    2
    43   106   107    2
    44   106   105    1
    45    76    75    1
    46    80    83    1
    47    80    81    1
    48    83    84    1
    49   127   126   ar
    50    86    85   ar
    51   125   126    1
    52    23    22    1
    53   105   104    1
    54    27    25    1
    55   126   128   ar
    56    81    82    2
    57    81    88   am
    58    75    66   am
    59    84    85    1
    60    85    87   ar
    61    36    34    1
    62    22    25    1
    63    22    21    1
    64    29    30    1
    65    25    26    1
    66    34    35    1
    67    34    33    1
    68    88    89    1
    69    67    66    2
    70    66    65    1
    71    90    89    1
    72    90    91    2
    73    30    33    1
    74    30    31    1
    75   150   152   ar
    76   150   149   ar
    77    51    50    2
    78    26    28    1
    79    68    65    1
    80    68    69    1
    81   152   153   ar
    82    89    92    1
    83   149   148    1
    84   149   151   ar
    85   148   145    1
    86    65    64    1
    87   153   151   ar
    88   153   155   ar
    89   151   154   ar
    90   155   157   ar
    91    50    49    1
    92    50    52   am
    93   154   156   ar
    94    49    46    1
    95   157   156   ar
    96    31    32    2
    97    69    71   ar
    98    69    70   ar
    99    92    93    1
   100    64    55   am
   101    94    93    1
   102    94    95    1
   103   145   144    1
   104   145   146    1
   105    48    47    2
   106    71    73   ar
   107    70    72   ar
   108    96    95    1
   109    46    47    1
   110    46    45    1
   111    55    56    2
   112    55    54    1
   113   146   147    2
   114    73    74   ar
   115    72    74   ar
   116    45    39   am
   117    53    54    1
   118    54    57    1
   119    43    42   ar
   120    37    38    1
   121    39    38    1
   122    39    40    2
   123    57    58    1
   124   158   159    1
   125    38    41    1
   126   162   159    1
   127   162   163    1
   128   159   160    1
   129    42    41    1
   130    42    44   ar
   131   164   163   ar
   132    58    59    1
   133   163   165   ar
   134   160   161    2
   135    59    60    1
   136    60    61    2
   137    62    61    1
   138    61    63    1
   139    20    19    1
   140    19    18    1
   141   166   167    1
   142   167   168    1
   143    18    17    1
   144    11     9    1
   145    17    16    1
   146   168   169    2
   147    16    13    1
   148     8     9    2
   149     8     7    1
   150    14    15    2
   151    14    13    1
   152     9    10    1
   153     6     7    1
   154     6     5    1
   155    13    12    1
   156     5     2    1
   157     1     2    1
   158     2     3    1
   159     3     4    2
