@<TRIPOS>MOLECULE
tmp/3hl5B00.pdb
 103 103 0 0 0
SMALL
GASTEIGER

@<TRIPOS>ATOM
      1  N        -15.0310    7.6240  -26.1540 N.3    42  LYS42      -0.1245
      2  CA       -14.8130    8.5020  -25.0090 C.3    42  LYS42       0.1561
      3  C        -16.0710    8.6350  -24.1470 C.2    42  LYS42       0.2260
      4  O        -17.1300    9.0460  -24.6330 O.2    42  LYS42      -0.2867
      5  CB       -14.3690    9.8820  -25.4960 C.3    42  LYS42       0.0271
      6  CG       -13.5100   10.6440  -24.5160 C.3    42  LYS42       0.0035
      7  CD       -13.3860   12.1220  -24.8790 C.3    42  LYS42       0.0206
      8  CE       -12.6260   12.3500  -26.1800 C.3    42  LYS42       0.1093
      9  NZ       -12.4350   13.8140  -26.4270 N.3    42  LYS42      -0.1314
     10  N        -13.2160   10.9800  -16.8840 N.3    51  GLY51      -0.1210
     11  CA       -13.3050   10.4690  -18.2510 C.3    51  GLY51       0.1956
     12  C        -12.4350    9.2480  -18.4980 C.2    51  GLY51       0.2612
     13  O        -11.3700    9.1020  -17.8900 O.2    51  GLY51      -0.2717
     14  N        -12.8940    8.3670  -19.3870 N.am   52  LEU52      -0.1965
     15  CA       -12.1100    7.2060  -19.8230 C.3    52  LEU52       0.1728
     16  C        -12.3110    6.9420  -21.3110 C.2    52  LEU52       0.2617
     17  O        -13.4290    7.0440  -21.8320 O.2    52  LEU52      -0.2715
     18  CB       -12.4700    5.9500  -19.0200 C.3    52  LEU52       0.0311
     19  CG       -12.0490    5.8870  -17.5440 C.3    52  LEU52       0.0022
     20  CD1      -12.6350    4.6550  -16.8500 C.3    52  LEU52       0.0001
     21  CD2      -10.5250    5.9440  -17.3820 C.3    52  LEU52       0.0001
     22  N        -11.2190    6.5890  -21.9790 N.am   53  THR53      -0.1937
     23  CA       -11.2370    6.3230  -23.4110 C.3    53  THR53       0.2028
     24  C        -10.4680    5.0420  -23.7390 C.2    53  THR53       0.2642
     25  O         -9.7360    4.5230  -22.8930 O.2    53  THR53      -0.2714
     26  CB       -10.6470    7.5200  -24.1990 C.3    53  THR53       0.1808
     27  OG1      -10.9890    7.4000  -25.5840 O.3    53  THR53      -0.2208
     28  CG2       -9.1250    7.5870  -24.0560 C.3    53  THR53       0.0379
     29  N        -10.6460    4.5450  -24.9660 N.am   54  ASP54      -0.1957
     30  CA        -9.8970    3.3910  -25.4830 C.3    54  ASP54       0.1840
     31  C        -10.1090    2.1550  -24.6050 C.2    54  ASP54       0.2622
     32  O         -9.1670    1.5750  -24.0510 O.2    54  ASP54      -0.2715
     33  CB        -8.4110    3.7340  -25.6840 C.3    54  ASP54       0.1450
     34  CG        -8.1960    4.8320  -26.7300 C.2    54  ASP54       0.3671
     35  OD1       -9.1040    5.0690  -27.5550 O.co2  54  ASP54      -0.2456
     36  OD2       -7.1190    5.4610  -26.7340 O.co2  54  ASP54      -0.2456
     37  N        -11.3770    1.7760  -24.4870 N.am   55  TRP55      -0.1960
     38  CA       -11.8020    0.6280  -23.6940 C.3    55  TRP55       0.1771
     39  C        -11.5630   -0.6740  -24.4380 C.2    55  TRP55       0.2619
     40  O        -11.7830   -0.7530  -25.6490 O.2    55  TRP55      -0.2715
     41  CB       -13.2930    0.7400  -23.4060 C.3    55  TRP55       0.0590
     42  CG       -13.6720    1.8100  -22.4420 C.ar   55  TRP55       0.0006
     43  CD1      -13.7010    3.1590  -22.6700 C.ar   55  TRP55       0.0946
     44  CD2      -14.1140    1.6200  -21.0990 C.ar   55  TRP55       0.0152
     45  NE1      -14.1270    3.8220  -21.5380 N.ar   55  TRP55      -0.2442
     46  CE2      -14.3900    2.8990  -20.5620 C.ar   55  TRP55       0.0810
     47  CE3      -14.3080    0.4900  -20.2930 C.ar   55  TRP55       0.0012
     48  CZ2      -14.8410    3.0790  -19.2490 C.ar   55  TRP55       0.0191
     49  CZ3      -14.7560    0.6730  -18.9890 C.ar   55  TRP55       0.0001
     50  CH2      -15.0190    1.9570  -18.4820 C.ar   55  TRP55       0.0015
     51  N        -11.1270   -1.6980  -23.7090 N.am   56  LYS56      -0.1977
     52  CA       -10.9390   -3.0250  -24.2840 C.3    56  LYS56       0.1596
     53  C        -12.1670   -3.8870  -23.9910 C.2    56  LYS56       0.2287
     54  O        -12.8490   -3.6680  -22.9830 O.2    56  LYS56      -0.2864
     55  CB        -9.6650   -3.6760  -23.7250 C.3    56  LYS56       0.0298
     56  CG        -8.4050   -2.8000  -23.8250 C.3    56  LYS56       0.0038
     57  CD        -8.0690   -2.4410  -25.2700 C.3    56  LYS56       0.0206
     58  CE        -6.8200   -1.5670  -25.3660 C.3    56  LYS56       0.1093
     59  NZ        -7.1120   -0.1230  -25.1320 N.3    56  LYS56      -0.1314
     60  N        -12.7950   -5.4130  -20.4790 N.3    59  GLU59      -0.1245
     61  CA       -12.8470   -4.5100  -19.3330 C.3    59  GLU59       0.1567
     62  C        -14.2500   -4.2680  -18.7960 C.2    59  GLU59       0.2260
     63  O        -15.1900   -4.0030  -19.5530 O.2    59  GLU59      -0.2867
     64  CB       -12.1380   -3.1950  -19.6620 C.3    59  GLU59       0.0388
     65  CG       -10.6800   -3.4160  -20.0260 C.3    59  GLU59       0.1160
     66  CD        -9.9250   -2.1420  -20.3110 C.2    59  GLU59       0.3649
     67  OE1      -10.5020   -1.2150  -20.9210 O.co2  59  GLU59      -0.2457
     68  OE2       -8.7350   -2.0820  -19.9390 O.co2  59  GLU59      -0.2457
     69  N        -13.0130   -0.6230  -13.8160 N.3    64  GLN64      -0.1245
     70  CA       -12.2600    0.5360  -14.2940 C.3    64  GLN64       0.1566
     71  C        -12.6100    1.8030  -13.5060 C.2    64  GLN64       0.2260
     72  O        -11.7230    2.5860  -13.1480 O.2    64  GLN64      -0.2867
     73  CB       -12.5050    0.7550  -15.7900 C.3    64  GLN64       0.0367
     74  CG       -11.8190   -0.2770  -16.6940 C.3    64  GLN64       0.0905
     75  CD       -10.3110   -0.1420  -16.6830 C.2    64  GLN64       0.2608
     76  OE1       -9.7670    0.9170  -16.9940 O.2    64  GLN64      -0.2717
     77  NE2       -9.6270   -1.2160  -16.3170 N.am   64  GLN64      -0.0878
     78  N         -9.5620    3.7500  -11.3580 N.3    68  TRP68      -0.1227
     79  CA        -9.1250    5.1090  -11.6570 C.3    68  TRP68       0.1737
     80  C         -9.7120    6.1310  -10.6990 C.2    68  TRP68       0.2595
     81  O         -9.0330    7.0920  -10.3210 O.2    68  TRP68      -0.2718
     82  CB        -9.5140    5.4940  -13.0830 C.3    68  TRP68       0.0564
     83  CG        -8.7800    4.7350  -14.1480 C.ar   68  TRP68       0.0003
     84  CD1       -9.2310    3.6470  -14.8400 C.ar   68  TRP68       0.0946
     85  CD2       -7.4720    5.0250  -14.6590 C.ar   68  TRP68       0.0152
     86  NE1       -8.2790    3.2300  -15.7420 N.ar   68  TRP68      -0.2442
     87  CE2       -7.1920    4.0620  -15.6580 C.ar   68  TRP68       0.0810
     88  CE3       -6.5070    6.0020  -14.3690 C.ar   68  TRP68       0.0012
     89  CZ2       -5.9840    4.0450  -16.3690 C.ar   68  TRP68       0.0191
     90  CZ3       -5.3080    5.9860  -15.0760 C.ar   68  TRP68       0.0001
     91  CH2       -5.0580    5.0110  -16.0690 C.ar   68  TRP68       0.0015
     92  N        -10.9710    5.9290  -10.3130 N.am   69  TYR69      -0.1976
     93  CA       -11.7110    6.9520   -9.5770 C.3    69  TYR69       0.1639
     94  C        -12.3980    6.4110   -8.3140 C.2    69  TYR69       0.2290
     95  O        -13.6230    6.4660   -8.1960 O.2    69  TYR69      -0.2864
     96  CB       -12.7230    7.6350  -10.5100 C.3    69  TYR69       0.0560
     97  CG       -12.1320    8.1320  -11.8270 C.ar   69  TYR69      -0.0198
     98  CD1      -12.6770    7.7430  -13.0530 C.ar   69  TYR69      -0.0009
     99  CD2      -11.0250    8.9880  -11.8400 C.ar   69  TYR69      -0.0009
    100  CE1      -12.1300    8.1980  -14.2640 C.ar   69  TYR69       0.0417
    101  CE2      -10.4800    9.4430  -13.0290 C.ar   69  TYR69       0.0417
    102  CZ       -11.0350    9.0510  -14.2350 C.ar   69  TYR69       0.1957
    103  OH       -10.4810    9.5200  -15.4040 O.3    69  TYR69      -0.2866
@<TRIPOS>BOND
     1    35    34   ar
     2    36    34   ar
     3    34    33    1
     4     9     8    1
     5     8     7    1
     6     1     2    1
     7    33    30    1
     8    40    39    2
     9    27    26    1
    10     5     2    1
    11     5     6    1
    12    30    29    1
    13    30    31    1
    14    58    57    1
    15    58    59    1
    16    57    56    1
    17     2     3    1
    18    29    24   am
    19     7     6    1
    20     4     3    2
    21    31    37   am
    22    31    32    2
    23    37    38    1
    24    39    51   am
    25    39    38    1
    26    52    53    1
    27    52    55    1
    28    52    51    1
    29    26    28    1
    30    26    23    1
    31    53    54    2
    32    56    55    1
    33    24    23    1
    34    24    25    2
    35    38    41    1
    36    23    22    1
    37    41    42    1
    38    43    42   ar
    39    43    45   ar
    40    42    44   ar
    41    22    16   am
    42    17    16    2
    43    45    46   ar
    44    16    15    1
    45    44    46   ar
    46    44    47   ar
    47    67    66   ar
    48    46    48   ar
    49    60    61    1
    50    66    65    1
    51    66    68   ar
    52    47    49   ar
    53    65    64    1
    54    15    14    1
    55    15    18    1
    56    64    61    1
    57    63    62    2
    58    14    12   am
    59    61    62    1
    60    48    50   ar
    61    18    19    1
    62    49    50   ar
    63    12    11    1
    64    12    13    2
    65    11    10    1
    66    19    21    1
    67    19    20    1
    68    76    75    2
    69    74    75    1
    70    74    73    1
    71    75    77   am
    72    89    91   ar
    73    89    87   ar
    74    91    90   ar
    75    73    70    1
    76    86    87   ar
    77    86    84   ar
    78    87    85   ar
    79   103   102    1
    80    90    88   ar
    81    84    83   ar
    82    85    88   ar
    83    85    83   ar
    84    70    69    1
    85    70    71    1
    86   100   102   ar
    87   100    98   ar
    88   102   101   ar
    89    83    82    1
    90    71    72    2
    91    82    79    1
    92    98    97   ar
    93   101    99   ar
    94    99    97   ar
    95    97    96    1
    96    79    78    1
    97    79    80    1
    98    80    81    2
    99    80    92   am
   100    96    93    1
   101    92    93    1
   102    93    94    1
   103    94    95    2
