@<TRIPOS>MOLECULE
tmp/3hl7A00.pdb
 170 159 0 0 0
SMALL
GASTEIGER

@<TRIPOS>ATOM
      1  N         40.4980   36.0980   28.0540 N.3    25  VAL25      -0.1231
      2  CA        39.1170   36.5020   28.3460 C.3    25  VAL25       0.1692
      3  C         38.1200   35.3410   28.2860 C.2    25  VAL25       0.2593
      4  O         36.9690   35.4990   28.6960 O.2    25  VAL25      -0.2718
      5  CB        38.6320   37.6720   27.4480 C.3    25  VAL25       0.0266
      6  CG1       39.4410   38.9310   27.7290 C.3    25  VAL25       0.0020
      7  CG2       38.7000   37.3130   26.0130 C.3    25  VAL25       0.0020
      8  N         38.5560   34.1800   27.8010 N.am   26  GLY26      -0.1942
      9  CA        37.6730   33.0180   27.7150 C.3    26  GLY26       0.2014
     10  C         37.7680   32.2400   26.4160 C.2    26  GLY26       0.2640
     11  O         38.6630   32.4630   25.6090 O.2    26  GLY26      -0.2714
     12  N         36.8390   31.3070   26.2470 N.am   27  SER27      -0.1935
     13  CA        36.8230   30.4040   25.0980 C.3    27  SER27       0.2055
     14  C         36.0340   31.0100   23.9630 C.2    27  SER27       0.2643
     15  O         35.0560   31.7080   24.1920 O.2    27  SER27      -0.2714
     16  CB        36.1810   29.0710   25.4890 C.3    27  SER27       0.2130
     17  OG        36.8450   28.5130   26.6020 O.3    27  SER27      -0.2179
     18  N         36.4580   30.7380   22.7360 N.am   28  GLY28      -0.1954
     19  CA        35.6930   31.1110   21.5480 C.3    28  GLY28       0.1869
     20  C         35.2740   29.8260   20.8480 C.2    28  GLY28       0.2309
     21  O         35.4720   28.7160   21.3900 O.2    28  GLY28      -0.2863
     22  N         40.5170   32.9620   23.4830 N.3    33  VAL33      -0.1245
     23  CA        40.5130   34.4020   23.2230 C.3    33  VAL33       0.1561
     24  C         41.2680   35.1640   24.3050 C.2    33  VAL33       0.2260
     25  O         41.0710   34.9390   25.5020 O.2    33  VAL33      -0.2867
     26  CB        39.0750   34.9760   23.1310 C.3    33  VAL33       0.0252
     27  CG1       39.1230   36.4080   22.6350 C.3    33  VAL33       0.0019
     28  CG2       38.2230   34.1600   22.1610 C.3    33  VAL33       0.0019
     29  N         40.5730   41.7750   20.4690 N.3    46  ALA46      -0.1245
     30  CA        40.4420   40.3980   20.9090 C.3    46  ALA46       0.1562
     31  C         41.1460   39.5170   19.8710 C.2    46  ALA46       0.2260
     32  O         40.9140   39.6560   18.6620 O.2    46  ALA46      -0.2867
     33  CB        38.9830   40.0280   21.0300 C.3    46  ALA46       0.0290
     34  N         41.7110   35.6170   18.8080 N.3    48  LYS48      -0.1245
     35  CA        41.3710   34.1950   18.9770 C.3    48  LYS48       0.1561
     36  C         42.4400   33.3140   18.3380 C.2    48  LYS48       0.2260
     37  O         42.7770   33.5130   17.1670 O.2    48  LYS48      -0.2867
     38  CB        40.0050   33.8650   18.3680 C.3    48  LYS48       0.0271
     39  CG        39.6510   32.3910   18.5050 C.3    48  LYS48       0.0035
     40  CD        38.1720   32.0740   18.3580 C.3    48  LYS48       0.0206
     41  CE        37.6590   32.2620   16.9650 C.3    48  LYS48       0.1093
     42  NZ        36.4110   31.4250   16.6650 N.3    48  LYS48      -0.1314
     43  N         35.5030   29.6790    8.7600 N.3    66  GLU66      -0.1245
     44  CA        35.4790   30.8040    9.6750 C.3    66  GLU66       0.1567
     45  C         36.3010   31.9980    9.1430 C.2    66  GLU66       0.2260
     46  O         35.8860   33.1490    9.2550 O.2    66  GLU66      -0.2867
     47  CB        35.9570   30.3920   11.0680 C.3    66  GLU66       0.0388
     48  CG        35.9940   31.5860   12.0340 C.3    66  GLU66       0.1160
     49  CD        36.2390   31.1940   13.4610 C.2    66  GLU66       0.3649
     50  OE1       35.9460   32.0330   14.3370 O.co2  66  GLU66      -0.2457
     51  OE2       36.7400   30.0730   13.7060 O.co2  66  GLU66      -0.2457
     52  N         34.6810   35.6070    8.3630 N.3    70  LEU70      -0.1245
     53  CA        35.1670   36.8180    9.0340 C.3    70  LEU70       0.1561
     54  C         35.7380   37.8410    8.0480 C.2    70  LEU70       0.2260
     55  O         35.5720   39.0350    8.2320 O.2    70  LEU70      -0.2867
     56  CB        36.2130   36.4560   10.0780 C.3    70  LEU70       0.0270
     57  CG        35.7430   35.7410   11.3540 C.3    70  LEU70       0.0019
     58  CD1       36.9840   35.1910   12.0890 C.3    70  LEU70       0.0001
     59  CD2       34.9450   36.6530   12.2730 C.3    70  LEU70       0.0001
     60  N         30.7850   40.9480   13.9950 N.3    79  ILE79      -0.1231
     61  CA        32.2180   40.8460   14.2300 C.3    79  ILE79       0.1692
     62  C         32.9220   40.7070   12.8870 C.2    79  ILE79       0.2593
     63  O         32.5420   39.8910   12.0560 O.2    79  ILE79      -0.2718
     64  CB        32.5070   39.6530   15.1720 C.3    79  ILE79       0.0266
     65  CG1       32.0740   40.0310   16.5960 C.3    79  ILE79       0.0019
     66  CG2       33.9640   39.2110   15.1370 C.3    79  ILE79       0.0020
     67  CD1       33.0490   40.7720   17.3540 C.3    79  ILE79       0.0001
     68  N         33.9380   41.5320   12.6860 N.am   80  GLY80      -0.1942
     69  CA        34.7620   41.4480   11.5010 C.3    80  GLY80       0.2014
     70  C         36.2280   41.3370   11.8380 C.2    80  GLY80       0.2638
     71  O         36.6250   41.4430   13.0020 O.2    80  GLY80      -0.2714
     72  N         37.0200   41.1490   10.7900 N.am   81  LEU81      -0.1977
     73  CA        38.4430   40.8840   10.9090 C.3    81  LEU81       0.1596
     74  C         39.2740   42.1600   10.8310 C.2    81  LEU81       0.2287
     75  O         39.2900   42.8330    9.8050 O.2    81  LEU81      -0.2864
     76  CB        38.8850   39.9350    9.7890 C.3    81  LEU81       0.0297
     77  CG        39.3270   38.5080   10.0650 C.3    81  LEU81       0.0022
     78  CD1       40.2540   38.0770    8.9190 C.3    81  LEU81       0.0001
     79  CD2       39.9580   38.2880   11.4340 C.3    81  LEU81       0.0001
     80  N         43.1100   35.1110   14.7760 N.3    99  LEU99      -0.1231
     81  CA        42.1290   36.0190   14.2050 C.3    99  LEU99       0.1693
     82  C         41.8960   37.1640   15.1830 C.2    99  LEU99       0.2592
     83  O         41.7820   36.9370   16.3870 O.2    99  LEU99      -0.2718
     84  CB        40.8390   35.2600   13.9570 C.3    99  LEU99       0.0284
     85  CG        40.9490   33.9490   13.1840 C.3    99  LEU99       0.0019
     86  CD1       39.7320   33.0510   13.4670 C.3    99  LEU99       0.0001
     87  CD2       41.1380   34.2090   11.6910 C.3    99  LEU99       0.0001
     88  N         41.8680   38.3980   14.6790 N.am  100  VAL100     -0.1966
     89  CA        41.8290   39.5840   15.5290 C.3   100  VAL100      0.1727
     90  C         40.5920   40.4350   15.1870 C.2   100  VAL100      0.2617
     91  O         40.2950   40.6490   14.0140 O.2   100  VAL100     -0.2715
     92  CB        43.1050   40.4490   15.3600 C.3   100  VAL100      0.0290
     93  CG1       43.1070   41.6100   16.3430 C.3   100  VAL100      0.0023
     94  CG2       44.3940   39.5880   15.5120 C.3   100  VAL100      0.0023
     95  N         39.8950   40.9140   16.2160 N.am  101  THR101     -0.1937
     96  CA        38.7590   41.8410   16.0520 C.3   101  THR101      0.2028
     97  C         38.7630   42.8670   17.1800 C.2   101  THR101      0.2642
     98  O         39.6050   42.8000   18.0770 O.2   101  THR101     -0.2714
     99  CB        37.4070   41.0610   15.9900 C.3   101  THR101      0.1808
    100  OG1       36.3500   41.9100   15.5140 O.3   101  THR101     -0.2208
    101  CG2       37.0280   40.4770   17.3250 C.3   101  THR101      0.0379
    102  N         37.8260   43.8170   17.1370 N.am  102  HIS102     -0.1959
    103  CA        37.6830   44.8160   18.1790 C.3   102  HIS102      0.1787
    104  C         37.3040   44.1190   19.4760 C.2   102  HIS102      0.2620
    105  O         36.4640   43.2110   19.4770 O.2   102  HIS102     -0.2715
    106  CB        36.5860   45.8570   17.8500 C.3   102  HIS102      0.0785
    107  CG        36.7940   46.6000   16.5670 C.ar  102  HIS102      0.0821
    108  ND1       36.3440   46.1260   15.3540 N.ar  102  HIS102     -0.2267
    109  CD2       37.3780   47.7900   16.3100 C.ar  102  HIS102      0.1154
    110  CE1       36.6510   46.9920   14.4060 C.ar  102  HIS102      0.1986
    111  NE2       37.2850   48.0050   14.9580 N.ar  102  HIS102     -0.2212
    112  N         37.9150   44.5330   20.5730 N.am  103  LEU103     -0.1963
    113  CA        37.5650   43.9850   21.8790 C.3   103  LEU103      0.1728
    114  C         36.1650   44.4260   22.2860 C.2   103  LEU103      0.2616
    115  O         35.8570   45.6170   22.3040 O.2   103  LEU103     -0.2715
    116  CB        38.5860   44.3980   22.9570 C.3   103  LEU103      0.0311
    117  CG        38.4100   43.7790   24.3460 C.3   103  LEU103      0.0022
    118  CD1       38.5120   42.2550   24.3010 C.3   103  LEU103      0.0001
    119  CD2       39.4350   44.3350   25.3200 C.3   103  LEU103      0.0001
    120  N         35.3260   43.4470   22.6100 N.am  104  MET104     -0.1977
    121  CA        34.0160   43.6950   23.2010 C.3   104  MET104      0.1605
    122  C         34.0460   43.2320   24.6570 C.2   104  MET104      0.2287
    123  O         34.5650   42.1630   24.9590 O.2   104  MET104     -0.2864
    124  CB        32.9380   42.9420   22.4300 C.3   104  MET104      0.0413
    125  CG        32.9220   43.2120   20.9180 C.3   104  MET104      0.0598
    126  SD        32.5020   44.9020   20.4430 S.3   104  MET104     -0.1393
    127  CE        30.7280   44.9060   20.6850 C.3   104  MET104      0.0692
    128  N         31.6470   42.4740   27.0810 N.3   106  ALA106     -0.1231
    129  CA        30.6990   41.5660   27.7190 C.3   106  ALA106      0.1694
    130  C         29.8260   40.9000   26.6840 C.2   106  ALA106      0.2592
    131  O         29.9930   41.1240   25.4980 O.2   106  ALA106     -0.2718
    132  CB        29.8240   42.3260   28.7110 C.3   106  ALA106      0.0304
    133  N         28.8970   40.0710   27.1460 N.am  107  ASP107     -0.1974
    134  CA        27.8770   39.5030   26.2710 C.3   107  ASP107      0.1709
    135  C         26.5100   39.6410   26.9250 C.2   107  ASP107      0.2293
    136  O         26.4210   40.0520   28.0790 O.2   107  ASP107     -0.2864
    137  CB        28.2030   38.0460   25.9360 C.3   107  ASP107      0.1436
    138  CG        28.1170   37.1400   27.1400 C.2   107  ASP107      0.3671
    139  OD1       27.1800   37.2940   27.9370 O.co2 107  ASP107     -0.2456
    140  OD2       28.9860   36.2710   27.2930 O.co2 107  ASP107     -0.2456
    141  N         25.9530   37.7170   30.2160 N.3   110  ASN110     -0.1240
    142  CA        26.4580   38.5530   31.3250 C.3   110  ASN110      0.1653
    143  C         25.4900   39.6700   31.7290 C.2   110  ASN110      0.2266
    144  O         25.3320   39.9490   32.9150 O.2   110  ASN110     -0.2867
    145  CB        27.8050   39.2130   30.9700 C.3   110  ASN110      0.1155
    146  CG        28.9010   38.2080   30.6190 C.2   110  ASN110      0.2627
    147  OD1       29.8830   38.5580   29.9520 O.2   110  ASN110     -0.2716
    148  ND2       28.7460   36.9630   31.0740 N.am  110  ASN110     -0.0877
    149  N         24.9800   34.3900   24.7140 N.3   149  SER149     -0.1217
    150  CA        26.4120   34.2940   24.8670 C.3   149  SER149      0.1889
    151  C         27.1960   34.5910   23.5810 C.2   149  SER149      0.2288
    152  O         28.3950   34.8320   23.6570 O.2   149  SER149     -0.2866
    153  CB        26.8030   32.9230   25.4310 C.3   149  SER149      0.2089
    154  OG        26.5700   31.9450   24.4590 O.3   149  SER149     -0.2183
    155  N         28.4870   37.4160   16.9970 N.3   162  LEU162     -0.1231
    156  CA        29.5630   36.5040   16.6140 C.3   162  LEU162      0.1693
    157  C         29.1570   35.0470   16.4710 C.2   162  LEU162      0.2592
    158  O         28.0330   34.6460   16.8020 O.2   162  LEU162     -0.2718
    159  CB        30.7340   36.6320   17.5590 C.3   162  LEU162      0.0284
    160  CG        30.4920   36.5470   19.0390 C.3   162  LEU162      0.0019
    161  CD1       30.9510   35.2110   19.6380 C.3   162  LEU162      0.0001
    162  CD2       31.2610   37.6580   19.6450 C.3   162  LEU162      0.0001
    163  N         30.0940   34.2750   15.9220 N.am  163  ASP163     -0.1974
    164  CA        29.9680   32.8290   15.7990 C.3   163  ASP163      0.1709
    165  C         28.8860   32.4200   14.7970 C.2   163  ASP163      0.2293
    166  O         28.4080   31.2860   14.8070 O.2   163  ASP163     -0.2864
    167  CB        29.7720   32.1870   17.1820 C.3   163  ASP163      0.1436
    168  CG        31.0500   32.2070   18.0270 C.2   163  ASP163      0.3671
    169  OD1       32.1310   32.5700   17.4890 O.co2 163  ASP163     -0.2456
    170  OD2       30.9790   31.8500   19.2240 O.co2 163  ASP163     -0.2456
@<TRIPOS>BOND
     1    54    55    2
     2    54    53    1
     3    52    53    1
     4    43    44    1
     5    78    77    1
     6    53    56    1
     7    45    46    2
     8    45    44    1
     9    44    47    1
    10    76    77    1
    11    76    73    1
    12    75    74    2
    13    77    79    1
    14    56    57    1
    15    72    73    1
    16    72    70   am
    17    74    73    1
    18    47    48    1
    19    57    58    1
    20    57    59    1
    21    69    70    1
    22    69    68    1
    23    87    85    1
    24    70    71    2
    25    48    49    1
    26    63    62    2
    27    68    62   am
    28    62    61    1
    29    85    86    1
    30    85    84    1
    31    49    51   ar
    32    49    50   ar
    33    84    81    1
    34    60    61    1
    35    91    90    2
    36    81    80    1
    37    81    82    1
    38    61    64    1
    39   110   111   ar
    40   110   108   ar
    41    88    82   am
    42    88    89    1
    43   165   166    2
    44   165   164    1
    45   111   109   ar
    46    66    64    1
    47    64    65    1
    48    82    83    2
    49    90    89    1
    50    90    95   am
    51   108   107   ar
    52    92    94    1
    53    92    89    1
    54    92    93    1
    55   100    99    1
    56   164   163    1
    57   164   167    1
    58   163   157   am
    59    99    96    1
    60    99   101    1
    61    96    95    1
    62    96    97    1
    63   109   107   ar
    64   157   156    1
    65   157   158    2
    66   107   106    1
    67    65    67    1
    68   156   155    1
    69   156   159    1
    70    42    41    1
    71    41    40    1
    72   102    97   am
    73   102   103    1
    74    37    36    2
    75    97    98    2
    76   167   168    1
    77   169   168   ar
    78   159   160    1
    79   106   103    1
    80   168   170   ar
    81   103   104    1
    82    36    35    1
    83    40    39    1
    84    38    39    1
    85    38    35    1
    86    32    31    2
    87    34    35    1
    88   160   161    1
    89   160   162    1
    90   104   105    2
    91   104   112   am
    92    31    30    1
    93   126   127    1
    94   126   125    1
    95    29    30    1
    96   112   113    1
    97    20    21    2
    98    20    19    1
    99    30    33    1
   100   125   124    1
   101    19    18    1
   102   113   114    1
   103   113   116    1
   104    28    26    1
   105   114   115    2
   106   114   120   am
   107   124   121    1
   108   120   121    1
   109    27    26    1
   110    18    14   am
   111   116   117    1
   112    26    23    1
   113   121   122    1
   114    23    22    1
   115    23    24    1
   116   151   152    2
   117   151   150    1
   118    14    15    2
   119    14    13    1
   120   118   117    1
   121    24    25    2
   122   117   119    1
   123   154   153    1
   124   122   123    2
   125   149   150    1
   126   150   153    1
   127    13    16    1
   128    13    12    1
   129    16    17    1
   130   131   130    2
   131    11    10    2
   132   137   134    1
   133   137   138    1
   134     7     5    1
   135    12    10   am
   136   134   135    1
   137   134   133    1
   138    10     9    1
   139   130   133   am
   140   130   129    1
   141   135   136    2
   142   128   129    1
   143   138   140   ar
   144   138   139   ar
   145     5     6    1
   146     5     2    1
   147     9     8    1
   148   129   132    1
   149     8     3   am
   150     1     2    1
   151     3     2    1
   152     3     4    2
   153   147   146    2
   154   141   142    1
   155   146   145    1
   156   146   148   am
   157   145   142    1
   158   142   143    1
   159   143   144    2
