@<TRIPOS>MOLECULE
tmp/3hl7A01.pdb
 141 134 0 0 0
SMALL
GASTEIGER

@<TRIPOS>ATOM
      1  N         11.7790   25.4610   16.5870 N.3   175  PRO175     -0.2102
      2  CA        11.2120   24.1290   16.7760 C.3   175  PRO175      0.1504
      3  C         11.4500   23.1730   15.5960 C.2   175  PRO175      0.2575
      4  O         11.5470   21.9610   15.8180 O.2   175  PRO175     -0.2718
      5  CB         9.7180   24.4140   16.9970 C.3   175  PRO175      0.0282
      6  CG         9.4750   25.7460   16.3780 C.3   175  PRO175      0.0208
      7  CD        10.7430   26.5090   16.6050 C.3   175  PRO175      0.0893
      8  N         11.5470   23.6960   14.3720 N.am  176  GLU176     -0.1980
      9  CA        11.7920   22.8510   13.2010 C.3   176  GLU176      0.1602
     10  C         13.1780   22.2030   13.2380 C.2   176  GLU176      0.2287
     11  O         13.3670   21.1380   12.6610 O.2   176  GLU176     -0.2864
     12  CB        11.5860   23.6140   11.8710 C.3   176  GLU176      0.0415
     13  CG        12.4830   24.8430   11.6360 C.3   176  GLU176      0.1163
     14  CD        11.8980   26.1670   12.1320 C.2   176  GLU176      0.3649
     15  OE1       11.1050   26.1660   13.0940 O.co2 176  GLU176     -0.2457
     16  OE2       12.2500   27.2250   11.5470 O.co2 176  GLU176     -0.2457
     17  N         12.8710   19.3320   15.6540 N.3   179  LEU179     -0.1245
     18  CA        12.2510   18.2370   14.8860 C.3   179  LEU179      0.1561
     19  C         13.1770   17.6040   13.8550 C.2   179  LEU179      0.2260
     20  O         12.7980   16.6210   13.2130 O.2   179  LEU179     -0.2867
     21  CB        11.0080   18.7360   14.1440 C.3   179  LEU179      0.0270
     22  CG         9.7050   18.7620   14.9240 C.3   179  LEU179      0.0019
     23  CD1        8.6860   19.4530   14.0560 C.3   179  LEU179      0.0001
     24  CD2        9.2450   17.3590   15.3050 C.3   179  LEU179      0.0001
     25  N         14.3670   18.8350   10.9410 N.3   181  TRP181     -0.1241
     26  CA        14.1050   19.1780    9.5470 C.3   181  TRP181      0.1605
     27  C         15.3720   19.7320    8.9100 C.2   181  TRP181      0.2264
     28  O         15.9320   20.6940    9.4080 O.2   181  TRP181     -0.2867
     29  CB        13.0150   20.2460    9.4660 C.3   181  TRP181      0.0550
     30  CG        12.4540   20.4860    8.0840 C.ar  181  TRP181      0.0003
     31  CD1       12.2690   19.5560    7.0920 C.ar  181  TRP181      0.0946
     32  CD2       11.9460   21.7240    7.5660 C.ar  181  TRP181      0.0152
     33  NE1       11.6890   20.1470    5.9930 N.ar  181  TRP181     -0.2442
     34  CE2       11.4810   21.4750    6.2560 C.ar  181  TRP181      0.0810
     35  CE3       11.8320   23.0180    8.0840 C.ar  181  TRP181      0.0012
     36  CZ2       10.9200   22.4760    5.4520 C.ar  181  TRP181      0.0191
     37  CZ3       11.2660   24.0170    7.2840 C.ar  181  TRP181      0.0001
     38  CH2       10.8220   23.7390    5.9870 C.ar  181  TRP181      0.0015
     39  N         10.4990   21.0710   22.8030 N.3   216  LEU216     -0.1245
     40  CA         9.3400   21.2190   21.9150 C.3   216  LEU216      0.1561
     41  C          8.0420   21.3310   22.7370 C.2   216  LEU216      0.2260
     42  O          7.1670   22.1420   22.4340 O.2   216  LEU216     -0.2867
     43  CB         9.2460   20.0510   20.9140 C.3   216  LEU216      0.0270
     44  CG         9.0670   20.4550   19.4370 C.3   216  LEU216      0.0019
     45  CD1        7.9370   21.4370   19.2270 C.3   216  LEU216      0.0001
     46  CD2       10.3420   21.0610   18.9070 C.3   216  LEU216      0.0001
     47  N          5.4570   24.4140   22.1930 N.3   220  LEU220     -0.1245
     48  CA         4.0600   24.1980   21.7910 C.3   220  LEU220      0.1561
     49  C          3.0550   24.6870   22.8540 C.2   220  LEU220      0.2260
     50  O          1.9190   25.0350   22.5330 O.2   220  LEU220     -0.2867
     51  CB         3.8270   22.7280   21.4290 C.3   220  LEU220      0.0270
     52  CG         4.1300   22.2850   19.9760 C.3   220  LEU220      0.0019
     53  CD1        5.0980   23.1930   19.2660 C.3   220  LEU220      0.0001
     54  CD2        4.5690   20.8090   19.9000 C.3   220  LEU220      0.0001
     55  N          0.8010   22.4130   15.9740 N.3   226  PRO226     -0.2116
     56  CA         0.6340   22.8410   14.5830 C.3   226  PRO226      0.1372
     57  C         -0.8040   22.7580   14.0650 C.2   226  PRO226      0.2244
     58  O         -1.5380   21.8050   14.3760 O.2   226  PRO226     -0.2868
     59  CB         1.5150   21.8540   13.8040 C.3   226  PRO226      0.0268
     60  CG         2.5020   21.3810   14.7790 C.3   226  PRO226      0.0207
     61  CD         1.7750   21.3120   16.0760 C.3   226  PRO226      0.0892
     62  N          0.2360   23.7230    8.5270 N.3   230  LEU230     -0.1245
     63  CA         1.5950   23.3160    8.8490 C.3   230  LEU230      0.1561
     64  C          1.7950   21.8080    8.8910 C.2   230  LEU230      0.2260
     65  O          2.8140   21.3210    8.4210 O.2   230  LEU230     -0.2867
     66  CB         2.0560   23.9570   10.1710 C.3   230  LEU230      0.0270
     67  CG         3.4750   23.6020   10.6170 C.3   230  LEU230      0.0019
     68  CD1        4.5200   23.9210    9.5450 C.3   230  LEU230      0.0001
     69  CD2        3.7740   24.3200   11.9160 C.3   230  LEU230      0.0001
     70  N          2.8180   20.0050    5.7100 N.3   233  LYS233     -0.1231
     71  CA         4.1540   20.2850    5.2200 C.3   233  LYS233      0.1693
     72  C          5.2170   19.3640    5.8260 C.2   233  LYS233      0.2592
     73  O          6.3860   19.4900    5.4860 O.2   233  LYS233     -0.2718
     74  CB         4.5280   21.7370    5.5370 C.3   233  LYS233      0.0285
     75  CG         3.6390   22.7750    4.8870 C.3   233  LYS233      0.0035
     76  CD         4.0810   24.1510    5.3430 C.3   233  LYS233      0.0206
     77  CE         3.1770   25.2610    4.8420 C.3   233  LYS233      0.1093
     78  NZ         3.7310   26.5600    5.3840 N.3   233  LYS233     -0.1314
     79  N          4.8130   18.4440    6.7090 N.am  234  ILE234     -0.1966
     80  CA         5.7610   17.5960    7.4380 C.3   234  ILE234      0.1727
     81  C          5.7900   16.2410    6.7600 C.2   234  ILE234      0.2617
     82  O          4.8240   15.4760    6.8220 O.2   234  ILE234     -0.2715
     83  CB         5.3820   17.4200    8.9320 C.3   234  ILE234      0.0290
     84  CG1        5.2970   18.7710    9.6360 C.3   234  ILE234      0.0022
     85  CG2        6.3720   16.4890    9.6370 C.3   234  ILE234      0.0023
     86  CD1        4.7080   18.6900   11.0270 C.3   234  ILE234      0.0001
     87  N          6.8980   15.9450    6.0990 N.am  235  SER235     -0.1936
     88  CA         7.0220   14.7020    5.3270 C.3   235  SER235      0.2055
     89  C          7.1850   13.4900    6.2510 C.2   235  SER235      0.2643
     90  O          6.6400   12.4200    5.9900 O.2   235  SER235     -0.2714
     91  CB         8.2330   14.7890    4.3970 C.3   235  SER235      0.2130
     92  OG         8.5130   13.5260    3.8250 O.3   235  SER235     -0.2179
     93  N          7.9500   13.6850    7.3270 N.am  236  SER236     -0.1949
     94  CA         8.3460   12.6080    8.2280 C.3   236  SER236      0.1924
     95  C          7.1560   11.9490    8.9080 C.2   236  SER236      0.2314
     96  O          6.4320   12.5880    9.6720 O.2   236  SER236     -0.2863
     97  CB         9.2930   13.1560    9.3020 C.3   236  SER236      0.2116
     98  OG         9.4930   12.1810   10.3090 O.3   236  SER236     -0.2180
     99  N          7.9420   12.1450   12.8080 N.3   239  ALA239     -0.1245
    100  CA         7.6800   13.4880   13.3250 C.3   239  ALA239      0.1562
    101  C          6.1800   13.7770   13.4720 C.2   239  ALA239      0.2260
    102  O          5.7510   14.3870   14.4480 O.2   239  ALA239     -0.2867
    103  CB         8.3280   14.5320   12.4280 C.3   239  ALA239      0.0290
    104  N          4.1120   14.6070   16.9260 N.3   243  ILE243     -0.1245
    105  CA         3.3910   15.8790   17.0670 C.3   243  ILE243      0.1561
    106  C          1.8680   15.6980   17.1910 C.2   243  ILE243      0.2260
    107  O          1.2280   16.3330   18.0330 O.2   243  ILE243     -0.2867
    108  CB         3.6400   16.8020   15.8620 C.3   243  ILE243      0.0252
    109  CG1        5.1040   17.2380   15.7960 C.3   243  ILE243      0.0019
    110  CG2        2.7470   18.0460   15.9460 C.3   243  ILE243      0.0019
    111  CD1        5.5260   17.6600   14.4000 C.3   243  ILE243      0.0001
    112  N          4.9320   29.4690   14.7960 N.3   275  LEU275     -0.1231
    113  CA         5.4020   28.1000   14.6470 C.3   275  LEU275      0.1693
    114  C          5.8170   27.8260   13.2080 C.2   275  LEU275      0.2592
    115  O          6.9410   27.3870   12.9530 O.2   275  LEU275     -0.2718
    116  CB         4.3490   27.0940   15.1370 C.3   275  LEU275      0.0284
    117  CG         4.8090   25.6410   15.2810 C.3   275  LEU275      0.0019
    118  CD1        6.0120   25.5320   16.2220 C.3   275  LEU275      0.0001
    119  CD2        3.6620   24.7850   15.7720 C.3   275  LEU275      0.0001
    120  N          4.9270   28.1080   12.2610 N.am  276  ASP276     -0.1960
    121  CA         5.2360   27.9380   10.8480 C.3   276  ASP276      0.1840
    122  C          6.2870   28.9290   10.3790 C.2   276  ASP276      0.2623
    123  O          5.9950   30.1090   10.1910 O.2   276  ASP276     -0.2715
    124  CB         3.9830   28.1090    9.9860 C.3   276  ASP276      0.1450
    125  CG         4.1830   27.6220    8.5520 C.2   276  ASP276      0.3671
    126  OD1        5.3240   27.6240    8.0680 O.co2 276  ASP276     -0.2456
    127  OD2        3.1880   27.2420    7.9080 O.co2 276  ASP276     -0.2456
    128  N          7.4920   28.4320   10.1020 N.am  277  SER277     -0.1936
    129  CA         8.5970   29.3060    9.7550 C.3   277  SER277      0.2055
    130  C          8.3660   30.1160    8.4650 C.2   277  SER277      0.2643
    131  O          8.9570   31.1800    8.2720 O.2   277  SER277     -0.2714
    132  CB         9.9140   28.5130    9.7170 C.3   277  SER277      0.2130
    133  OG        10.0790   27.8260    8.5050 O.3   277  SER277     -0.2179
    134  N          7.4640   29.6460    7.6100 N.am  278  ASP278     -0.1971
    135  CA         7.0780   30.4010    6.4130 C.3   278  ASP278      0.1709
    136  C          6.3440   31.6970    6.7570 C.2   278  ASP278      0.2293
    137  O          6.2920   32.6220    5.9360 O.2   278  ASP278     -0.2864
    138  CB         6.1710   29.5530    5.5020 C.3   278  ASP278      0.1436
    139  CG         6.8900   28.3730    4.8540 C.2   278  ASP278      0.3671
    140  OD1        8.1330   28.4090    4.6730 O.co2 278  ASP278     -0.2456
    141  OD2        6.1850   27.3970    4.5040 O.co2 278  ASP278     -0.2456
@<TRIPOS>BOND
     1    92    91    1
     2    91    88    1
     3   141   139   ar
     4   140   139   ar
     5    77    76    1
     6    77    78    1
     7   139   138    1
     8    75    76    1
     9    75    74    1
    10    71    74    1
    11    71    70    1
    12    71    72    1
    13    88    87    1
    14    88    89    1
    15    36    38   ar
    16    36    34   ar
    17    73    72    2
    18   138   135    1
    19    72    79   am
    20   137   136    2
    21    38    37   ar
    22    90    89    2
    23    33    34   ar
    24    33    31   ar
    25    87    81   am
    26    89    93   am
    27    34    32   ar
    28   135   136    1
    29   135   134    1
    30    79    80    1
    31    81    82    2
    32    81    80    1
    33    31    30   ar
    34    37    35   ar
    35    93    94    1
    36    80    83    1
    37    32    30   ar
    38    32    35   ar
    39   134   130   am
    40   127   125   ar
    41   126   125   ar
    42    30    29    1
    43    94    95    1
    44    94    97    1
    45   131   130    2
    46    65    64    2
    47   130   129    1
    48   133   132    1
    49    62    63    1
    50   125   124    1
    51    63    64    1
    52    63    66    1
    53    95    96    2
    54    27    28    2
    55    27    26    1
    56    83    84    1
    57    83    85    1
    58    97    98    1
    59    29    26    1
    60    68    67    1
    61    26    25    1
    62    84    86    1
    63   132   129    1
    64   129   128    1
    65   124   121    1
    66   128   122   am
    67    66    67    1
    68   123   122    2
    69   122   121    1
    70    67    69    1
    71   121   120    1
    72    16    14   ar
    73    13    12    1
    74    13    14    1
    75    12     9    1
    76    14    15   ar
    77   120   114   am
    78   103   100    1
    79    11    10    2
    80    99   100    1
    81   115   114    2
    82     9    10    1
    83     9     8    1
    84   114   113    1
    85    20    19    2
    86   100   101    1
    87   101   102    2
    88    59    56    1
    89    59    60    1
    90    19    18    1
    91    23    22    1
    92    57    58    2
    93    57    56    1
    94    21    18    1
    95    21    22    1
    96     8     3   am
    97   111   109    1
    98    56    55    1
    99   113   112    1
   100   113   116    1
   101    60    61    1
   102    18    17    1
   103    22    24    1
   104   116   117    1
   105   117   119    1
   106   117   118    1
   107     3     4    2
   108     3     2    1
   109   109   108    1
   110   108   110    1
   111   108   105    1
   112    55    61    1
   113     6     7    1
   114     6     5    1
   115     1     7    1
   116     1     2    1
   117     2     5    1
   118   104   105    1
   119   105   106    1
   120   106   107    2
   121    46    44    1
   122    45    44    1
   123    53    52    1
   124    44    43    1
   125    54    52    1
   126    52    51    1
   127    43    40    1
   128    51    48    1
   129    48    47    1
   130    48    49    1
   131    40    41    1
   132    40    39    1
   133    42    41    2
   134    50    49    2
