@<TRIPOS>MOLECULE
tmp/3hl8A00.pdb
 101 97 0 0 0
SMALL
GASTEIGER

@<TRIPOS>ATOM
      1  N         29.9000   -0.4100   50.1580 N.3   220  PRO220     -0.2116
      2  CA        29.5370    0.9810   50.3890 C.3   220  PRO220      0.1372
      3  C         30.5750    1.9540   49.8670 C.2   220  PRO220      0.2244
      4  O         31.7730    1.6620   49.8650 O.2   220  PRO220     -0.2868
      5  CB        29.4400    1.0710   51.9210 C.3   220  PRO220      0.0268
      6  CG        30.3480    0.0060   52.3970 C.3   220  PRO220      0.0207
      7  CD        30.2460   -1.1020   51.4120 C.3   220  PRO220      0.0892
      8  N         26.7680    8.0450   52.5470 N.3   237  TRP237     -0.1241
      9  CA        27.2220    6.7250   52.1430 C.3   237  TRP237      0.1605
     10  C         26.1060    6.0540   51.3370 C.2   237  TRP237      0.2264
     11  O         24.9200    6.1110   51.7180 O.2   237  TRP237     -0.2867
     12  CB        27.5890    5.8750   53.3530 C.3   237  TRP237      0.0550
     13  CG        28.9280    6.1700   53.9510 C.ar  237  TRP237      0.0003
     14  CD1       30.1490    5.8420   53.4150 C.ar  237  TRP237      0.0946
     15  CD2       29.2050    6.8150   55.1940 C.ar  237  TRP237      0.0152
     16  NE1       31.1490    6.2680   54.2290 N.ar  237  TRP237     -0.2442
     17  CE2       30.6020    6.8440   55.3450 C.ar  237  TRP237      0.0810
     18  CE3       28.4120    7.3730   56.1990 C.ar  237  TRP237      0.0012
     19  CZ2       31.2230    7.4080   56.4580 C.ar  237  TRP237      0.0191
     20  CZ3       29.0260    7.9200   57.2930 C.ar  237  TRP237      0.0001
     21  CH2       30.4170    7.9290   57.4240 C.ar  237  TRP237      0.0015
     22  N         22.2650    5.1090   52.2300 N.3   256  LEU256     -0.1245
     23  CA        22.2790    4.3800   53.4870 C.3   256  LEU256      0.1561
     24  C         21.8640    5.2270   54.6890 C.2   256  LEU256      0.2260
     25  O         21.5630    4.6760   55.7400 O.2   256  LEU256     -0.2867
     26  CB        23.6510    3.7520   53.7280 C.3   256  LEU256      0.0270
     27  CG        24.0170    2.6730   52.7210 C.3   256  LEU256      0.0019
     28  CD1       25.4720    2.2810   52.9530 C.3   256  LEU256      0.0001
     29  CD2       23.0950    1.4440   52.7990 C.3   256  LEU256      0.0001
     30  N         34.4140    3.7580   51.1350 N.3   298  ALA298     -0.1231
     31  CA        33.6360    4.2130   52.2970 C.3   298  ALA298      0.1694
     32  C         34.4730    4.8730   53.3860 C.2   298  ALA298      0.2592
     33  O         34.0240    5.8270   54.0020 O.2   298  ALA298     -0.2718
     34  CB        32.8250    3.0690   52.8830 C.3   298  ALA298      0.0304
     35  N         35.6940    4.3830   53.6180 N.am  299  ASN299     -0.1974
     36  CA        36.5260    4.9550   54.6920 C.3   299  ASN299      0.1688
     37  C         37.1550    6.3260   54.3990 C.2   299  ASN299      0.2292
     38  O         37.8190    6.9010   55.2600 O.2   299  ASN299     -0.2864
     39  CB        37.5750    3.9420   55.1790 C.3   299  ASN299      0.1181
     40  CG        38.7510    3.7820   54.2190 C.2   299  ASN299      0.2629
     41  OD1       38.8090    4.3980   53.1590 O.2   299  ASN299     -0.2716
     42  ND2       39.7120    2.9340   54.6080 N.am  299  ASN299     -0.0877
     43  N         35.5250    9.0090   54.1230 N.3   301  LEU301     -0.1231
     44  CA        34.8190    9.8570   55.0600 C.3   301  LEU301      0.1693
     45  C         35.0020    9.2340   56.4500 C.2   301  LEU301      0.2592
     46  O         34.4540    8.1800   56.7480 O.2   301  LEU301     -0.2718
     47  CB        33.3290    9.9380   54.6780 C.3   301  LEU301      0.0284
     48  CG        32.5200   11.0000   55.4120 C.3   301  LEU301      0.0019
     49  CD1       32.9430   12.3690   54.9370 C.3   301  LEU301      0.0001
     50  CD2       31.0380   10.7500   55.1820 C.3   301  LEU301      0.0001
     51  N         35.8060    9.8780   57.2830 N.am  302  ARG302     -0.1966
     52  CA        36.1760    9.3030   58.5670 C.3   302  ARG302      0.1714
     53  C         35.1150    9.6670   59.6000 C.2   302  ARG302      0.2458
     54  O         34.2810   10.5250   59.3380 O.2   302  ARG302     -0.2730
     55  CB        37.5700    9.8000   58.9590 C.3   302  ARG302      0.0347
     56  CG        38.6080    9.3900   57.9120 C.3   302  ARG302      0.0492
     57  CD        39.8540   10.2810   57.8510 C.3   302  ARG302      0.2205
     58  NE        39.6080   11.6660   57.4160 N.pl3 302  ARG302     -0.0865
     59  CZ        40.5640   12.5070   57.0080 C.cat 302  ARG302      0.5346
     60  NH1       41.8340   12.1090   56.9320 N.pl3 302  ARG302      0.1354
     61  NH2       40.2590   13.7570   56.6580 N.pl3 302  ARG302      0.1354
     62  N         35.1140    9.0000   60.7630 N.am  303  PRO303     -0.2727
     63  CA        34.0700    9.3120   61.7460 C.3   303  PRO303      0.1402
     64  C         33.9540   10.7960   62.0990 C.2   303  PRO303      0.2269
     65  O         32.8420   11.3150   62.2560 O.2   303  PRO303     -0.2865
     66  CB        34.5010    8.4850   62.9600 C.3   303  PRO303      0.0296
     67  CG        35.1360    7.2960   62.3480 C.3   303  PRO303      0.0237
     68  CD        35.8980    7.8200   61.1740 C.3   303  PRO303      0.0939
     69  N         26.7840    7.7460   61.0400 N.3   313  ARG313     -0.1245
     70  CA        27.5790    6.6540   60.5120 C.3   313  ARG313      0.1563
     71  C         27.0530    5.2730   60.9160 C.2   313  ARG313      0.2260
     72  O         26.9030    4.3930   60.0670 O.2   313  ARG313     -0.2867
     73  CB        29.0330    6.8550   60.9410 C.3   313  ARG313      0.0307
     74  CG        30.0000    5.8150   60.4650 C.3   313  ARG313      0.0489
     75  CD        31.3910    6.2030   60.9190 C.3   313  ARG313      0.2205
     76  NE        32.4420    5.2830   60.5090 N.pl3 313  ARG313     -0.0865
     77  CZ        32.7920    4.1720   61.1600 C.cat 313  ARG313      0.5346
     78  NH1       32.1540    3.7910   62.2600 N.pl3 313  ARG313      0.1354
     79  NH2       33.8010    3.4400   60.7050 N.pl3 313  ARG313      0.1354
     80  N         24.0030    4.2470   58.9530 N.3   316  CYS316     -0.1221
     81  CA        24.3940    3.7790   57.6230 C.3   316  CYS316      0.1808
     82  C         24.8950    2.3370   57.6540 C.2   316  CYS316      0.2601
     83  O         24.5110    1.5280   56.8020 O.2   316  CYS316     -0.2717
     84  CB        25.4370    4.7210   57.0190 C.3   316  CYS316      0.0970
     85  SG        24.7750    6.3640   56.6420 S.3   316  CYS316     -0.0800
     86  N         25.7670    2.0250   58.6150 N.am  317  LEU317     -0.1979
     87  CA        26.2570    0.6590   58.7940 C.3   317  LEU317      0.1596
     88  C         25.1340   -0.3260   59.0960 C.2   317  LEU317      0.2287
     89  O         25.1100   -1.4390   58.5720 O.2   317  LEU317     -0.2864
     90  CB        27.3060    0.6070   59.9160 C.3   317  LEU317      0.0297
     91  CG        28.6810    1.1910   59.5750 C.3   317  LEU317      0.0022
     92  CD1       29.4850    1.5080   60.8320 C.3   317  LEU317      0.0001
     93  CD2       29.4660    0.2460   58.6730 C.3   317  LEU317      0.0001
     94  N         23.2000   -0.9510   55.9450 N.3   320  LEU320     -0.1245
     95  CA        23.9560   -1.7830   55.0140 C.3   320  LEU320      0.1561
     96  C         23.8040   -3.2570   55.3810 C.2   320  LEU320      0.2260
     97  O         23.6530   -4.1070   54.5010 O.2   320  LEU320     -0.2867
     98  CB        25.4290   -1.3830   55.0320 C.3   320  LEU320      0.0270
     99  CG        26.3690   -2.1590   54.1180 C.3   320  LEU320      0.0019
    100  CD1       25.9870   -1.9910   52.6660 C.3   320  LEU320      0.0001
    101  CD2       27.8080   -1.7210   54.4020 C.3   320  LEU320      0.0001
@<TRIPOS>BOND
     1     4     3    2
     2     3     2    1
     3     1     2    1
     4     1     7    1
     5     2     5    1
     6    30    31    1
     7    10    11    2
     8    10     9    1
     9     7     6    1
    10     5     6    1
    11     9     8    1
    12     9    12    1
    13    22    23    1
    14    31    34    1
    15    31    32    1
    16   100    99    1
    17    27    29    1
    18    27    28    1
    19    27    26    1
    20    41    40    2
    21    12    13    1
    22    32    35   am
    23    32    33    2
    24    14    13   ar
    25    14    16   ar
    26    23    26    1
    27    23    24    1
    28    35    36    1
    29    13    15   ar
    30    99   101    1
    31    99    98    1
    32    43    44    1
    33    40    42   am
    34    40    39    1
    35    16    17   ar
    36    37    36    1
    37    37    38    2
    38    97    96    2
    39    47    44    1
    40    47    48    1
    41    24    25    2
    42    36    39    1
    43    49    48    1
    44    95    98    1
    45    95    96    1
    46    95    94    1
    47    44    45    1
    48    50    48    1
    49    15    17   ar
    50    15    18   ar
    51    17    19   ar
    52    18    20   ar
    53    45    46    2
    54    45    51   am
    55    19    21   ar
    56    85    84    1
    57    61    59    1
    58    83    82    2
    59    60    59    1
    60    59    58    2
    61    84    81    1
    62    51    52    1
    63    20    21   ar
    64    58    57    1
    65    81    82    1
    66    81    80    1
    67    82    86   am
    68    57    56    1
    69    56    55    1
    70    52    55    1
    71    52    53    1
    72    89    88    2
    73    86    87    1
    74    93    91    1
    75    87    88    1
    76    87    90    1
    77    54    53    2
    78    91    90    1
    79    91    92    1
    80    53    62   am
    81    72    71    2
    82    74    75    1
    83    74    73    1
    84    76    75    1
    85    76    77    2
    86    70    71    1
    87    70    73    1
    88    70    69    1
    89    79    77    1
    90    62    68    1
    91    62    63    1
    92    77    78    1
    93    68    67    1
    94    63    64    1
    95    63    66    1
    96    64    65    2
    97    67    66    1
