@<TRIPOS>MOLECULE
tmp/3hlcA00.pdb
 137 133 0 0 0
SMALL
GASTEIGER

@<TRIPOS>ATOM
      1  N        -12.2930   11.4610  -17.2780 N.3    85  ARG85      -0.1245
      2  CA       -11.7210   11.2790  -18.5980 C.3    85  ARG85       0.1563
      3  C        -10.3000   11.8460  -18.6050 C.2    85  ARG85       0.2260
      4  O        -10.1020   13.0380  -18.3830 O.2    85  ARG85      -0.2867
      5  CB       -12.5790   11.9940  -19.6400 C.3    85  ARG85       0.0307
      6  CG       -11.9930   11.8960  -21.0490 C.3    85  ARG85       0.0489
      7  CD       -12.9420   12.4120  -22.1010 C.3    85  ARG85       0.2205
      8  NE       -12.2300   12.5990  -23.3710 N.pl3  85  ARG85      -0.0865
      9  CZ       -11.8140   13.7650  -23.8660 C.cat  85  ARG85       0.5346
     10  NH1      -12.0410   14.9200  -23.2440 N.pl3  85  ARG85       0.1354
     11  NH2      -11.1760   13.7770  -25.0260 N.pl3  85  ARG85       0.1354
     12  N         -5.3550   12.6920  -23.1620 N.3    88  SER88      -0.1217
     13  CA        -3.9020   12.5010  -23.3540 C.3    88  SER88       0.1889
     14  C         -3.0650   12.2460  -22.0820 C.2    88  SER88       0.2288
     15  O         -1.8940   11.8470  -22.1840 O.2    88  SER88      -0.2866
     16  CB        -3.2950   13.6500  -24.1850 C.3    88  SER88       0.2089
     17  OG        -3.3960   14.9080  -23.5170 O.3    88  SER88      -0.2183
     18  N         -1.2460   14.2110  -35.3050 N.3   158  TYR158     -0.1241
     19  CA        -2.6980   14.2870  -35.2430 C.3   158  TYR158      0.1605
     20  C         -3.1950   15.0750  -36.4520 C.2   158  TYR158      0.2264
     21  O         -2.5610   16.0470  -36.8730 O.2   158  TYR158     -0.2867
     22  CB        -3.1600   14.9730  -33.9500 C.3   158  TYR158      0.0534
     23  CG        -3.0770   14.1090  -32.7180 C.ar  158  TYR158     -0.0201
     24  CD1       -3.9610   13.0450  -32.5310 C.ar  158  TYR158     -0.0009
     25  CD2       -2.1310   14.3580  -31.7310 C.ar  158  TYR158     -0.0009
     26  CE1       -3.9010   12.2460  -31.3920 C.ar  158  TYR158      0.0417
     27  CE2       -2.0620   13.5680  -30.5900 C.ar  158  TYR158      0.0417
     28  CZ        -2.9450   12.5180  -30.4270 C.ar  158  TYR158      0.1957
     29  OH        -2.8750   11.7360  -29.3090 O.3   158  TYR158     -0.2866
     30  N         -5.7660   17.1780  -36.9630 N.3   160  PHE160     -0.1227
     31  CA        -6.1840   18.5710  -36.8210 C.3   160  PHE160      0.1736
     32  C         -5.0240   19.5410  -36.5250 C.2   160  PHE160      0.2595
     33  O         -5.1820   20.7430  -36.6950 O.2   160  PHE160     -0.2718
     34  CB        -7.3050   18.6970  -35.7830 C.3   160  PHE160      0.0547
     35  CG        -6.8280   18.9480  -34.3850 C.ar  160  PHE160     -0.0202
     36  CD1       -7.0350   20.1870  -33.7840 C.ar  160  PHE160     -0.0042
     37  CD2       -6.1960   17.9490  -33.6550 C.ar  160  PHE160     -0.0042
     38  CE1       -6.6100   20.4280  -32.4820 C.ar  160  PHE160     -0.0003
     39  CE2       -5.7670   18.1820  -32.3510 C.ar  160  PHE160     -0.0003
     40  CZ        -5.9710   19.4300  -31.7690 C.ar  160  PHE160     -0.0000
     41  N         -3.8670   19.0200  -36.1130 N.am  161  LEU161     -0.1980
     42  CA        -2.6920   19.8550  -35.8330 C.3   161  LEU161      0.1596
     43  C         -1.7300   20.0460  -37.0100 C.2   161  LEU161      0.2287
     44  O         -0.7410   20.7770  -36.8860 O.2   161  LEU161     -0.2864
     45  CB        -1.9090   19.3000  -34.6410 C.3   161  LEU161      0.0297
     46  CG        -2.6200   19.3460  -33.2880 C.3   161  LEU161      0.0022
     47  CD1       -1.6860   18.8100  -32.2250 C.3   161  LEU161      0.0001
     48  CD2       -3.0840   20.7670  -32.9380 C.3   161  LEU161      0.0001
     49  N         -8.2990    6.1650  -36.3600 N.3   177  ARG177     -0.1245
     50  CA        -7.1690    6.8510  -35.7310 C.3   177  ARG177      0.1563
     51  C         -5.8150    6.5130  -36.3640 C.2   177  ARG177      0.2260
     52  O         -4.8840    7.3210  -36.3140 O.2   177  ARG177     -0.2867
     53  CB        -7.1320    6.5300  -34.2330 C.3   177  ARG177      0.0307
     54  CG        -7.7310    7.6200  -33.3640 C.3   177  ARG177      0.0489
     55  CD        -6.6270    8.4550  -32.6970 C.3   177  ARG177      0.2205
     56  NE        -7.0700    9.2280  -31.5320 N.pl3 177  ARG177     -0.0865
     57  CZ        -7.7250    8.7360  -30.4740 C.cat 177  ARG177      0.5346
     58  NH1       -8.0570    9.5520  -29.4770 N.pl3 177  ARG177      0.1354
     59  NH2       -8.0660    7.4480  -30.3890 N.pl3 177  ARG177      0.1354
     60  N          3.5510   16.3620  -32.3370 N.3   192  TYR192     -0.1241
     61  CA         2.5780   15.7190  -31.4580 C.3   192  TYR192      0.1605
     62  C          1.6380   14.8440  -32.2970 C.2   192  TYR192      0.2264
     63  O          0.9750   15.3310  -33.2280 O.2   192  TYR192     -0.2867
     64  CB         1.7990   16.7900  -30.6860 C.3   192  TYR192      0.0534
     65  CG         0.9480   16.2780  -29.5480 C.ar  192  TYR192     -0.0201
     66  CD1        1.4870   15.4660  -28.5550 C.ar  192  TYR192     -0.0009
     67  CD2       -0.3920   16.6150  -29.4540 C.ar  192  TYR192     -0.0009
     68  CE1        0.7000   15.0040  -27.4910 C.ar  192  TYR192      0.0417
     69  CE2       -1.1860   16.1450  -28.3980 C.ar  192  TYR192      0.0417
     70  CZ        -0.6290   15.3440  -27.4230 C.ar  192  TYR192      0.1957
     71  OH        -1.4100   14.8840  -26.3810 O.3   192  TYR192     -0.2866
     72  N         -5.3010    8.0180  -25.6640 N.3   274  GLN274     -0.1245
     73  CA        -6.3210    8.8370  -24.9860 C.3   274  GLN274      0.1566
     74  C         -7.4350    8.0860  -24.2600 C.2   274  GLN274      0.2260
     75  O         -8.3790    8.7160  -23.7870 O.2   274  GLN274     -0.2867
     76  CB        -6.9620    9.8260  -25.9860 C.3   274  GLN274      0.0367
     77  CG        -5.9730   10.8600  -26.5640 C.3   274  GLN274      0.0905
     78  CD        -6.6170   12.1390  -27.0840 C.2   274  GLN274      0.2608
     79  OE1       -7.7470   12.4860  -26.7260 O.2   274  GLN274     -0.2717
     80  NE2       -5.8770   12.8630  -27.9240 N.am  274  GLN274     -0.0878
     81  N         -1.6860   26.2620  -28.7160 N.3   329  ILE329     -0.1245
     82  CA        -1.7230   24.8230  -28.4160 C.3   329  ILE329      0.1561
     83  C         -1.2970   24.6170  -26.9540 C.2   329  ILE329      0.2260
     84  O         -1.9800   23.9410  -26.1910 O.2   329  ILE329     -0.2867
     85  CB        -0.7960   24.0330  -29.3510 C.3   329  ILE329      0.0252
     86  CG1       -1.2050   24.2560  -30.8170 C.3   329  ILE329      0.0019
     87  CG2       -0.8100   22.5220  -29.0000 C.3   329  ILE329      0.0019
     88  CD1       -0.2050   23.6890  -31.8370 C.3   329  ILE329      0.0001
     89  N          1.3380   23.0070  -25.0620 N.3   331  TYR331     -0.1241
     90  CA         1.5710   21.6600  -24.5130 C.3   331  TYR331      0.1605
     91  C          1.9480   21.7040  -23.0230 C.2   331  TYR331      0.2264
     92  O          1.5680   20.8190  -22.2570 O.2   331  TYR331     -0.2867
     93  CB         2.6680   20.9040  -25.2910 C.3   331  TYR331      0.0534
     94  CG         2.4840   20.8720  -26.8000 C.ar  331  TYR331     -0.0201
     95  CD1        1.7410   19.8760  -27.4310 C.ar  331  TYR331     -0.0009
     96  CD2        3.0670   21.8440  -27.5910 C.ar  331  TYR331     -0.0009
     97  CE1        1.5880   19.8680  -28.8290 C.ar  331  TYR331      0.0417
     98  CE2        2.9210   21.8470  -28.9550 C.ar  331  TYR331      0.0417
     99  CZ         2.1880   20.8610  -29.5770 C.ar  331  TYR331      0.1957
    100  OH         2.0710   20.9190  -30.9530 O.3   331  TYR331     -0.2866
    101  N          3.1090   16.6960  -18.3330 N.3   367  PHE367     -0.1227
    102  CA         2.2580   16.7390  -19.5020 C.3   367  PHE367      0.1736
    103  C          0.8460   17.0400  -19.0580 C.2   367  PHE367      0.2596
    104  O          0.5940   17.3130  -17.8800 O.2   367  PHE367     -0.2718
    105  CB         2.3240   15.4300  -20.3200 C.3   367  PHE367      0.0547
    106  CG         2.1980   15.6470  -21.8110 C.ar  367  PHE367     -0.0202
    107  CD1        1.0730   15.2140  -22.5060 C.ar  367  PHE367     -0.0042
    108  CD2        3.1950   16.3220  -22.5110 C.ar  367  PHE367     -0.0042
    109  CE1        0.9550   15.4320  -23.8780 C.ar  367  PHE367     -0.0003
    110  CE2        3.0820   16.5460  -23.8890 C.ar  367  PHE367     -0.0003
    111  CZ         1.9660   16.1100  -24.5660 C.ar  367  PHE367     -0.0000
    112  N         -0.0730   17.0230  -20.0140 N.am  368  GLY368     -0.1942
    113  CA        -1.4650   17.2470  -19.7070 C.3   368  GLY368      0.2014
    114  C         -2.4420   16.3250  -20.3960 C.2   368  GLY368      0.2639
    115  O         -2.0880   15.4850  -21.2410 O.2   368  GLY368     -0.2714
    116  N         -3.6940   16.4910  -19.9940 N.am  369  GLY369     -0.1939
    117  CA        -4.8280   15.8630  -20.6520 C.3   369  GLY369      0.2014
    118  C         -5.7870   16.9490  -21.0700 C.2   369  GLY369      0.2639
    119  O         -5.9690   17.9190  -20.3380 O.2   369  GLY369     -0.2714
    120  N         -6.4190   16.7410  -22.2320 N.am  370  GLY370     -0.1954
    121  CA        -7.3990   17.6380  -22.8240 C.3   370  GLY370      0.1869
    122  C         -8.2480   18.4850  -21.9030 C.2   370  GLY370      0.2309
    123  O         -8.2150   19.7140  -22.0090 O.2   370  GLY370     -0.2863
    124  N         -8.9660   22.3930  -23.7800 N.3   394  TRP394     -0.1241
    125  CA        -7.6110   22.5230  -23.2420 C.3   394  TRP394      0.1605
    126  C         -7.1510   23.9910  -23.2150 C.2   394  TRP394      0.2264
    127  O         -7.6090   24.8140  -24.0200 O.2   394  TRP394     -0.2867
    128  CB        -6.6370   21.6700  -24.0700 C.3   394  TRP394      0.0550
    129  CG        -5.2030   21.9450  -23.7360 C.ar  394  TRP394      0.0003
    130  CD1       -4.3080   22.6440  -24.4890 C.ar  394  TRP394      0.0946
    131  CD2       -4.5160   21.5570  -22.5460 C.ar  394  TRP394      0.0152
    132  NE1       -3.0990   22.7140  -23.8420 N.ar  394  TRP394     -0.2442
    133  CE2       -3.2000   22.0460  -22.6450 C.ar  394  TRP394      0.0810
    134  CE3       -4.8780   20.8190  -21.4120 C.ar  394  TRP394      0.0012
    135  CZ2       -2.2470   21.8240  -21.6500 C.ar  394  TRP394      0.0191
    136  CZ3       -3.9300   20.6120  -20.4150 C.ar  394  TRP394      0.0001
    137  CH2       -2.6350   21.1240  -20.5390 C.ar  394  TRP394      0.0015
@<TRIPOS>BOND
     1    43    44    2
     2    43    42    1
     3    30    31    1
     4    21    20    2
     5    31    32    1
     6    31    34    1
     7    33    32    2
     8    32    41   am
     9    20    19    1
    10    51    52    2
    11    51    50    1
    12    49    50    1
    13    41    42    1
    14    42    45    1
    15    34    35    1
    16    50    53    1
    17    18    19    1
    18    19    22    1
    19    45    46    1
    20    35    36   ar
    21    35    37   ar
    22    53    54    1
    23    22    23    1
    24    36    38   ar
    25    37    39   ar
    26    54    55    1
    27    46    48    1
    28    46    47    1
    29    63    62    2
    30    23    24   ar
    31    23    25   ar
    32    55    56    1
    33    24    26   ar
    34    38    40   ar
    35    39    40   ar
    36    60    61    1
    37    62    61    1
    38    88    86    1
    39    25    27   ar
    40    56    57    2
    41    61    64    1
    42    26    28   ar
    43   100    99    1
    44    86    85    1
    45    64    65    1
    46    27    28   ar
    47    57    59    1
    48    57    58    1
    49    28    29    1
    50    99    98   ar
    51    99    97   ar
    52    65    67   ar
    53    65    66   ar
    54    67    69   ar
    55    85    87    1
    56    85    82    1
    57    98    96   ar
    58    97    95   ar
    59    81    82    1
    60    66    68   ar
    61    82    83    1
    62    69    70   ar
    63    80    78   am
    64    96    94   ar
    65    68    70   ar
    66    95    94   ar
    67    70    71    1
    68    78    79    2
    69    78    77    1
    70    83    84    2
    71    94    93    1
    72    77    76    1
    73    76    73    1
    74    72    73    1
    75    93    90    1
    76    89    90    1
    77    11     9    1
    78    73    74    1
    79   111   110   ar
    80   111   109   ar
    81    90    91    1
    82   130   132   ar
    83   130   129   ar
    84    74    75    2
    85    16    17    1
    86    16    13    1
    87   128   129    1
    88   128   125    1
    89   127   126    2
    90   110   108   ar
    91   109   107   ar
    92     9     8    2
    93     9    10    1
    94   132   133   ar
    95   124   125    1
    96   129   131   ar
    97     8     7    1
    98    13    12    1
    99    13    14    1
   100   125   126    1
   101    91    92    2
   102   121   120    1
   103   121   122    1
   104   133   131   ar
   105   133   135   ar
   106   131   134   ar
   107   108   106   ar
   108   107   106   ar
   109   120   118   am
   110    15    14    2
   111     7     6    1
   112   123   122    2
   113   106   105    1
   114   135   137   ar
   115   134   136   ar
   116   115   114    2
   117   118   117    1
   118   118   119    2
   119     6     5    1
   120   117   116    1
   121   137   136   ar
   122   114   116   am
   123   114   113    1
   124   105   102    1
   125   112   113    1
   126   112   103   am
   127     5     2    1
   128   102   103    1
   129   102   101    1
   130   103   104    2
   131     3     2    1
   132     3     4    2
   133     2     1    1
