@<TRIPOS>MOLECULE
tmp/3hldA00.pdb
 154 153 0 0 0
SMALL
GASTEIGER

@<TRIPOS>ATOM
      1  N        -12.6020   12.0070  -17.5710 N.3    85  ARG85      -0.1245
      2  CA       -11.9130   11.8780  -18.8590 C.3    85  ARG85       0.1563
      3  C        -10.4800   12.4260  -18.7270 C.2    85  ARG85       0.2260
      4  O        -10.2860   13.6140  -18.4770 O.2    85  ARG85      -0.2867
      5  CB       -12.6790   12.6820  -19.9120 C.3    85  ARG85       0.0307
      6  CG       -12.0160   12.7010  -21.2910 C.3    85  ARG85       0.0489
      7  CD       -12.7990   13.5120  -22.3190 C.3    85  ARG85       0.2205
      8  NE       -11.9350   13.7940  -23.4740 N.pl3  85  ARG85      -0.0865
      9  CZ       -11.7090   14.9910  -24.0090 C.cat  85  ARG85       0.5346
     10  NH1      -12.3230   16.0800  -23.5610 N.pl3  85  ARG85       0.1354
     11  NH2      -10.8720   15.0960  -25.0420 N.pl3  85  ARG85       0.1354
     12  N         -5.5200   13.5950  -23.0440 N.3    88  SER88      -0.1217
     13  CA        -4.0700   13.4280  -23.2580 C.3    88  SER88       0.1889
     14  C         -3.2450   13.1710  -22.0230 C.2    88  SER88       0.2288
     15  O         -2.0800   12.8280  -22.1400 O.2    88  SER88      -0.2866
     16  CB        -3.4840   14.5850  -24.0570 C.3    88  SER88       0.2089
     17  OG        -3.7540   14.3940  -25.4260 O.3    88  SER88      -0.2183
     18  N         -6.9030   17.9350  -36.0920 N.3   160  PHE160     -0.1227
     19  CA        -7.4330   19.2250  -35.6360 C.3   160  PHE160      0.1736
     20  C         -6.3700   20.3260  -35.5610 C.2   160  PHE160      0.2595
     21  O         -6.7140   21.5060  -35.5630 O.2   160  PHE160     -0.2718
     22  CB        -8.1920   19.0980  -34.2970 C.3   160  PHE160      0.0547
     23  CG        -7.3800   18.5190  -33.1570 C.ar  160  PHE160     -0.0202
     24  CD1       -6.5600   19.3260  -32.3870 C.ar  160  PHE160     -0.0042
     25  CD2       -7.4820   17.1670  -32.8300 C.ar  160  PHE160     -0.0042
     26  CE1       -5.8300   18.7920  -31.3280 C.ar  160  PHE160     -0.0003
     27  CE2       -6.7570   16.6210  -31.7710 C.ar  160  PHE160     -0.0003
     28  CZ        -5.9300   17.4310  -31.0230 C.ar  160  PHE160     -0.0000
     29  N         -5.0920   19.9430  -35.5370 N.am  161  LEU161     -0.1980
     30  CA        -3.9920   20.8790  -35.2820 C.3   161  LEU161      0.1596
     31  C         -3.2530   21.3840  -36.5060 C.2   161  LEU161      0.2287
     32  O         -2.9360   22.5680  -36.5660 O.2   161  LEU161     -0.2864
     33  CB        -2.9620   20.2770  -34.3150 C.3   161  LEU161      0.0297
     34  CG        -3.0590   20.7160  -32.8610 C.3   161  LEU161      0.0022
     35  CD1       -1.9220   20.0890  -32.0610 C.3   161  LEU161      0.0001
     36  CD2       -3.0350   22.2420  -32.7450 C.3   161  LEU161      0.0001
     37  N         -7.2770    7.5340  -34.7980 N.3   185  ARG185     -0.1245
     38  CA        -5.9790    8.1800  -34.6580 C.3   185  ARG185      0.1563
     39  C         -4.8820    7.4890  -35.4770 C.2   185  ARG185      0.2260
     40  O         -3.7380    7.9420  -35.4620 O.2   185  ARG185     -0.2867
     41  CB        -5.5740    8.2630  -33.1810 C.3   185  ARG185      0.0307
     42  CG        -6.4970    9.1170  -32.3220 C.3   185  ARG185      0.0489
     43  CD        -6.7770   10.4820  -32.9420 C.3   185  ARG185      0.2205
     44  NE        -7.2250   11.4470  -31.9390 N.pl3 185  ARG185     -0.0865
     45  CZ        -7.9010   12.5700  -32.1910 C.cat 185  ARG185      0.5346
     46  NH1       -8.2510   13.3610  -31.1830 N.pl3 185  ARG185      0.1354
     47  NH2       -8.2470   12.9090  -33.4280 N.pl3 185  ARG185      0.1354
     48  N          3.3610   17.7130  -32.2890 N.3   200  TYR200     -0.1241
     49  CA         2.4280   17.0280  -31.4040 C.3   200  TYR200      0.1605
     50  C          1.4720   16.2130  -32.2530 C.2   200  TYR200      0.2264
     51  O          0.8160   16.7510  -33.1440 O.2   200  TYR200     -0.2867
     52  CB         1.6640   18.0520  -30.5640 C.3   200  TYR200      0.0534
     53  CG         0.8240   17.4720  -29.4500 C.ar  200  TYR200     -0.0201
     54  CD1        1.3500   16.5430  -28.5550 C.ar  200  TYR200     -0.0009
     55  CD2       -0.5000   17.8730  -29.2780 C.ar  200  TYR200     -0.0009
     56  CE1        0.5790   16.0330  -27.5100 C.ar  200  TYR200      0.0417
     57  CE2       -1.2750   17.3650  -28.2500 C.ar  200  TYR200      0.0417
     58  CZ        -0.7400   16.4410  -27.3740 C.ar  200  TYR200      0.1957
     59  OH        -1.5210   15.9400  -26.3550 O.3   200  TYR200     -0.2866
     60  N        -16.9470   11.2370  -26.1140 N.3   270  TYR270     -0.1241
     61  CA       -16.0650   10.3720  -25.3270 C.3   270  TYR270      0.1605
     62  C        -16.7440    9.7570  -24.0960 C.2   270  TYR270      0.2264
     63  O        -16.3320    8.6970  -23.6320 O.2   270  TYR270     -0.2867
     64  CB       -14.7940   11.1260  -24.9190 C.3   270  TYR270      0.0534
     65  CG       -14.0410   11.7240  -26.0970 C.ar  270  TYR270     -0.0201
     66  CD1      -13.5030   10.9120  -27.0980 C.ar  270  TYR270     -0.0009
     67  CD2      -13.8760   13.1020  -26.2150 C.ar  270  TYR270     -0.0009
     68  CE1      -12.8160   11.4620  -28.1930 C.ar  270  TYR270      0.0417
     69  CE2      -13.1910   13.6610  -27.2960 C.ar  270  TYR270      0.0417
     70  CZ       -12.6600   12.8410  -28.2810 C.ar  270  TYR270      0.1957
     71  OH       -11.9800   13.4170  -29.3420 O.3   270  TYR270     -0.2866
     72  N         -1.5360   30.4400  -28.2640 N.3   336  HIS336     -0.1226
     73  CA        -2.9170   30.0310  -28.5200 C.3   336  HIS336      0.1752
     74  C         -3.1170   28.5310  -28.3700 C.2   336  HIS336      0.2595
     75  O         -4.2630   28.0670  -28.2900 O.2   336  HIS336     -0.2718
     76  CB        -3.3740   30.4710  -29.9130 C.3   336  HIS336      0.0759
     77  CG        -2.6190   29.8250  -31.0290 C.ar  336  HIS336      0.0818
     78  ND1       -1.2460   29.9000  -31.1440 N.ar  336  HIS336     -0.2268
     79  CD2       -3.0480   29.1040  -32.0920 C.ar  336  HIS336      0.1154
     80  CE1       -0.8620   29.2340  -32.2180 C.ar  336  HIS336      0.1986
     81  NE2       -1.9340   28.7390  -32.8100 N.ar  336  HIS336     -0.2212
     82  N         -2.0200   27.7790  -28.3920 N.am  337  ILE337     -0.1980
     83  CA        -2.0570   26.3390  -28.1160 C.3   337  ILE337      0.1595
     84  C         -1.6220   26.1030  -26.6700 C.2   337  ILE337      0.2287
     85  O         -2.3540   25.4840  -25.8930 O.2   337  ILE337     -0.2864
     86  CB        -1.1770   25.5560  -29.0710 C.3   337  ILE337      0.0276
     87  CG1       -1.6620   25.7610  -30.5090 C.3   337  ILE337      0.0022
     88  CG2       -1.1700   24.0640  -28.6930 C.3   337  ILE337      0.0022
     89  CD1       -0.6770   25.3120  -31.5630 C.3   337  ILE337      0.0001
     90  N          1.1470   24.3560  -24.8780 N.3   339  TYR339     -0.1241
     91  CA         1.2760   22.9640  -24.4600 C.3   339  TYR339      0.1605
     92  C          1.6490   22.9140  -22.9810 C.2   339  TYR339      0.2264
     93  O          1.2570   21.9870  -22.2810 O.2   339  TYR339     -0.2867
     94  CB         2.3400   22.2220  -25.2700 C.3   339  TYR339      0.0534
     95  CG         2.1750   22.2710  -26.7780 C.ar  339  TYR339     -0.0201
     96  CD1        1.6240   21.2050  -27.4810 C.ar  339  TYR339     -0.0009
     97  CD2        2.5960   23.3730  -27.4950 C.ar  339  TYR339     -0.0009
     98  CE1        1.4890   21.2610  -28.8680 C.ar  339  TYR339      0.0417
     99  CE2        2.4630   23.4370  -28.8710 C.ar  339  TYR339      0.0417
    100  CZ         1.9130   22.3850  -29.5470 C.ar  339  TYR339      0.1957
    101  OH         1.8010   22.4770  -30.9150 O.3   339  TYR339     -0.2866
    102  N          2.8160   17.5390  -18.3200 N.3   375  PHE375     -0.1227
    103  CA         1.9910   17.5540  -19.4960 C.3   375  PHE375      0.1736
    104  C          0.5510   17.7340  -19.0020 C.2   375  PHE375      0.2596
    105  O          0.3130   18.1750  -17.8690 O.2   375  PHE375     -0.2718
    106  CB         2.1810   16.2760  -20.3390 C.3   375  PHE375      0.0547
    107  CG         2.0940   16.5170  -21.8320 C.ar  375  PHE375     -0.0202
    108  CD1        2.9630   17.3840  -22.4510 C.ar  375  PHE375     -0.0042
    109  CD2        1.1060   15.8990  -22.6030 C.ar  375  PHE375     -0.0042
    110  CE1        2.8760   17.6330  -23.8190 C.ar  375  PHE375     -0.0003
    111  CE2        1.0170   16.1380  -23.9690 C.ar  375  PHE375     -0.0003
    112  CZ         1.9280   16.9970  -24.5750 C.ar  375  PHE375     -0.0000
    113  N         -0.4070   17.3900  -19.8310 N.am  376  GLY376     -0.1942
    114  CA        -1.7790   17.7000  -19.4800 C.3   376  GLY376      0.2014
    115  C         -2.7440   16.9740  -20.3440 C.2   376  GLY376      0.2639
    116  O         -2.3520   16.1590  -21.1890 O.2   376  GLY376     -0.2714
    117  N         -4.0160   17.2750  -20.0980 N.am  377  GLY377     -0.1939
    118  CA        -5.1250   16.7310  -20.8600 C.3   377  GLY377      0.2014
    119  C         -6.1360   17.8290  -21.1540 C.2   377  GLY377      0.2639
    120  O         -6.3610   18.7220  -20.3370 O.2   377  GLY377     -0.2714
    121  N         -6.7330   17.7430  -22.3340 N.am  378  GLY378     -0.1954
    122  CA        -7.6830   18.7080  -22.8470 C.3   378  GLY378      0.1869
    123  C         -8.5980   19.4290  -21.8670 C.2   378  GLY378      0.2309
    124  O         -8.7350   20.6550  -21.9440 O.2   378  GLY378     -0.2863
    125  N        -13.5570   22.1270  -20.8060 N.3   400  GLU400     -0.1231
    126  CA       -12.9610   22.5600  -22.0710 C.3   400  GLU400      0.1684
    127  C        -13.4140   23.9930  -22.4120 C.2   400  GLU400      0.2434
    128  O        -14.4390   24.4570  -21.9220 O.2   400  GLU400     -0.2733
    129  CB       -13.3320   21.5700  -23.1720 C.3   400  GLU400      0.0402
    130  CG       -12.6940   20.1980  -22.9450 C.3   400  GLU400      0.1161
    131  CD       -12.3090   19.4770  -24.2140 C.2   400  GLU400      0.3649
    132  OE1      -13.0990   19.5150  -25.1880 O.co2 400  GLU400     -0.2457
    133  OE2      -11.2210   18.8560  -24.2240 O.co2 400  GLU400     -0.2457
    134  N        -12.6500   24.7070  -23.2510 N.am  401  PRO401     -0.2718
    135  CA       -11.4520   24.2470  -23.9480 C.3   401  PRO401      0.1535
    136  C        -10.1890   24.3110  -23.1120 C.2   401  PRO401      0.2598
    137  O        -10.1240   25.0410  -22.1240 O.2   401  PRO401     -0.2715
    138  CB       -11.3470   25.2110  -25.1380 C.3   401  PRO401      0.0310
    139  CG       -12.0390   26.4450  -24.7070 C.3   401  PRO401      0.0237
    140  CD       -13.0200   26.0820  -23.6300 C.3   401  PRO401      0.0939
    141  N         -9.2030   23.5130  -23.5130 N.am  402  TRP402     -0.1974
    142  CA        -7.8480   23.5680  -22.9780 C.3   402  TRP402      0.1640
    143  C         -7.3600   25.0210  -22.8460 C.2   402  TRP402      0.2290
    144  O         -7.7710   25.8890  -23.6190 O.2   402  TRP402     -0.2864
    145  CB        -6.9190   22.7820  -23.9170 C.3   402  TRP402      0.0576
    146  CG        -5.4610   22.9530  -23.6090 C.ar  402  TRP402      0.0006
    147  CD1       -4.5660   23.7250  -24.2950 C.ar  402  TRP402      0.0946
    148  CD2       -4.7540   22.4250  -22.4880 C.ar  402  TRP402      0.0152
    149  NE1       -3.3360   23.6840  -23.6910 N.ar  402  TRP402     -0.2442
    150  CE2       -3.4190   22.8910  -22.5790 C.ar  402  TRP402      0.0810
    151  CE3       -5.1070   21.5890  -21.4230 C.ar  402  TRP402      0.0012
    152  CZ2       -2.4430   22.5490  -21.6490 C.ar  402  TRP402      0.0191
    153  CZ3       -4.1390   21.2390  -20.5090 C.ar  402  TRP402      0.0001
    154  CH2       -2.8170   21.7240  -20.6220 C.ar  402  TRP402      0.0015
@<TRIPOS>BOND
     1    32    31    2
     2    31    30    1
     3    18    19    1
     4    19    20    1
     5    19    22    1
     6    21    20    2
     7    20    29   am
     8    29    30    1
     9    39    40    2
    10    39    38    1
    11    30    33    1
    12    37    38    1
    13    38    41    1
    14    33    34    1
    15    22    23    1
    16    47    45    1
    17    41    42    1
    18    23    25   ar
    19    23    24   ar
    20    51    50    2
    21    43    42    1
    22    43    44    1
    23    34    36    1
    24    34    35    1
    25    25    27   ar
    26    81    80   ar
    27    81    79   ar
    28    24    26   ar
    29    48    49    1
    30    50    49    1
    31    80    78   ar
    32    45    44    2
    33    45    46    1
    34    79    77   ar
    35    27    28   ar
    36    89    87    1
    37    49    52    1
    38    26    28   ar
    39    78    77   ar
    40    77    76    1
    41   101   100    1
    42    52    53    1
    43    87    86    1
    44    76    73    1
    45   100    99   ar
    46   100    98   ar
    47    53    55   ar
    48    53    54   ar
    49    71    70    1
    50    55    57   ar
    51    86    88    1
    52    86    83    1
    53    99    97   ar
    54    98    96   ar
    55    54    56   ar
    56    73    74    1
    57    73    72    1
    58    82    74   am
    59    82    83    1
    60    74    75    2
    61    70    68   ar
    62    70    69   ar
    63    57    58   ar
    64    68    66   ar
    65    83    84    1
    66    56    58   ar
    67    97    95   ar
    68    96    95   ar
    69    58    59    1
    70    69    67   ar
    71    66    65   ar
    72    95    94    1
    73    84    85    2
    74    67    65   ar
    75    60    61    1
    76    65    64    1
    77    17    16    1
    78    61    64    1
    79    61    62    1
    80    94    91    1
    81   132   131   ar
    82   138   139    1
    83   138   135    1
    84    11     9    1
    85    90    91    1
    86   139   140    1
    87   112   111   ar
    88   112   110   ar
    89    91    92    1
    90   147   149   ar
    91   147   146   ar
    92   133   131   ar
    93   131   130    1
    94    62    63    2
    95    16    13    1
    96     9    10    1
    97     9     8    2
    98   111   109   ar
    99   135   134    1
   100   135   136    1
   101   145   146    1
   102   145   142    1
   103   110   108   ar
   104   149   150   ar
   105   140   134    1
   106   144   143    2
   107   146   148   ar
   108   141   136   am
   109   141   142    1
   110     8     7    1
   111    13    12    1
   112    13    14    1
   113   134   127   am
   114   129   130    1
   115   129   126    1
   116   136   137    2
   117    92    93    2
   118   142   143    1
   119   122   121    1
   120   122   123    1
   121   109   107   ar
   122   150   148   ar
   123   150   152   ar
   124   148   151   ar
   125   108   107   ar
   126   127   126    1
   127   127   128    2
   128   121   119   am
   129     7     6    1
   130    15    14    2
   131   126   125    1
   132   124   123    2
   133   107   106    1
   134   152   154   ar
   135   151   153   ar
   136     6     5    1
   137   116   115    2
   138   119   118    1
   139   119   120    2
   140   118   117    1
   141   154   153   ar
   142   115   117   am
   143   115   114    1
   144   106   103    1
   145     5     2    1
   146   113   114    1
   147   113   104   am
   148   103   104    1
   149   103   102    1
   150   104   105    2
   151     2     3    1
   152     2     1    1
   153     3     4    2
