@<TRIPOS>MOLECULE
tmp/3hlfA00.pdb
 188 184 0 0 0
SMALL
GASTEIGER

@<TRIPOS>ATOM
      1  N        -12.2260   11.4190  -17.2850 N.3    85  ARG85      -0.1245
      2  CA       -11.6290   11.2440  -18.5990 C.3    85  ARG85       0.1563
      3  C        -10.2070   11.8140  -18.5670 C.2    85  ARG85       0.2260
      4  O        -10.0160   13.0070  -18.3380 O.2    85  ARG85      -0.2867
      5  CB       -12.4780   11.9620  -19.6590 C.3    85  ARG85       0.0307
      6  CG       -11.8660   11.8670  -21.0650 C.3    85  ARG85       0.0489
      7  CD       -12.8140   12.2740  -22.2040 C.3    85  ARG85       0.2205
      8  NE       -12.0360   12.3400  -23.4500 N.pl3  85  ARG85      -0.0865
      9  CZ       -11.5150   13.4450  -23.9860 C.cat  85  ARG85       0.5346
     10  NH1      -11.7140   14.6420  -23.4480 N.pl3  85  ARG85       0.1354
     11  NH2      -10.7960   13.3540  -25.0960 N.pl3  85  ARG85       0.1354
     12  N         -7.8810   11.6540  -21.1450 N.3    87  ALA87      -0.1231
     13  CA        -7.3800   12.0680  -22.4470 C.3    87  ALA87       0.1694
     14  C         -5.8420   11.8630  -22.5010 C.2    87  ALA87       0.2591
     15  O         -5.3730   10.7860  -22.1230 O.2    87  ALA87      -0.2718
     16  CB        -7.8260   13.5150  -22.7810 C.3    87  ALA87       0.0304
     17  N         -5.0500   12.8510  -22.9360 N.am   88  ALA88      -0.1980
     18  CA        -3.5920   12.6290  -23.1100 C.3    88  ALA88       0.1597
     19  C         -2.7960   12.3400  -21.8320 C.2    88  ALA88       0.2287
     20  O         -1.6130   12.0070  -21.9210 O.2    88  ALA88      -0.2864
     21  CB        -2.9220   13.7890  -23.8980 C.3    88  ALA88       0.0319
     22  N         -1.0840    9.0360  -21.9010 N.3    91  LYS91      -0.1245
     23  CA         0.2220    8.8080  -22.5380 C.3    91  LYS91       0.1561
     24  C          1.3480    8.3980  -21.5780 C.2    91  LYS91       0.2260
     25  O          2.2110    7.5820  -21.9370 O.2    91  LYS91      -0.2867
     26  CB         0.6420   10.0400  -23.3480 C.3    91  LYS91       0.0271
     27  CG        -0.2240   10.2840  -24.5880 C.3    91  LYS91       0.0035
     28  CD         0.3440   11.4110  -25.4480 C.3    91  LYS91       0.0206
     29  CE        -0.3160   11.5060  -26.8030 C.3    91  LYS91       0.1093
     30  NZ        -1.7450   11.9070  -26.7870 N.3    91  LYS91      -0.1314
     31  N         -1.5920   14.7220  -35.5430 N.3   158  TYR158     -0.1241
     32  CA        -3.0020   14.5500  -35.2750 C.3   158  TYR158      0.1605
     33  C         -3.7520   15.2540  -36.3960 C.2   158  TYR158      0.2264
     34  O         -3.3350   16.3260  -36.8420 O.2   158  TYR158     -0.2867
     35  CB        -3.3790   15.1670  -33.9170 C.3   158  TYR158      0.0534
     36  CG        -3.1800   14.2520  -32.7220 C.ar  158  TYR158     -0.0201
     37  CD1       -4.0030   13.1380  -32.5330 C.ar  158  TYR158     -0.0009
     38  CD2       -2.1910   14.5020  -31.7740 C.ar  158  TYR158     -0.0009
     39  CE1       -3.8470   12.2990  -31.4320 C.ar  158  TYR158      0.0417
     40  CE2       -2.0270   13.6640  -30.6610 C.ar  158  TYR158      0.0417
     41  CZ        -2.8570   12.5610  -30.5050 C.ar  158  TYR158      0.1957
     42  OH        -2.7140   11.7260  -29.4200 O.3   158  TYR158     -0.2866
     43  N         -6.6110   16.8490  -36.3360 N.3   160  PHE160     -0.1227
     44  CA        -7.1280   18.1590  -35.9030 C.3   160  PHE160      0.1736
     45  C         -6.0560   19.2240  -35.6410 C.2   160  PHE160      0.2595
     46  O         -6.4000   20.3240  -35.2100 O.2   160  PHE160     -0.2718
     47  CB        -8.0420   18.0160  -34.6650 C.3   160  PHE160      0.0547
     48  CG        -7.3910   17.3280  -33.4880 C.ar  160  PHE160     -0.0202
     49  CD1       -6.5190   18.0150  -32.6530 C.ar  160  PHE160     -0.0042
     50  CD2       -7.6550   15.9910  -33.2170 C.ar  160  PHE160     -0.0042
     51  CE1       -5.9180   17.3830  -31.5750 C.ar  160  PHE160     -0.0003
     52  CE2       -7.0530   15.3500  -32.1410 C.ar  160  PHE160     -0.0003
     53  CZ        -6.1830   16.0470  -31.3200 C.ar  160  PHE160     -0.0000
     54  N         -4.7820   18.9150  -35.8940 N.am  161  LEU161     -0.1980
     55  CA        -3.6780   19.8570  -35.6530 C.3   161  LEU161      0.1596
     56  C         -2.8910   20.3090  -36.8820 C.2   161  LEU161      0.2287
     57  O         -2.4790   21.4690  -36.9360 O.2   161  LEU161     -0.2864
     58  CB        -2.6850   19.2870  -34.6350 C.3   161  LEU161      0.0297
     59  CG        -3.0480   19.4430  -33.1590 C.3   161  LEU161      0.0022
     60  CD1       -1.9550   18.8310  -32.2830 C.3   161  LEU161      0.0001
     61  CD2       -3.2800   20.9160  -32.8000 C.3   161  LEU161      0.0001
     62  N         -7.1630    6.3960  -34.6370 N.3   185  ARG185     -0.1245
     63  CA        -5.8630    7.0510  -34.5100 C.3   185  ARG185      0.1563
     64  C         -4.7590    6.3340  -35.2900 C.2   185  ARG185      0.2260
     65  O         -3.6090    6.7590  -35.2350 O.2   185  ARG185     -0.2867
     66  CB        -5.4570    7.1790  -33.0360 C.3   185  ARG185      0.0307
     67  CG        -6.3870    8.0630  -32.1960 C.3   185  ARG185      0.0489
     68  CD        -6.6170    9.4340  -32.8170 C.3   185  ARG185      0.2205
     69  NE        -7.2660   10.3540  -31.8830 N.pl3 185  ARG185     -0.0865
     70  CZ        -8.0350   11.3850  -32.2240 C.cat 185  ARG185      0.5346
     71  NH1       -8.5780   12.1400  -31.2730 N.pl3 185  ARG185      0.1354
     72  NH2       -8.2870   11.6670  -33.5010 N.pl3 185  ARG185      0.1354
     73  N          3.5560   16.5970  -32.3370 N.3   200  TYR200     -0.1241
     74  CA         2.6100   15.9380  -31.4410 C.3   200  TYR200      0.1605
     75  C          1.6610   15.0780  -32.2680 C.2   200  TYR200      0.2264
     76  O          1.0110   15.5740  -33.1880 O.2   200  TYR200     -0.2867
     77  CB         1.8450   16.9820  -30.6320 C.3   200  TYR200      0.0534
     78  CG         0.9980   16.4060  -29.5160 C.ar  200  TYR200     -0.0201
     79  CD1        1.5310   15.4950  -28.6110 C.ar  200  TYR200     -0.0009
     80  CD2       -0.3210   16.7930  -29.3510 C.ar  200  TYR200     -0.0009
     81  CE1        0.7600   14.9700  -27.5730 C.ar  200  TYR200      0.0417
     82  CE2       -1.1000   16.2800  -28.3200 C.ar  200  TYR200      0.0417
     83  CZ        -0.5510   15.3730  -27.4310 C.ar  200  TYR200      0.1957
     84  OH        -1.3230   14.8570  -26.4090 O.3   200  TYR200     -0.2866
     85  N        -16.7720   10.4480  -26.1570 N.3   270  TYR270     -0.1241
     86  CA       -15.8830    9.6100  -25.3630 C.3   270  TYR270      0.1605
     87  C        -16.5130    9.0870  -24.0800 C.2   270  TYR270      0.2264
     88  O        -16.0170    8.1190  -23.5110 O.2   270  TYR270     -0.2867
     89  CB       -14.5890   10.3590  -25.0560 C.3   270  TYR270      0.0534
     90  CG       -13.8020   10.6910  -26.3010 C.ar  270  TYR270     -0.0201
     91  CD1      -13.2920    9.6790  -27.1120 C.ar  270  TYR270     -0.0009
     92  CD2      -13.5690   12.0150  -26.6710 C.ar  270  TYR270     -0.0009
     93  CE1      -12.5670    9.9770  -28.2630 C.ar  270  TYR270      0.0417
     94  CE2      -12.8460   12.3250  -27.8170 C.ar  270  TYR270      0.0417
     95  CZ       -12.3440   11.3010  -28.6100 C.ar  270  TYR270      0.1957
     96  OH       -11.6240   11.6060  -29.7460 O.3   270  TYR270     -0.2866
     97  N         -2.9640    6.6330  -26.4940 N.3   281  GLY281     -0.1210
     98  CA        -2.7470    8.0690  -26.4730 C.3   281  GLY281      0.1956
     99  C         -3.7910    8.8620  -25.6930 C.2   281  GLY281      0.2611
    100  O         -3.5260    9.9970  -25.2870 O.2   281  GLY281     -0.2717
    101  N         -4.9710    8.2830  -25.4860 N.am  282  GLN282     -0.1979
    102  CA        -6.1230    9.0640  -25.0340 C.3   282  GLN282      0.1601
    103  C         -7.1990    8.3320  -24.2260 C.2   282  GLN282      0.2287
    104  O         -8.1100    8.9840  -23.7160 O.2   282  GLN282     -0.2864
    105  CB        -6.8070    9.6870  -26.2590 C.3   282  GLN282      0.0394
    106  CG        -7.4740    8.6340  -27.1510 C.3   282  GLN282      0.0908
    107  CD        -7.9360    9.1700  -28.4880 C.2   282  GLN282      0.2608
    108  OE1       -7.3050   10.0500  -29.0710 O.2   282  GLN282     -0.2717
    109  NE2       -9.0320    8.6100  -29.0010 N.am  282  GLN282     -0.0878
    110  N         -1.1290   29.2760  -28.3360 N.3   336  HIS336     -0.1226
    111  CA        -2.5190   28.8510  -28.5470 C.3   336  HIS336      0.1752
    112  C         -2.7220   27.3430  -28.4030 C.2   336  HIS336      0.2595
    113  O         -3.8450   26.9070  -28.1970 O.2   336  HIS336     -0.2718
    114  CB        -3.0250   29.2870  -29.9180 C.3   336  HIS336      0.0759
    115  CG        -2.3730   28.5780  -31.0570 C.ar  336  HIS336      0.0818
    116  ND1       -1.0090   28.5850  -31.2610 N.ar  336  HIS336     -0.2268
    117  CD2       -2.9020   27.8440  -32.0660 C.ar  336  HIS336      0.1154
    118  CE1       -0.7260   27.8860  -32.3460 C.ar  336  HIS336      0.1986
    119  NE2       -1.8580   27.4330  -32.8570 N.ar  336  HIS336     -0.2212
    120  N         -1.6540   26.5640  -28.5500 N.am  337  ILE337     -0.1980
    121  CA        -1.6840   25.1260  -28.2480 C.3   337  ILE337      0.1595
    122  C         -1.2540   24.9040  -26.7890 C.2   337  ILE337      0.2287
    123  O         -1.9780   24.2820  -26.0070 O.2   337  ILE337     -0.2864
    124  CB        -0.8040   24.3190  -29.2280 C.3   337  ILE337      0.0276
    125  CG1       -1.2750   24.5660  -30.6720 C.3   337  ILE337      0.0022
    126  CG2       -0.8530   22.8060  -28.8960 C.3   337  ILE337      0.0022
    127  CD1       -0.2870   24.0930  -31.7860 C.3   337  ILE337      0.0001
    128  N          1.4230   23.1500  -24.9350 N.3   339  TYR339     -0.1241
    129  CA         1.5620   21.7740  -24.4330 C.3   339  TYR339      0.1605
    130  C          1.9720   21.7790  -22.9470 C.2   339  TYR339      0.2264
    131  O          1.5620   20.9080  -22.1800 O.2   339  TYR339     -0.2867
    132  CB         2.5950   20.9700  -25.2370 C.3   339  TYR339      0.0534
    133  CG         2.4350   21.0110  -26.7500 C.ar  339  TYR339     -0.0201
    134  CD1        1.6780   20.0640  -27.4310 C.ar  339  TYR339     -0.0009
    135  CD2        3.0550   22.0020  -27.4920 C.ar  339  TYR339     -0.0009
    136  CE1        1.5490   20.1090  -28.8320 C.ar  339  TYR339      0.0417
    137  CE2        2.9380   22.0600  -28.8660 C.ar  339  TYR339      0.0417
    138  CZ         2.1810   21.1200  -29.5360 C.ar  339  TYR339      0.1957
    139  OH         2.0790   21.2210  -30.9090 O.3   339  TYR339     -0.2866
    140  N          3.2910   16.7170  -18.3790 N.3   375  PHE375     -0.1227
    141  CA         2.3950   16.7600  -19.5180 C.3   375  PHE375      0.1736
    142  C          0.9730   17.0060  -19.0080 C.2   375  PHE375      0.2596
    143  O          0.7910   17.4300  -17.8810 O.2   375  PHE375     -0.2718
    144  CB         2.4780   15.4740  -20.3530 C.3   375  PHE375      0.0547
    145  CG         2.3390   15.7170  -21.8270 C.ar  375  PHE375     -0.0202
    146  CD1        3.2990   16.4690  -22.5050 C.ar  375  PHE375     -0.0042
    147  CD2        1.2550   15.2200  -22.5390 C.ar  375  PHE375     -0.0042
    148  CE1        3.1820   16.7200  -23.8760 C.ar  375  PHE375     -0.0003
    149  CE2        1.1380   15.4630  -23.9110 C.ar  375  PHE375     -0.0003
    150  CZ         2.1120   16.2060  -24.5740 C.ar  375  PHE375     -0.0000
    151  N         -0.0310   16.7530  -19.8420 N.am  376  GLY376     -0.1957
    152  CA        -1.4100   17.0190  -19.4610 C.3   376  GLY376      0.1869
    153  C         -2.3990   16.2290  -20.2870 C.2   376  GLY376      0.2309
    154  O         -2.0120   15.4160  -21.1350 O.2   376  GLY376     -0.2863
    155  N         -6.4090   16.8280  -22.2980 N.3   378  GLY378     -0.1225
    156  CA        -7.4040   17.7450  -22.8370 C.3   378  GLY378      0.1811
    157  C         -8.2550   18.5440  -21.8680 C.2   378  GLY378      0.2280
    158  O         -8.2990   19.7680  -21.9590 O.2   378  GLY378     -0.2866
    159  N        -13.2120   21.4430  -20.9170 N.3   400  GLU400     -0.1231
    160  CA       -12.5750   21.7840  -22.1940 C.3   400  GLU400      0.1684
    161  C        -13.0200   23.1700  -22.6380 C.2   400  GLU400      0.2434
    162  O        -14.0170   23.6900  -22.1270 O.2   400  GLU400     -0.2733
    163  CB       -12.8610   20.6970  -23.2560 C.3   400  GLU400      0.0402
    164  CG       -12.1030   19.3900  -22.9070 C.3   400  GLU400      0.1161
    165  CD       -11.5980   18.5920  -24.0800 C.2   400  GLU400      0.3649
    166  OE1      -10.9110   17.5830  -23.8320 O.co2 400  GLU400     -0.2457
    167  OE2      -11.8790   18.9430  -25.2440 O.co2 400  GLU400     -0.2457
    168  N        -12.2830   23.7960  -23.5750 N.am  401  PRO401     -0.2718
    169  CA       -11.0810   23.3090  -24.2370 C.3   401  PRO401      0.1535
    170  C         -9.8490   23.3780  -23.3460 C.2   401  PRO401      0.2598
    171  O         -9.8180   24.1230  -22.3540 O.2   401  PRO401     -0.2715
    172  CB       -10.9220   24.2550  -25.4330 C.3   401  PRO401      0.0310
    173  CG       -11.5500   25.4810  -25.0330 C.3   401  PRO401      0.0237
    174  CD       -12.6910   25.1110  -24.0940 C.3   401  PRO401      0.0939
    175  N         -8.8500   22.5880  -23.7210 N.am  402  TRP402     -0.1974
    176  CA        -7.4880   22.6850  -23.1870 C.3   402  TRP402      0.1640
    177  C         -6.9900   24.1350  -23.1340 C.2   402  TRP402      0.2290
    178  O         -7.4110   24.9620  -23.9430 O.2   402  TRP402     -0.2864
    179  CB        -6.5480   21.8380  -24.0630 C.3   402  TRP402      0.0576
    180  CG        -5.0900   22.0330  -23.7190 C.ar  402  TRP402      0.0006
    181  CD1       -4.1520   22.7130  -24.4630 C.ar  402  TRP402      0.0946
    182  CD2       -4.4130   21.5620  -22.5550 C.ar  402  TRP402      0.0152
    183  NE1       -2.9450   22.6980  -23.8240 N.ar  402  TRP402     -0.2442
    184  CE2       -3.0690   21.9940  -22.6520 C.ar  402  TRP402      0.0810
    185  CE3       -4.7980   20.8010  -21.4440 C.ar  402  TRP402      0.0012
    186  CZ2       -2.1190   21.6930  -21.6830 C.ar  402  TRP402      0.0191
    187  CZ3       -3.8410   20.5120  -20.4720 C.ar  402  TRP402      0.0001
    188  CH2       -2.5280   20.9730  -20.5930 C.ar  402  TRP402      0.0015
@<TRIPOS>BOND
     1    57    56    2
     2    56    55    1
     3    34    33    2
     4    33    32    1
     5    43    44    1
     6    44    45    1
     7    44    47    1
     8    54    55    1
     9    54    45   am
    10    55    58    1
    11    45    46    2
    12    31    32    1
    13    64    65    2
    14    64    63    1
    15    32    35    1
    16    47    48    1
    17    62    63    1
    18    58    59    1
    19    63    66    1
    20    35    36    1
    21    72    70    1
    22    48    50   ar
    23    48    49   ar
    24    50    52   ar
    25    76    75    2
    26    59    61    1
    27    59    60    1
    28    66    67    1
    29   119   118   ar
    30   119   117   ar
    31    68    67    1
    32    68    69    1
    33    36    37   ar
    34    36    38   ar
    35    49    51   ar
    36    37    39   ar
    37   118   116   ar
    38    73    74    1
    39    75    74    1
    40    70    69    2
    41    70    71    1
    42    52    53   ar
    43   117   115   ar
    44   127   125    1
    45    38    40   ar
    46    51    53   ar
    47    74    77    1
    48    39    41   ar
    49   116   115   ar
    50   115   114    1
    51   139   138    1
    52   125   124    1
    53    40    41   ar
    54    77    78    1
    55    41    42    1
    56   114   111    1
    57    96    95    1
    58   138   137   ar
    59   138   136   ar
    60    78    80   ar
    61    78    79   ar
    62    80    82   ar
    63   124   126    1
    64   124   121    1
    65   108   107    2
    66   109   107   am
    67   137   135   ar
    68   136   134   ar
    69    79    81   ar
    70    95    93   ar
    71    95    94   ar
    72   120   112   am
    73   120   121    1
    74   111   112    1
    75   111   110    1
    76   107   106    1
    77   112   113    2
    78    82    83   ar
    79    93    91   ar
    80   121   122    1
    81    94    92   ar
    82    81    83   ar
    83   135   133   ar
    84    83    84    1
    85   134   133   ar
    86   106   105    1
    87    91    90   ar
    88    29    30    1
    89    29    28    1
    90   122   123    2
    91   133   132    1
    92    92    90   ar
    93    97    98    1
    94    98    99    1
    95    90    89    1
    96   105   102    1
    97    85    86    1
    98    99   101   am
    99    99   100    2
   100   101   102    1
   101    28    27    1
   102   172   173    1
   103   172   169    1
   104    86    89    1
   105    86    87    1
   106   167   165   ar
   107   132   129    1
   108    11     9    1
   109   102   103    1
   110   173   174    1
   111   128   129    1
   112    27    26    1
   113   150   149   ar
   114   150   148   ar
   115   181   183   ar
   116   181   180   ar
   117   129   130    1
   118   169   168    1
   119   169   170    1
   120   103   104    2
   121   174   168    1
   122   165   166   ar
   123   165   164    1
   124    87    88    2
   125   179   180    1
   126   179   176    1
   127     9     8    2
   128     9    10    1
   129   178   177    2
   130   149   147   ar
   131    21    18    1
   132   148   146   ar
   133   183   184   ar
   134   175   170   am
   135   175   176    1
   136   180   182   ar
   137   168   161   am
   138     8     7    1
   139    26    23    1
   140   170   171    2
   141   163   164    1
   142   163   160    1
   143   176   177    1
   144    18    17    1
   145    18    19    1
   146   130   131    2
   147    17    14   am
   148   156   155    1
   149   156   157    1
   150    16    13    1
   151   184   182   ar
   152   184   186   ar
   153   161   160    1
   154   161   162    2
   155   182   185   ar
   156   147   145   ar
   157    23    22    1
   158    23    24    1
   159   146   145   ar
   160    14    13    1
   161    14    15    2
   162    13    12    1
   163     7     6    1
   164   160   159    1
   165   158   157    2
   166    25    24    2
   167    20    19    2
   168   145   144    1
   169   186   188   ar
   170   185   187   ar
   171   154   153    2
   172     6     5    1
   173   188   187   ar
   174   144   141    1
   175   153   152    1
   176   151   152    1
   177   151   142   am
   178     5     2    1
   179   141   142    1
   180   141   140    1
   181   142   143    2
   182     2     3    1
   183     2     1    1
   184     3     4    2
