@<TRIPOS>MOLECULE
tmp/3hljA00.pdb
 129 127 0 0 0
SMALL
GASTEIGER

@<TRIPOS>ATOM
      1  N        -13.6590    8.2030   12.7160 N.3    88  ILE88      -0.1231
      2  CA       -12.7610    8.5660   11.6190 C.3    88  ILE88       0.1692
      3  C        -12.5270    7.3960   10.6420 C.2    88  ILE88       0.2591
      4  O        -12.5240    7.5830    9.4170 O.2    88  ILE88      -0.2718
      5  CB       -11.4160    9.1860   12.1230 C.3    88  ILE88       0.0266
      6  CG1      -10.5080    9.5410   10.9340 C.3    88  ILE88       0.0019
      7  CG2      -10.6980    8.2570   13.1250 C.3    88  ILE88       0.0020
      8  CD1       -9.2660   10.3510   11.3100 C.3    88  ILE88       0.0001
      9  N        -12.3580    6.1910   11.1720 N.am   89  GLN89      -0.1979
     10  CA       -12.1320    5.0420   10.3070 C.3    89  GLN89       0.1601
     11  C        -12.3690    3.7610   11.0680 C.2    89  GLN89       0.2287
     12  O        -12.4740    3.7840   12.2930 O.2    89  GLN89      -0.2864
     13  CB       -10.7030    5.0700    9.7360 C.3    89  GLN89       0.0394
     14  CG        -9.5800    5.0110   10.7720 C.3    89  GLN89       0.0908
     15  CD        -8.8870    3.6710   10.7720 C.2    89  GLN89       0.2608
     16  OE1       -9.4330    2.6860   11.2280 O.2    89  GLN89      -0.2717
     17  NE2       -7.6930    3.6230   10.1990 N.am   89  GLN89      -0.0878
     18  N        -10.8530   -0.5170   10.8160 N.3    91  HIS91      -0.1241
     19  CA        -9.9830   -1.4970   10.2030 C.3    91  HIS91       0.1621
     20  C        -10.0870   -2.7690   11.0290 C.2    91  HIS91       0.2264
     21  O        -10.7560   -2.7850   12.0780 O.2    91  HIS91      -0.2867
     22  CB        -8.5270   -1.0130   10.1900 C.3    91  HIS91       0.0745
     23  CG        -8.0020   -0.7260   11.5620 C.ar   91  HIS91       0.0817
     24  ND1       -8.1830    0.4940   12.1790 N.ar   91  HIS91      -0.2268
     25  CD2       -7.3980   -1.5260   12.4730 C.ar   91  HIS91       0.1154
     26  CE1       -7.6850    0.4400   13.4040 C.ar   91  HIS91       0.1986
     27  NE2       -7.1950   -0.7710   13.6010 N.ar   91  HIS91      -0.2212
     28  N         -7.7640   -6.4310   12.3900 N.3    93  HIS93      -0.1241
     29  CA        -6.5830   -7.2580   12.5320 C.3    93  HIS93       0.1621
     30  C         -7.0250   -8.7120   12.4140 C.2    93  HIS93       0.2264
     31  O         -8.0800   -9.0870   12.9570 O.2    93  HIS93      -0.2867
     32  CB        -5.9380   -7.0110   13.8940 C.3    93  HIS93       0.0745
     33  CG        -5.6340   -5.5700   14.1520 C.ar   93  HIS93       0.0817
     34  ND1       -4.3830   -5.0230   13.9560 N.ar   93  HIS93      -0.2268
     35  CD2       -6.4300   -4.5580   14.5670 C.ar   93  HIS93       0.1154
     36  CE1       -4.4250   -3.7340   14.2560 C.ar   93  HIS93       0.1986
     37  NE2       -5.6600   -3.4250   14.6110 N.ar   93  HIS93      -0.2212
     38  N        -11.7460   -2.6830   14.7620 N.3   116  HIS116     -0.1241
     39  CA       -11.5520   -1.4730   15.5390 C.3   116  HIS116      0.1621
     40  C        -12.2160   -0.2960   14.8530 C.2   116  HIS116      0.2264
     41  O        -11.8220    0.0790   13.7370 O.2   116  HIS116     -0.2867
     42  CB       -10.0630   -1.1890   15.6770 C.3   116  HIS116      0.0745
     43  CG        -9.3550   -2.1620   16.5710 C.ar  116  HIS116      0.0817
     44  ND1       -7.9930   -2.3870   16.5160 N.ar  116  HIS116     -0.2268
     45  CD2       -9.8330   -2.9950   17.5230 C.ar  116  HIS116      0.1154
     46  CE1       -7.6600   -3.3030   17.4100 C.ar  116  HIS116      0.1986
     47  NE2       -8.7600   -3.6880   18.0410 N.ar  116  HIS116     -0.2212
     48  N        -12.5380    3.5060   15.1550 N.3   118  VAL118     -0.1245
     49  CA       -11.6600    4.4880   15.7880 C.3   118  VAL118      0.1561
     50  C        -12.3810    5.8260   15.8320 C.2   118  VAL118      0.2260
     51  O        -12.8660    6.2950   14.8040 O.2   118  VAL118     -0.2867
     52  CB       -10.3340    4.6410   15.0180 C.3   118  VAL118      0.0252
     53  CG1       -9.4300    5.6830   15.6950 C.3   118  VAL118      0.0019
     54  CG2       -9.6020    3.2850   14.8490 C.3   118  VAL118      0.0019
     55  N         -8.0320   14.5310   14.6940 N.3   127  PHE127     -0.1241
     56  CA        -7.3650   13.3000   15.0970 C.3   127  PHE127      0.1605
     57  C         -5.9260   13.5300   15.5530 C.2   127  PHE127      0.2264
     58  O         -5.4970   12.9610   16.5630 O.2   127  PHE127     -0.2867
     59  CB        -7.4060   12.2810   13.9500 C.3   127  PHE127      0.0534
     60  CG        -6.7840   10.9550   14.2960 C.ar  127  PHE127     -0.0203
     61  CD1       -7.5280    9.9640   14.9440 C.ar  127  PHE127     -0.0042
     62  CD2       -5.4530   10.6900   13.9800 C.ar  127  PHE127     -0.0042
     63  CE1       -6.9530    8.7520   15.2640 C.ar  127  PHE127     -0.0003
     64  CE2       -4.8740    9.4710   14.2980 C.ar  127  PHE127     -0.0003
     65  CZ        -5.6300    8.5030   14.9560 C.ar  127  PHE127     -0.0000
     66  N        -11.7070    3.7320   21.0780 N.3   139  VAL139     -0.1245
     67  CA       -11.7130    2.6900   20.0470 C.3   139  VAL139      0.1561
     68  C        -12.6660    1.6020   20.5140 C.2   139  VAL139      0.2260
     69  O        -12.5320    1.0690   21.6230 O.2   139  VAL139     -0.2867
     70  CB       -10.3000    2.1420   19.6570 C.3   139  VAL139      0.0252
     71  CG1      -10.4420    1.1170   18.5240 C.3   139  VAL139      0.0019
     72  CG2       -9.3760    3.3000   19.2290 C.3   139  VAL139      0.0019
     73  N         -2.7660    3.1020   21.1930 N.3   194  LEU194     -0.1231
     74  CA        -2.7850    2.5740   19.8220 C.3   194  LEU194      0.1693
     75  C         -2.0430    1.2430   19.8490 C.2   194  LEU194      0.2593
     76  O         -1.0420    1.0970   20.5750 O.2   194  LEU194     -0.2718
     77  CB        -2.0840    3.5340   18.8540 C.3   194  LEU194      0.0284
     78  CG        -2.6340    4.9640   18.7740 C.3   194  LEU194      0.0019
     79  CD1       -1.7830    5.8220   17.8380 C.3   194  LEU194      0.0001
     80  CD2       -4.1170    4.9730   18.3470 C.3   194  LEU194      0.0001
     81  N         -2.4920    0.2760   19.0470 N.am  195  THR195     -0.1939
     82  CA        -1.8330   -1.0280   19.0180 C.3   195  THR195      0.2028
     83  C         -0.8050   -1.1600   17.8770 C.2   195  THR195      0.2643
     84  O         -0.2300   -2.2250   17.6800 O.2   195  THR195     -0.2714
     85  CB        -2.8430   -2.1840   18.9250 C.3   195  THR195      0.1808
     86  OG1       -3.4750   -2.1440   17.6450 O.3   195  THR195     -0.2208
     87  CG2       -3.8930   -2.1140   20.0220 C.3   195  THR195      0.0379
     88  N         -0.6060   -0.0860   17.1220 N.am  196  THR196     -0.1937
     89  CA         0.4800   -0.0060   16.1510 C.3   196  THR196      0.2013
     90  C          1.2680    1.2490   16.4400 C.2   196  THR196      0.2484
     91  O          0.7500    2.1860   17.0330 O.2   196  THR196     -0.2729
     92  CB         0.0000    0.0820   14.6780 C.3   196  THR196      0.1807
     93  OG1       -0.6260    1.3550   14.4350 O.3   196  THR196     -0.2208
     94  CG2       -0.9360   -1.0460   14.3320 C.3   196  THR196      0.0379
     95  N          2.5330    1.2800   15.9870 N.am  197  PRO197     -0.2715
     96  CA         3.2620    2.5420   16.0610 C.3   197  PRO197      0.1521
     97  C          2.3810    3.6680   15.5140 C.2   197  PRO197      0.2440
     98  O          1.7040    3.4720   14.4940 O.2   197  PRO197     -0.2731
     99  CB         4.4680    2.2780   15.1460 C.3   197  PRO197      0.0310
    100  CG         4.7340    0.8210   15.3500 C.3   197  PRO197      0.0237
    101  CD         3.3400    0.2080   15.3750 C.3   197  PRO197      0.0939
    102  N          2.4140    4.8550   16.1400 N.am  198  PRO198     -0.2727
    103  CA         3.2990    5.2820   17.2410 C.3   198  PRO198      0.1402
    104  C          2.9540    4.8320   18.6880 C.2   198  PRO198      0.2269
    105  O          3.6110    5.2630   19.6380 O.2   198  PRO198     -0.2865
    106  CB         3.2740    6.8070   17.1140 C.3   198  PRO198      0.0296
    107  CG         1.8960    7.1120   16.5770 C.3   198  PRO198      0.0237
    108  CD         1.5210    5.9450   15.6830 C.3   198  PRO198      0.0939
    109  N         -5.9170    6.2100   24.2660 N.3   203  VAL203     -0.1245
    110  CA        -7.1420    5.4750   23.9290 C.3   203  VAL203      0.1561
    111  C         -7.9140    5.0170   25.1550 C.2   203  VAL203      0.2260
    112  O         -7.3490    4.3600   26.0320 O.2   203  VAL203     -0.2867
    113  CB        -6.8620    4.1900   23.0930 C.3   203  VAL203      0.0252
    114  CG1       -8.1840    3.5030   22.7530 C.3   203  VAL203      0.0019
    115  CG2       -6.0880    4.5160   21.8030 C.3   203  VAL203      0.0019
    116  N        -10.2590    2.2410   25.6590 N.3   205  TRP205     -0.1241
    117  CA       -10.6940    1.0200   24.9770 C.3   205  TRP205      0.1605
    118  C        -12.0750    0.6010   25.4540 C.2   205  TRP205      0.2264
    119  O        -12.3180    0.5420   26.6610 O.2   205  TRP205     -0.2867
    120  CB        -9.6860   -0.1260   25.1600 C.3   205  TRP205      0.0550
    121  CG        -8.5850   -0.0010   24.1580 C.ar  205  TRP205      0.0003
    122  CD1       -7.3540    0.6010   24.3330 C.ar  205  TRP205      0.0946
    123  CD2       -8.6380   -0.4060   22.7850 C.ar  205  TRP205      0.0152
    124  NE1       -6.6390    0.5670   23.1590 N.ar  205  TRP205     -0.2442
    125  CE2       -7.3960   -0.0450   22.1920 C.ar  205  TRP205      0.0810
    126  CE3       -9.6170   -1.0430   21.9920 C.ar  205  TRP205      0.0012
    127  CZ2       -7.1060   -0.2870   20.8470 C.ar  205  TRP205      0.0191
    128  CZ3       -9.3230   -1.3080   20.6630 C.ar  205  TRP205      0.0001
    129  CH2       -8.0650   -0.9270   20.0970 C.ar  205  TRP205      0.0015
@<TRIPOS>BOND
     1     4     3    2
     2    13    10    1
     3    13    14    1
     4    22    19    1
     5    22    23    1
     6    17    15   am
     7    19    18    1
     8    19    20    1
     9    10    11    1
    10    10     9    1
    11     3     9   am
    12     3     2    1
    13    14    15    1
    14    15    16    2
    15     6     8    1
    16     6     5    1
    17    20    21    2
    18    11    12    2
    19    23    24   ar
    20    23    25   ar
    21     2     5    1
    22     2     1    1
    23     5     7    1
    24    24    26   ar
    25    28    29    1
    26    30    29    1
    27    30    31    2
    28    25    27   ar
    29    29    32    1
    30    26    27   ar
    31    41    40    2
    32    32    33    1
    33    59    60    1
    34    59    56    1
    35    34    33   ar
    36    34    36   ar
    37    62    60   ar
    38    62    64   ar
    39    33    35   ar
    40    36    37   ar
    41    60    61   ar
    42    64    65   ar
    43    94    92    1
    44    93    92    1
    45    98    97    2
    46    35    37   ar
    47    92    89    1
    48    55    56    1
    49    38    39    1
    50    51    50    2
    51    54    52    1
    52    40    39    1
    53    61    63   ar
    54    65    63   ar
    55    52    53    1
    56    52    49    1
    57    56    57    1
    58    99   100    1
    59    99    96    1
    60    48    49    1
    61   100   101    1
    62   101    95    1
    63    97    96    1
    64    97   102   am
    65    39    42    1
    66    57    58    2
    67    42    43    1
    68   108   102    1
    69   108   107    1
    70    49    50    1
    71    95    96    1
    72    95    90   am
    73   102   103    1
    74    89    90    1
    75    89    88    1
    76    90    91    2
    77    44    43   ar
    78    44    46   ar
    79    43    45   ar
    80   107   106    1
    81   106   103    1
    82    88    83   am
    83   103   104    1
    84    46    47   ar
    85    45    47   ar
    86    86    85    1
    87    84    83    2
    88    79    78    1
    89    83    82    1
    90    80    78    1
    91    71    70    1
    92   104   105    2
    93    78    77    1
    94    77    74    1
    95    85    82    1
    96    85    87    1
    97    82    81    1
    98    81    75   am
    99    72    70    1
   100    70    67    1
   101    74    75    1
   102    74    73    1
   103    75    76    2
   104    67    68    1
   105    67    66    1
   106   129   128   ar
   107   129   127   ar
   108    68    69    2
   109   128   126   ar
   110   127   125   ar
   111   115   113    1
   112   126   123   ar
   113   125   123   ar
   114   125   124   ar
   115   114   113    1
   116   123   121   ar
   117   113   110    1
   118   124   122   ar
   119   110   109    1
   120   110   111    1
   121   121   122   ar
   122   121   120    1
   123   117   120    1
   124   117   118    1
   125   117   116    1
   126   111   112    2
   127   118   119    2
