@<TRIPOS>MOLECULE
tmp/3hllA00.pdb
 181 170 0 0 0
SMALL
GASTEIGER

@<TRIPOS>ATOM
      1  N         40.4230   35.6190   28.1160 N.3    26  VAL26      -0.1231
      2  CA        39.0350   36.0010   28.3670 C.3    26  VAL26       0.1692
      3  C         38.0720   34.8460   28.1100 C.2    26  VAL26       0.2592
      4  O         36.8680   35.0680   27.9830 O.2    26  VAL26      -0.2718
      5  CB        38.6060   37.2560   27.5430 C.3    26  VAL26       0.0266
      6  CG1       39.4510   38.4710   27.9360 C.3    26  VAL26       0.0020
      7  CG2       38.7040   36.9970   26.0680 C.3    26  VAL26       0.0020
      8  N         38.6030   33.6220   28.0310 N.am   27  GLY27      -0.1957
      9  CA        37.7760   32.4070   27.9850 C.3    27  GLY27       0.1869
     10  C         37.8810   31.5690   26.7220 C.2    27  GLY27       0.2309
     11  O         38.1790   32.0870   25.6440 O.2    27  GLY27      -0.2863
     12  N         40.5210   32.6870   23.5840 N.3    34  VAL34      -0.1245
     13  CA        40.5290   34.1190   23.3330 C.3    34  VAL34       0.1561
     14  C         41.2820   34.8750   24.4300 C.2    34  VAL34       0.2260
     15  O         41.1030   34.6140   25.6310 O.2    34  VAL34      -0.2867
     16  CB        39.0890   34.6740   23.2180 C.3    34  VAL34       0.0252
     17  CG1       39.1180   36.1510   22.8840 C.3    34  VAL34       0.0019
     18  CG2       38.2820   33.8980   22.1560 C.3    34  VAL34       0.0019
     19  N         42.1770   39.0100   25.5520 N.3    36  ALA36      -0.1245
     20  CA        42.1020   40.4510   25.3330 C.3    36  ALA36       0.1562
     21  C         43.5290   40.9200   25.1450 C.2    36  ALA36       0.2260
     22  O         44.4390   40.3570   25.7440 O.2    36  ALA36      -0.2867
     23  CB        41.4720   41.1570   26.5250 C.3    36  ALA36       0.0290
     24  N         40.4060   41.6090   20.7220 N.3    47  ALA47      -0.1231
     25  CA        40.3250   40.2130   21.0940 C.3    47  ALA47       0.1694
     26  C         41.1270   39.3930   20.0720 C.2    47  ALA47       0.2592
     27  O         40.9590   39.5520   18.8550 O.2    47  ALA47      -0.2718
     28  CB        38.8760   39.7420   21.1330 C.3    47  ALA47       0.0304
     29  N         41.9840   38.5200   20.5720 N.am   48  VAL48      -0.1966
     30  CA        42.7630   37.6360   19.7100 C.3    48  VAL48       0.1727
     31  C         42.3110   36.2050   19.9830 C.2    48  VAL48       0.2616
     32  O         42.3480   35.7550   21.1320 O.2    48  VAL48      -0.2715
     33  CB        44.2540   37.7410   19.9840 C.3    48  VAL48       0.0290
     34  CG1       45.0300   36.9770   18.9240 C.3    48  VAL48       0.0023
     35  CG2       44.7050   39.2250   20.0630 C.3    48  VAL48       0.0023
     36  N         41.8740   35.5190   18.9280 N.am   49  LYS49      -0.1977
     37  CA        41.3990   34.1420   19.0250 C.3    49  LYS49       0.1596
     38  C         42.4090   33.2040   18.3690 C.2    49  LYS49       0.2287
     39  O         42.7370   33.3720   17.1950 O.2    49  LYS49      -0.2864
     40  CB        40.0620   34.0070   18.3260 C.3    49  LYS49       0.0298
     41  CG        39.3950   32.6610   18.5090 C.3    49  LYS49       0.0038
     42  CD        38.1730   32.5600   17.6240 C.3    49  LYS49       0.0206
     43  CE        37.3940   31.3080   17.8670 C.3    49  LYS49       0.1093
     44  NZ        38.0670   30.1120   17.3150 N.3    49  LYS49      -0.1314
     45  N         35.3980   29.6670    8.6940 N.3    67  GLU67      -0.1245
     46  CA        35.3830   30.7830    9.6370 C.3    67  GLU67       0.1567
     47  C         36.2400   31.9440    9.1180 C.2    67  GLU67       0.2260
     48  O         35.8510   33.0940    9.2450 O.2    67  GLU67      -0.2867
     49  CB        35.8560   30.3430   11.0270 C.3    67  GLU67       0.0388
     50  CG        35.9600   31.5230   12.0060 C.3    67  GLU67       0.1160
     51  CD        36.1050   31.1150   13.4440 C.2    67  GLU67       0.3649
     52  OE1       35.9050   31.9930   14.3320 O.co2  67  GLU67      -0.2457
     53  OE2       36.4450   29.9370   13.6970 O.co2  67  GLU67      -0.2457
     54  N         34.6160   35.5330    8.2350 N.3    71  LEU71      -0.1245
     55  CA        35.1540   36.7230    8.9300 C.3    71  LEU71       0.1561
     56  C         35.7720   37.7660    8.0040 C.2    71  LEU71       0.2260
     57  O         35.6410   38.9760    8.2510 O.2    71  LEU71      -0.2867
     58  CB        36.1820   36.3120    9.9880 C.3    71  LEU71       0.0270
     59  CG        35.6480   35.7690   11.3220 C.3    71  LEU71       0.0019
     60  CD1       36.8240   35.1530   12.1080 C.3    71  LEU71       0.0001
     61  CD2       34.9690   36.8480   12.1740 C.3    71  LEU71       0.0001
     62  N         30.6880   40.7300   13.8940 N.3    80  ILE80      -0.1231
     63  CA        32.1060   40.6420   14.1810 C.3    80  ILE80       0.1692
     64  C         32.8670   40.4830   12.8690 C.2    80  ILE80       0.2593
     65  O         32.5110   39.6640   12.0300 O.2    80  ILE80      -0.2718
     66  CB        32.4390   39.4880   15.1410 C.3    80  ILE80       0.0266
     67  CG1       31.8810   39.7890   16.5340 C.3    80  ILE80       0.0019
     68  CG2       33.9610   39.3070   15.3010 C.3    80  ILE80       0.0020
     69  CD1       32.7170   40.7220   17.3660 C.3    80  ILE80       0.0001
     70  N         33.8920   41.3120   12.7100 N.am   81  GLY81      -0.1942
     71  CA        34.7370   41.3140   11.5260 C.3    81  GLY81       0.2014
     72  C         36.2010   41.2130   11.9000 C.2    81  GLY81       0.2638
     73  O         36.5420   41.1380   13.0870 O.2    81  GLY81      -0.2714
     74  N         37.0550   41.2200   10.8810 N.am   82  LEU82      -0.1977
     75  CA        38.4980   41.0070   11.0620 C.3    82  LEU82       0.1596
     76  C         39.3210   42.2940   10.9890 C.2    82  LEU82       0.2287
     77  O         39.3120   42.9700    9.9650 O.2    82  LEU82      -0.2864
     78  CB        39.0410   40.0480    9.9990 C.3    82  LEU82       0.0297
     79  CG        39.2030   38.5670   10.2710 C.3    82  LEU82       0.0022
     80  CD1       40.0090   37.9280    9.1290 C.3    82  LEU82       0.0001
     81  CD2       39.8550   38.2880   11.6310 C.3    82  LEU82       0.0001
     82  N         43.1400   35.0620   14.9000 N.3   100  LEU100     -0.1231
     83  CA        42.1460   35.9700   14.3600 C.3   100  LEU100      0.1693
     84  C         41.9840   37.1460   15.3180 C.2   100  LEU100      0.2592
     85  O         41.9560   36.9580   16.5230 O.2   100  LEU100     -0.2718
     86  CB        40.8130   35.2520   14.2570 C.3   100  LEU100      0.0284
     87  CG        40.8180   33.9610   13.4440 C.3   100  LEU100      0.0019
     88  CD1       39.5060   33.2300   13.6680 C.3   100  LEU100      0.0001
     89  CD2       41.0400   34.2660   11.9610 C.3   100  LEU100      0.0001
     90  N         41.8840   38.3560   14.7890 N.am  101  VAL101     -0.1966
     91  CA        41.8340   39.5300   15.6500 C.3   101  VAL101      0.1727
     92  C         40.6500   40.4510   15.3070 C.2   101  VAL101      0.2617
     93  O         40.3990   40.7670   14.1410 O.2   101  VAL101     -0.2715
     94  CB        43.1440   40.3270   15.6030 C.3   101  VAL101      0.0290
     95  CG1       44.4010   39.4490   15.8160 C.3   101  VAL101      0.0023
     96  CG2       43.2430   41.0080   14.3180 C.3   101  VAL101      0.0023
     97  N         39.9330   40.8690   16.3460 N.am  102  THR102     -0.1937
     98  CA        38.7820   41.7600   16.2330 C.3   102  THR102      0.2028
     99  C         38.7710   42.8000   17.3660 C.2   102  THR102      0.2642
    100  O         39.5310   42.6860   18.3380 O.2   102  THR102     -0.2714
    101  CB        37.4700   40.9430   16.2270 C.3   102  THR102      0.1808
    102  OG1       36.3900   41.7520   15.7380 O.3   102  THR102     -0.2208
    103  CG2       37.1510   40.3980   17.6120 C.3   102  THR102      0.0379
    104  N         37.9130   43.8170   17.2250 N.am  103  HIS103     -0.1959
    105  CA        37.7200   44.8260   18.2670 C.3   103  HIS103      0.1787
    106  C         37.1590   44.1360   19.5060 C.2   103  HIS103      0.2620
    107  O         36.1780   43.4230   19.4010 O.2   103  HIS103     -0.2715
    108  CB        36.6660   45.8640   17.8650 C.3   103  HIS103      0.0785
    109  CG        36.9970   46.6750   16.6530 C.ar  103  HIS103      0.0821
    110  ND1       36.5650   46.3350   15.3890 N.ar  103  HIS103     -0.2267
    111  CD2       37.6320   47.8630   16.5260 C.ar  103  HIS103      0.1154
    112  CE1       36.9490   47.2640   14.5310 C.ar  103  HIS103      0.1986
    113  NE2       37.6030   48.1990   15.1960 N.ar  103  HIS103     -0.2212
    114  N         37.7360   44.3840   20.6740 N.am  104  LEU104     -0.1963
    115  CA        37.1890   43.8220   21.9160 C.3   104  LEU104      0.1728
    116  C         35.8780   44.5010   22.2950 C.2   104  LEU104      0.2616
    117  O         35.7720   45.7170   22.2320 O.2   104  LEU104     -0.2715
    118  CB        38.1750   43.9810   23.0630 C.3   104  LEU104      0.0311
    119  CG        37.8110   43.3370   24.4050 C.3   104  LEU104      0.0022
    120  CD1       37.7800   41.8170   24.3200 C.3   104  LEU104      0.0001
    121  CD2       38.8240   43.7940   25.4400 C.3   104  LEU104      0.0001
    122  N         34.8940   43.6880   22.6750 N.am  105  MET105     -0.1963
    123  CA        33.5960   44.1630   23.1280 C.3   105  MET105      0.1736
    124  C         33.5550   44.0490   24.6420 C.2   105  MET105      0.2617
    125  O         33.3150   45.0410   25.3190 O.2   105  MET105     -0.2715
    126  CB        32.4790   43.3710   22.4490 C.3   105  MET105      0.0427
    127  CG        32.5260   43.4840   20.9120 C.3   105  MET105      0.0599
    128  SD        32.2010   45.1570   20.3090 S.3   105  MET105     -0.1393
    129  CE        30.4230   45.1590   20.4010 C.3   105  MET105      0.0692
    130  N         33.8330   42.8590   25.1660 N.am  106  GLY106     -0.1940
    131  CA        34.1030   42.6830   26.5860 C.3   106  GLY106      0.2014
    132  C         32.9450   42.2120   27.4530 C.2   106  GLY106      0.2639
    133  O         33.1080   42.0150   28.6480 O.2   106  GLY106     -0.2714
    134  N         31.7750   42.0420   26.8580 N.am  107  ALA107     -0.1963
    135  CA        30.6420   41.4410   27.5370 C.3   107  ALA107      0.1728
    136  C         29.7600   40.7280   26.5220 C.2   107  ALA107      0.2616
    137  O         29.9780   40.8460   25.3180 O.2   107  ALA107     -0.2715
    138  CB        29.8480   42.4950   28.2590 C.3   107  ALA107      0.0334
    139  N         28.7760   39.9870   27.0230 N.am  108  ASP108     -0.1971
    140  CA        27.7450   39.4010   26.1850 C.3   108  ASP108      0.1709
    141  C         26.3690   39.6650   26.7770 C.2   108  ASP108      0.2293
    142  O         26.2590   40.2360   27.8730 O.2   108  ASP108     -0.2864
    143  CB        27.9950   37.9010   25.9400 C.3   108  ASP108      0.1436
    144  CG        27.8880   37.0590   27.1990 C.2   108  ASP108      0.3671
    145  OD1       27.0800   37.3640   28.0950 O.co2 108  ASP108     -0.2456
    146  OD2       28.6190   36.0620   27.2850 O.co2 108  ASP108     -0.2456
    147  N         25.6430   38.5800   30.2560 N.3   111  ASN111     -0.1240
    148  CA        26.2720   39.5140   31.1940 C.3   111  ASN111      0.1653
    149  C         25.4560   40.8050   31.4060 C.2   111  ASN111      0.2266
    150  O         25.7850   41.6060   32.2900 O.2   111  ASN111     -0.2867
    151  CB        27.6960   39.8890   30.7250 C.3   111  ASN111      0.1155
    152  CG        28.6030   38.6700   30.4660 C.2   111  ASN111      0.2627
    153  OD1       29.6990   38.8110   29.9110 O.2   111  ASN111     -0.2716
    154  ND2       28.1520   37.4810   30.8640 N.am  111  ASN111     -0.0877
    155  N         24.8490   34.3920   24.6060 N.3   150  SER150     -0.1217
    156  CA        26.2990   34.2840   24.7090 C.3   150  SER150      0.1889
    157  C         27.0490   34.4920   23.3850 C.2   150  SER150      0.2288
    158  O         28.2660   34.6290   23.4150 O.2   150  SER150     -0.2866
    159  CB        26.6960   32.9410   25.3180 C.3   150  SER150      0.2089
    160  OG        26.4330   31.9010   24.4040 O.3   150  SER150     -0.2183
    161  N         27.7980   39.8410   21.5040 N.3   153  ALA153     -0.1245
    162  CA        28.8010   40.6270   22.2300 C.3   153  ALA153      0.1562
    163  C         28.3140   42.0680   22.3650 C.2   153  ALA153      0.2260
    164  O         27.7990   42.6340   21.4110 O.2   153  ALA153     -0.2867
    165  CB        30.1440   40.5810   21.4830 C.3   153  ALA153      0.0290
    166  N         28.4410   37.2750   17.1250 N.3   163  LEU163     -0.1231
    167  CA        29.5940   36.3760   17.0510 C.3   163  LEU163      0.1693
    168  C         29.1530   34.9720   16.5860 C.2   163  LEU163      0.2592
    169  O         27.9950   34.5930   16.7390 O.2   163  LEU163     -0.2718
    170  CB        30.2550   36.1910   18.4220 C.3   163  LEU163      0.0284
    171  CG        30.5000   37.2020   19.5360 C.3   163  LEU163      0.0019
    172  CD1       31.5380   36.6530   20.4980 C.3   163  LEU163      0.0001
    173  CD2       30.9300   38.5310   19.0410 C.3   163  LEU163      0.0001
    174  N         30.0960   34.1950   16.0560 N.am  164  ASP164     -0.1974
    175  CA        29.9250   32.7390   15.8530 C.3   164  ASP164      0.1709
    176  C         28.8690   32.3850   14.8010 C.2   164  ASP164      0.2293
    177  O         28.2910   31.2950   14.8400 O.2   164  ASP164     -0.2864
    178  CB        29.5750   32.0260   17.1780 C.3   164  ASP164      0.1436
    179  CG        30.6920   32.0850   18.2280 C.2   164  ASP164      0.3671
    180  OD1       31.8780   32.2980   17.8950 O.co2 164  ASP164     -0.2456
    181  OD2       30.3720   31.8870   19.4260 O.co2 164  ASP164     -0.2456
@<TRIPOS>BOND
     1    56    57    2
     2    56    55    1
     3    54    55    1
     4    45    46    1
     5    55    58    1
     6    47    48    2
     7    47    46    1
     8    80    79    1
     9    46    49    1
    10    77    76    2
    11    58    59    1
    12    78    79    1
    13    78    75    1
    14    79    81    1
    15    74    75    1
    16    74    72   am
    17    76    75    1
    18    49    50    1
    19    59    60    1
    20    59    61    1
    21    71    72    1
    22    71    70    1
    23    72    73    2
    24    89    87    1
    25    50    51    1
    26    65    64    2
    27    70    64   am
    28    64    63    1
    29    51    53   ar
    30    51    52   ar
    31    87    88    1
    32    87    86    1
    33    62    63    1
    34    93    92    2
    35    63    66    1
    36    86    83    1
    37    96    94    1
    38    83    82    1
    39    83    84    1
    40   112   113   ar
    41   112   110   ar
    42    90    84   am
    43    90    91    1
    44   176   177    2
    45   176   175    1
    46    66    68    1
    47    66    67    1
    48   113   111   ar
    49    92    91    1
    50    92    97   am
    51    84    85    2
    52   110   109   ar
    53    94    91    1
    54    94    95    1
    55   102   101    1
    56   175   174    1
    57   175   178    1
    58   174   168   am
    59   101    98    1
    60   101   103    1
    61    98    97    1
    62    98    99    1
    63   111   109   ar
    64    67    69    1
    65   168   169    2
    66   168   167    1
    67   109   108    1
    68   167   166    1
    69   167   170    1
    70   178   179    1
    71    39    38    2
    72   104    99   am
    73   104   105    1
    74    44    43    1
    75    99   100    2
    76    42    43    1
    77    42    41    1
    78   108   105    1
    79   180   179   ar
    80   179   181   ar
    81   105   106    1
    82    40    41    1
    83    40    37    1
    84    38    37    1
    85   170   171    1
    86    27    26    2
    87    34    33    1
    88    36    37    1
    89    36    31   am
    90   173   171    1
    91   107   106    2
    92   106   114   am
    93   171   172    1
    94    30    31    1
    95    30    33    1
    96    30    29    1
    97    31    32    2
    98    33    35    1
    99    26    29   am
   100    26    25    1
   101   128   129    1
   102   128   127    1
   103   114   115    1
   104    24    25    1
   105   127   126    1
   106    25    28    1
   107   164   163    2
   108   165   162    1
   109   161   162    1
   110   115   116    1
   111   115   118    1
   112    18    16    1
   113   162   163    1
   114   117   116    2
   115   116   122   am
   116   126   123    1
   117   122   123    1
   118    17    16    1
   119   118   119    1
   120   123   124    1
   121    16    13    1
   122    13    12    1
   123    13    14    1
   124   157   158    2
   125   157   156    1
   126   120   119    1
   127   160   159    1
   128   119   121    1
   129    14    15    2
   130   155   156    1
   131   124   130   am
   132   124   125    2
   133   156   159    1
   134    21    20    1
   135    21    22    2
   136   130   131    1
   137   137   136    2
   138    20    19    1
   139    20    23    1
   140    11    10    2
   141   143   140    1
   142   143   144    1
   143     7     5    1
   144   140   141    1
   145   140   139    1
   146   136   139   am
   147   136   135    1
   148   131   132    1
   149    10     9    1
   150   141   142    2
   151   134   132   am
   152   134   135    1
   153   144   146   ar
   154   144   145   ar
   155   132   133    2
   156   135   138    1
   157     5     6    1
   158     5     2    1
   159     4     3    2
   160     9     8    1
   161     8     3   am
   162     3     2    1
   163     1     2    1
   164   153   152    2
   165   147   148    1
   166   152   151    1
   167   152   154   am
   168   151   148    1
   169   148   149    1
   170   149   150    2
