@<TRIPOS>MOLECULE
tmp/3hlpB00.pdb
 119 110 0 0 0
SMALL
GASTEIGER

@<TRIPOS>ATOM
      1  N        -48.0840   11.7390  -69.1820 N.3    67  HIS67      -0.1241
      2  CA       -49.3150   12.3210  -69.7350 C.3    67  HIS67       0.1621
      3  C        -49.5610   11.6250  -71.0600 C.2    67  HIS67       0.2264
      4  O        -48.8030   11.8220  -72.0090 O.2    67  HIS67      -0.2867
      5  CB       -49.1370   13.8150  -69.9630 C.3    67  HIS67       0.0745
      6  CG       -49.0850   14.6090  -68.6960 C.ar   67  HIS67       0.0817
      7  ND1      -48.2660   15.7050  -68.5420 N.ar   67  HIS67      -0.2268
      8  CD2      -49.7370   14.4540  -67.5150 C.ar   67  HIS67       0.1154
      9  CE1      -48.4190   16.1990  -67.3240 C.ar   67  HIS67       0.1986
     10  NE2      -49.3170   15.4690  -66.6850 N.ar   67  HIS67      -0.2212
     11  N        -55.1910   12.5670  -71.0220 N.3   125  ARG125     -0.1245
     12  CA       -53.9170   12.9030  -70.3710 C.3   125  ARG125      0.1563
     13  C        -53.7070   12.1480  -69.0630 C.2   125  ARG125      0.2260
     14  O        -52.5900   11.7620  -68.7300 O.2   125  ARG125     -0.2867
     15  CB       -53.9100   14.4090  -70.0990 C.3   125  ARG125      0.0307
     16  CG       -53.0810   14.9390  -68.9690 C.3   125  ARG125      0.0489
     17  CD       -53.5020   16.3930  -68.7650 C.3   125  ARG125      0.2205
     18  NE       -52.6820   17.0830  -67.7810 N.pl3 125  ARG125     -0.0865
     19  CZ       -51.5690   17.7530  -68.0730 C.cat 125  ARG125      0.5346
     20  NH1      -51.1270   17.8230  -69.3220 N.pl3 125  ARG125      0.1354
     21  NH2      -50.9030   18.3670  -67.1110 N.pl3 125  ARG125      0.1354
     22  N        -54.0390   13.5940  -62.8270 N.3   140  ASP140     -0.1239
     23  CA       -52.8620   14.0760  -63.5200 C.3   140  ASP140      0.1674
     24  C        -51.6650   13.4860  -62.7780 C.2   140  ASP140      0.2266
     25  O        -51.3240   13.9310  -61.6920 O.2   140  ASP140     -0.2867
     26  CB       -52.8420   15.6060  -63.5130 C.3   140  ASP140      0.1410
     27  CG       -51.6190   16.1780  -64.2030 C.2   140  ASP140      0.3668
     28  OD1      -50.6270   15.4410  -64.3760 O.co2 140  ASP140     -0.2456
     29  OD2      -51.6580   17.3770  -64.5610 O.co2 140  ASP140     -0.2456
     30  N        -48.6200   13.6630  -63.1360 N.3   142  ASN142     -0.1225
     31  CA       -47.5140   14.5500  -62.8090 C.3   142  ASN142      0.1785
     32  C        -47.9050   15.6800  -61.8720 C.2   142  ASN142      0.2597
     33  O        -47.1990   16.6830  -61.8020 O.2   142  ASN142     -0.2718
     34  CB       -46.7530   15.0870  -64.0230 C.3   142  ASN142      0.1169
     35  CG       -45.3140   15.4390  -63.6800 C.2   142  ASN142      0.2627
     36  OD1      -44.7000   14.8030  -62.8230 O.2   142  ASN142     -0.2716
     37  ND2      -44.7650   16.4460  -64.3430 N.am  142  ASN142     -0.0877
     38  N        -49.0090   15.4970  -61.1410 N.am  143  ARG143     -0.1979
     39  CA       -49.3700   16.3850  -60.0310 C.3   143  ARG143      0.1597
     40  C        -49.6830   15.5630  -58.7700 C.2   143  ARG143      0.2287
     41  O        -50.2130   16.0870  -57.7730 O.2   143  ARG143     -0.2864
     42  CB       -50.5470   17.2960  -60.4100 C.3   143  ARG143      0.0334
     43  CG       -50.1610   18.4040  -61.4040 C.3   143  ARG143      0.0492
     44  CD       -51.3490   19.2750  -61.7730 C.3   143  ARG143      0.2205
     45  NE       -50.9560   20.6390  -62.1700 N.pl3 143  ARG143     -0.0865
     46  CZ       -50.6990   21.0210  -63.4180 C.cat 143  ARG143      0.5346
     47  NH1      -50.7780   20.1480  -64.4120 N.pl3 143  ARG143      0.1354
     48  NH2      -50.3720   22.2870  -63.6800 N.pl3 143  ARG143      0.1354
     49  N        -41.8830   15.1180  -71.4740 N.3   194  HIS194     -0.1241
     50  CA       -43.2330   15.5900  -71.7050 C.3   194  HIS194      0.1621
     51  C        -43.3110   16.3140  -73.0450 C.2   194  HIS194      0.2264
     52  O        -42.2990   16.5530  -73.7010 O.2   194  HIS194     -0.2867
     53  CB       -43.6220   16.6000  -70.6190 C.3   194  HIS194      0.0745
     54  CG       -43.8910   15.9760  -69.2910 C.ar  194  HIS194      0.0817
     55  ND1      -45.1640   15.8430  -68.7880 N.ar  194  HIS194     -0.2268
     56  CD2      -43.0560   15.4280  -68.3710 C.ar  194  HIS194      0.1154
     57  CE1      -45.1040   15.2580  -67.6030 C.ar  194  HIS194      0.1986
     58  NE2      -43.8380   14.9890  -67.3310 N.ar  194  HIS194     -0.2212
     59  N        -36.4540   22.1590  -68.1110 N.3   201  LEU201     -0.1245
     60  CA       -36.7950   22.7270  -66.8100 C.3   201  LEU201      0.1561
     61  C        -36.1090   21.9860  -65.7000 C.2   201  LEU201      0.2260
     62  O        -35.9670   20.7770  -65.7600 O.2   201  LEU201     -0.2867
     63  CB       -38.3090   22.6170  -66.5990 C.3   201  LEU201      0.0270
     64  CG       -39.1210   23.2800  -67.7210 C.3   201  LEU201      0.0019
     65  CD1      -40.5950   22.9010  -67.6390 C.3   201  LEU201      0.0001
     66  CD2      -38.9060   24.8020  -67.7160 C.3   201  LEU201      0.0001
     67  N        -39.1020   25.3080  -63.2640 N.3   241  ILE241     -0.1245
     68  CA       -40.4830   25.1460  -63.7210 C.3   241  ILE241      0.1561
     69  C        -41.3090   26.4030  -63.4080 C.2   241  ILE241      0.2260
     70  O        -41.9370   26.9750  -64.2860 O.2   241  ILE241     -0.2867
     71  CB       -41.1580   23.9050  -63.0880 C.3   241  ILE241      0.0252
     72  CG1      -40.4370   22.6140  -63.5130 C.3   241  ILE241      0.0019
     73  CG2      -42.6510   23.8480  -63.4400 C.3   241  ILE241      0.0019
     74  CD1      -40.8480   21.3990  -62.6880 C.3   241  ILE241      0.0001
     75  N        -42.4310   28.3550  -66.8710 N.3   245  ILE245     -0.1231
     76  CA       -43.7320   28.0300  -67.4320 C.3   245  ILE245      0.1692
     77  C        -44.8650   28.4320  -66.4870 C.2   245  ILE245      0.2592
     78  O        -45.6080   29.3620  -66.7950 O.2   245  ILE245     -0.2718
     79  CB       -43.7830   26.5620  -68.0280 C.3   245  ILE245      0.0266
     80  CG1      -45.1160   26.2830  -68.7530 C.3   245  ILE245      0.0019
     81  CG2      -43.4550   25.5080  -66.9850 C.3   245  ILE245      0.0020
     82  CD1      -45.3840   27.1990  -69.9740 C.3   245  ILE245      0.0001
     83  N        -44.9580   27.7820  -65.3250 N.am  246  TYR246     -0.1976
     84  CA       -45.9760   28.1060  -64.3280 C.3   246  TYR246      0.1639
     85  C        -45.7390   27.3540  -63.0230 C.2   246  TYR246      0.2290
     86  O        -45.0200   26.3600  -62.9930 O.2   246  TYR246     -0.2864
     87  CB       -47.4030   27.8160  -64.8520 C.3   246  TYR246      0.0560
     88  CG       -47.6000   26.4860  -65.5840 C.ar  246  TYR246     -0.0198
     89  CD1      -47.2420   25.2670  -64.9830 C.ar  246  TYR246     -0.0009
     90  CD2      -48.1770   26.4420  -66.8690 C.ar  246  TYR246     -0.0009
     91  CE1      -47.4330   24.0440  -65.6460 C.ar  246  TYR246      0.0417
     92  CE2      -48.3700   25.2200  -67.5410 C.ar  246  TYR246      0.0417
     93  CZ       -47.9890   24.0220  -66.9160 C.ar  246  TYR246      0.1957
     94  OH       -48.1660   22.8040  -67.5510 O.3   246  TYR246     -0.2866
     95  N        -46.5590   24.7150  -60.4640 N.3   248  ALA248     -0.1245
     96  CA       -47.1300   23.3920  -60.6810 C.3   248  ALA248      0.1562
     97  C        -46.6910   22.5300  -59.5080 C.2   248  ALA248      0.2260
     98  O        -45.5030   22.4810  -59.1750 O.2   248  ALA248     -0.2867
     99  CB       -46.6290   22.8010  -62.0110 C.3   248  ALA248      0.0290
    100  N        -45.1300   17.4470  -58.6130 N.3   251  GLY251     -0.1225
    101  CA       -44.4030   17.0800  -59.8420 C.3   251  GLY251      0.1811
    102  C        -43.2100   16.1630  -59.6430 C.2   251  GLY251      0.2280
    103  O        -42.5680   16.1660  -58.5850 O.2   251  GLY251     -0.2866
    104  N        -36.9920   18.2430  -66.4300 N.3   266  THR266     -0.1218
    105  CA       -38.1470   17.8960  -67.2480 C.3   266  THR266      0.1862
    106  C        -37.9810   18.5200  -68.6080 C.2   266  THR266      0.2287
    107  O        -37.7370   19.7180  -68.7110 O.2   266  THR266     -0.2866
    108  CB       -39.4580   18.3710  -66.6010 C.3   266  THR266      0.1770
    109  OG1      -39.6850   17.5850  -65.4300 O.3   266  THR266     -0.2211
    110  CG2      -40.6590   18.2060  -67.5650 C.3   266  THR266      0.0375
    111  N        -39.9720   19.4760  -72.0530 N.3   268  GLU268     -0.1245
    112  CA       -41.2150   19.6360  -72.7860 C.3   268  GLU268      0.1567
    113  C        -40.8240   19.7480  -74.2470 C.2   268  GLU268      0.2260
    114  O        -40.1910   20.7220  -74.6560 O.2   268  GLU268     -0.2867
    115  CB       -41.9670   20.8960  -72.3250 C.3   268  GLU268      0.0388
    116  CG       -42.6550   20.7530  -70.9710 C.3   268  GLU268      0.1160
    117  CD       -43.9300   19.9280  -71.0280 C.2   268  GLU268      0.3649
    118  OE1      -44.3190   19.4820  -72.1290 O.co2 268  GLU268     -0.2457
    119  OE2      -44.5700   19.7300  -69.9750 O.co2 268  GLU268     -0.2457
@<TRIPOS>BOND
     1   114   113    2
     2   113   112    1
     3    52    51    2
     4    51    50    1
     5   112   115    1
     6   112   111    1
     7   115   116    1
     8   118   117   ar
     9     4     3    2
    10    50    49    1
    11    50    53    1
    12     3     2    1
    13   117   116    1
    14   117   119   ar
    15    11    12    1
    16    53    54    1
    17    12    15    1
    18    12    13    1
    19    15    16    1
    20    82    80    1
    21     5     2    1
    22     5     6    1
    23     2     1    1
    24    20    19    1
    25    54    55   ar
    26    54    56   ar
    27    13    14    2
    28    16    17    1
    29    55    57   ar
    30    17    18    1
    31    80    79    1
    32   107   106    2
    33     6     7   ar
    34     6     8   ar
    35   106   105    1
    36     7     9   ar
    37    56    58   ar
    38    59    60    1
    39    19    18    2
    40    19    21    1
    41    79    76    1
    42    79    81    1
    43    64    66    1
    44    64    65    1
    45    64    63    1
    46    57    58   ar
    47   110   108    1
    48    94    93    1
    49    92    93   ar
    50    92    90   ar
    51     8    10   ar
    52    76    75    1
    53    76    77    1
    54     9    10   ar
    55   105   108    1
    56   105   104    1
    57    93    91   ar
    58    90    88   ar
    59    60    63    1
    60    60    61    1
    61    78    77    2
    62   108   109    1
    63    77    83   am
    64    62    61    2
    65    91    89   ar
    66    88    89   ar
    67    88    87    1
    68    83    84    1
    69    87    84    1
    70    29    27   ar
    71    47    46    1
    72    28    27   ar
    73    37    35   am
    74    84    85    1
    75    70    69    2
    76    27    26    1
    77    34    35    1
    78    34    31    1
    79    68    69    1
    80    68    67    1
    81    68    71    1
    82    48    46    1
    83    35    36    2
    84    23    26    1
    85    23    22    1
    86    23    24    1
    87    72    71    1
    88    72    74    1
    89    73    71    1
    90    46    45    2
    91    30    31    1
    92    85    86    2
    93    31    32    1
    94    24    25    2
    95    45    44    1
    96    99    96    1
    97    32    33    2
    98    32    38   am
    99    44    43    1
   100    43    42    1
   101    38    39    1
   102    96    95    1
   103    96    97    1
   104    42    39    1
   105    39    40    1
   106   101   102    1
   107   101   100    1
   108   102   103    2
   109    97    98    2
   110    40    41    2
