@<TRIPOS>MOLECULE
tmp/3hlwB01.pdb
 86 80 0 0 0
SMALL
GASTEIGER

@<TRIPOS>ATOM
      1  N         -2.6090   90.0850   35.6360 N.3    78  ASN78      -0.1225
      2  CA        -2.7780   91.2540   34.7620 C.3    78  ASN78       0.1785
      3  C         -3.9650   92.1840   35.0480 C.2    78  ASN78       0.2597
      4  O         -4.1500   93.1790   34.3510 O.2    78  ASN78      -0.2718
      5  CB        -2.8600   90.7980   33.3160 C.3    78  ASN78       0.1169
      6  CG        -4.0960   89.9620   33.0480 C.2    78  ASN78       0.2627
      7  OD1       -4.5250   89.1920   33.8970 O.2    78  ASN78      -0.2716
      8  ND2       -4.6650   90.1060   31.8600 N.am   78  ASN78      -0.0877
      9  N         -4.8550   91.7650   35.9310 N.am   79  TYR79      -0.1976
     10  CA        -6.0540   92.5550   36.2320 C.3    79  TYR79       0.1639
     11  C         -6.5400   92.1800   37.6170 C.2    79  TYR79       0.2290
     12  O         -7.1830   91.1360   37.8030 O.2    79  TYR79      -0.2864
     13  CB        -7.1520   92.2930   35.1910 C.3    79  TYR79       0.0560
     14  CG        -8.3170   93.2360   35.2960 C.ar   79  TYR79      -0.0198
     15  CD1       -9.5180   92.8190   35.8420 C.ar   79  TYR79      -0.0009
     16  CD2       -8.2100   94.5470   34.8680 C.ar   79  TYR79      -0.0009
     17  CE1      -10.5700   93.6980   35.9900 C.ar   79  TYR79       0.0417
     18  CE2       -9.2800   95.4140   34.9570 C.ar   79  TYR79       0.0417
     19  CZ       -10.4530   94.9840   35.5200 C.ar   79  TYR79       0.1957
     20  OH       -11.5160   95.8640   35.6280 O.3    79  TYR79      -0.2866
     21  N        -19.3590   95.3840   35.8780 N.3   190  THR190     -0.1218
     22  CA       -18.7640   95.4890   34.5390 C.3   190  THR190      0.1862
     23  C        -19.7090   95.3400   33.3620 C.2   190  THR190      0.2287
     24  O        -19.2570   95.3460   32.2100 O.2   190  THR190     -0.2866
     25  CB       -17.6670   94.4260   34.3410 C.3   190  THR190      0.1770
     26  OG1      -18.2730   93.1240   34.3170 O.3   190  THR190     -0.2211
     27  CG2      -16.6530   94.4900   35.4650 C.3   190  THR190      0.0375
     28  N        -23.0520   95.8170   27.9840 N.3   194  SER194     -0.1217
     29  CA       -23.1800   94.5520   27.2670 C.3   194  SER194      0.1889
     30  C        -24.6410   94.1420   27.0960 C.2   194  SER194      0.2288
     31  O        -25.4350   94.9320   26.6000 O.2   194  SER194     -0.2866
     32  CB       -22.3030   93.4900   27.9250 C.3   194  SER194      0.2089
     33  OG       -20.9530   93.9750   27.9800 O.3   194  SER194     -0.2183
     34  N        -19.4550   89.2970   32.5360 N.3   209  THR209     -0.1203
     35  CA       -18.7760   89.5790   31.2790 C.3   209  THR209      0.1994
     36  C        -17.5380   88.6950   31.1020 C.2   209  THR209      0.2618
     37  O        -17.0580   88.0520   32.0600 O.2   209  THR209     -0.2717
     38  CB       -18.3090   91.0460   31.2430 C.3   209  THR209      0.1784
     39  OG1      -17.5190   91.3230   32.4140 O.3   209  THR209     -0.2211
     40  CG2      -19.5160   92.0010   31.2010 C.3   209  THR209      0.0376
     41  N        -16.9580   88.7640   29.9070 N.am  210  GLY210     -0.1942
     42  CA       -15.6720   88.1550   29.6350 C.3   210  GLY210      0.2014
     43  C        -15.0510   88.8630   28.4570 C.2   210  GLY210      0.2640
     44  O        -15.7560   89.3690   27.5920 O.2   210  GLY210     -0.2714
     45  N        -13.7240   88.9440   28.4440 N.am  211  SER211     -0.1935
     46  CA       -13.0250   89.5660   27.3140 C.3   211  SER211      0.2055
     47  C        -11.6510   88.9660   27.1410 C.2   211  SER211      0.2643
     48  O        -11.0660   88.4450   28.0880 O.2   211  SER211     -0.2714
     49  CB       -12.8920   91.0600   27.5180 C.3   211  SER211      0.2130
     50  OG       -12.2540   91.3270   28.7330 O.3   211  SER211     -0.2179
     51  N        -11.1410   89.0420   25.9160 N.am  212  GLY212     -0.1954
     52  CA        -9.8130   88.5140   25.6220 C.3   212  GLY212      0.1869
     53  C         -9.3030   88.9940   24.2900 C.2   212  GLY212      0.2309
     54  O         -9.9520   89.7920   23.6260 O.2   212  GLY212     -0.2863
     55  N        -15.4730   89.2900   23.1560 N.3   217  THR217     -0.1203
     56  CA       -16.3760   90.1140   23.9500 C.3   217  THR217      0.1994
     57  C        -17.5800   89.2650   24.3090 C.2   217  THR217      0.2617
     58  O        -18.3540   88.9070   23.4400 O.2   217  THR217     -0.2717
     59  CB       -16.8220   91.3400   23.1530 C.3   217  THR217      0.1784
     60  OG1      -15.6720   91.9510   22.5360 O.3   217  THR217     -0.2211
     61  CG2      -17.4880   92.3380   24.0640 C.3   217  THR217      0.0376
     62  N        -17.7060   88.9180   25.5960 N.am  218  ASN218     -0.1974
     63  CA       -18.7380   87.9650   26.0490 C.3   218  ASN218      0.1688
     64  C        -19.5900   88.5070   27.1670 C.2   218  ASN218      0.2292
     65  O        -19.1390   89.3490   27.9470 O.2   218  ASN218     -0.2864
     66  CB       -18.0680   86.6950   26.5920 C.3   218  ASN218      0.1181
     67  CG       -17.2260   85.9800   25.5690 C.2   218  ASN218      0.2629
     68  OD1      -17.4740   86.0600   24.3610 O.2   218  ASN218     -0.2716
     69  ND2      -16.2410   85.2330   26.0520 N.am  218  ASN218     -0.0877
     70  N        -12.6130   95.5660   21.3200 N.3   246  SER246     -0.1217
     71  CA       -13.7920   95.0320   21.9810 C.3   246  SER246      0.1889
     72  C        -15.0530   95.5630   21.3000 C.2   246  SER246      0.2288
     73  O        -15.0660   96.6820   20.7900 O.2   246  SER246     -0.2866
     74  CB       -13.7810   95.4300   23.4590 C.3   246  SER246      0.2089
     75  OG       -14.9840   95.0720   24.1000 O.3   246  SER246     -0.2183
     76  N        -18.6530   95.4980   22.6580 N.3   248  ARG248     -0.1245
     77  CA       -19.7810   95.2980   23.5580 C.3   248  ARG248      0.1563
     78  C        -21.1070   95.7220   22.9250 C.2   248  ARG248      0.2260
     79  O        -22.1670   95.1760   23.2530 O.2   248  ARG248     -0.2867
     80  CB       -19.5460   96.0090   24.8830 C.3   248  ARG248      0.0307
     81  CG       -18.3900   95.4220   25.6610 C.3   248  ARG248      0.0489
     82  CD       -18.3030   96.0140   27.0300 C.3   248  ARG248      0.2205
     83  NE       -17.8700   97.4000   26.9840 N.pl3 248  ARG248     -0.0865
     84  CZ       -17.7110   98.1570   28.0610 C.cat 248  ARG248      0.5346
     85  NH1      -17.9690   97.6590   29.2590 N.pl3 248  ARG248      0.1354
     86  NH2      -17.3060   99.4110   27.9390 N.pl3 248  ARG248      0.1354
@<TRIPOS>BOND
     1    73    72    2
     2    72    71    1
     3    70    71    1
     4    71    74    1
     5    60    59    1
     6    76    77    1
     7    78    79    2
     8    78    77    1
     9    59    56    1
    10    59    61    1
    11    55    56    1
    12    58    57    2
    13    74    75    1
    14    77    80    1
    15    54    53    2
    16    56    57    1
    17    53    52    1
    18    57    62   am
    19    68    67    2
    20    80    81    1
    21    67    69   am
    22    67    66    1
    23    62    63    1
    24    52    51    1
    25    81    82    1
    26    51    47   am
    27    63    66    1
    28    63    64    1
    29    31    30    2
    30    83    82    1
    31    83    84    2
    32    30    29    1
    33    47    46    1
    34    47    48    2
    35    64    65    2
    36    29    32    1
    37    29    28    1
    38    46    49    1
    39    46    45    1
    40    49    50    1
    41    44    43    2
    42    32    33    1
    43    86    84    1
    44    84    85    1
    45    45    43   am
    46    43    42    1
    47    42    41    1
    48    41    36   am
    49    36    35    1
    50    36    37    2
    51    40    38    1
    52    38    35    1
    53    38    39    1
    54    35    34    1
    55     8     6   am
    56    24    23    2
    57     6     5    1
    58     6     7    2
    59     5     2    1
    60    23    22    1
    61    26    25    1
    62    25    22    1
    63    25    27    1
    64     4     3    2
    65    22    21    1
    66     2     3    1
    67     2     1    1
    68    16    18   ar
    69    16    14   ar
    70    18    19   ar
    71     3     9   am
    72    13    14    1
    73    13    10    1
    74    14    15   ar
    75    19    20    1
    76    19    17   ar
    77    15    17   ar
    78     9    10    1
    79    10    11    1
    80    11    12    2
