@<TRIPOS>MOLECULE
tmp/3hlwB00.pdb
 141 132 0 0 0
SMALL
GASTEIGER

@<TRIPOS>ATOM
      1  N        -13.6250   85.5890   30.9300 N.3    44  GLY44      -0.1225
      2  CA       -14.1660   85.8640   32.2730 C.3    44  GLY44       0.1811
      3  C        -15.5290   85.2690   32.5990 C.2    44  GLY44       0.2280
      4  O        -15.9040   85.1990   33.7600 O.2    44  GLY44      -0.2866
      5  N        -15.7450   82.5050   35.2210 N.3    47  LYS47      -0.1245
      6  CA       -15.7040   82.8220   36.6490 C.3    47  LYS47       0.1561
      7  C        -16.9940   82.4240   37.3600 C.2    47  LYS47       0.2260
      8  O        -16.9810   82.1190   38.5520 O.2    47  LYS47      -0.2867
      9  CB       -15.3820   84.3150   36.8570 C.3    47  LYS47       0.0271
     10  CG       -13.9330   84.6720   36.4330 C.3    47  LYS47       0.0035
     11  CD       -13.7090   86.1650   36.3290 C.3    47  LYS47       0.0206
     12  CE       -12.2070   86.4900   36.2060 C.3    47  LYS47       0.1093
     13  NZ       -11.9370   87.4870   35.1320 N.3    47  LYS47      -0.1314
     14  N         -2.6090   90.0850   35.6360 N.3    78  ASN78      -0.1225
     15  CA        -2.7780   91.2540   34.7620 C.3    78  ASN78       0.1785
     16  C         -3.9650   92.1840   35.0480 C.2    78  ASN78       0.2597
     17  O         -4.1500   93.1790   34.3510 O.2    78  ASN78      -0.2718
     18  CB        -2.8600   90.7980   33.3160 C.3    78  ASN78       0.1169
     19  CG        -4.0960   89.9620   33.0480 C.2    78  ASN78       0.2627
     20  OD1       -4.5250   89.1920   33.8970 O.2    78  ASN78      -0.2716
     21  ND2       -4.6650   90.1060   31.8600 N.am   78  ASN78      -0.0877
     22  N         -4.8550   91.7650   35.9310 N.am   79  TYR79      -0.1976
     23  CA        -6.0540   92.5550   36.2320 C.3    79  TYR79       0.1639
     24  C         -6.5400   92.1800   37.6170 C.2    79  TYR79       0.2290
     25  O         -7.1830   91.1360   37.8030 O.2    79  TYR79      -0.2864
     26  CB        -7.1520   92.2930   35.1910 C.3    79  TYR79       0.0560
     27  CG        -8.3170   93.2360   35.2960 C.ar   79  TYR79      -0.0198
     28  CD1       -9.5180   92.8190   35.8420 C.ar   79  TYR79      -0.0009
     29  CD2       -8.2100   94.5470   34.8680 C.ar   79  TYR79      -0.0009
     30  CE1      -10.5700   93.6980   35.9900 C.ar   79  TYR79       0.0417
     31  CE2       -9.2800   95.4140   34.9570 C.ar   79  TYR79       0.0417
     32  CZ       -10.4530   94.9840   35.5200 C.ar   79  TYR79       0.1957
     33  OH       -11.5160   95.8640   35.6280 O.3    79  TYR79      -0.2866
     34  N        -14.4570   91.1090   38.0770 N.3   104  SER104     -0.1217
     35  CA       -13.6860   90.2920   37.1340 C.3   104  SER104      0.1889
     36  C        -12.2050   90.2360   37.5000 C.2   104  SER104      0.2288
     37  O        -11.3410   90.1230   36.6420 O.2   104  SER104     -0.2866
     38  CB       -13.8990   90.7260   35.6730 C.3   104  SER104      0.2089
     39  OG       -13.8150   89.5940   34.8040 O.3   104  SER104     -0.2183
     40  N         -8.8690   88.8080   38.1750 N.3   106  ASN106     -0.1240
     41  CA        -8.2030   87.5760   37.7290 C.3   106  ASN106      0.1653
     42  C         -7.4430   86.8730   38.8490 C.2   106  ASN106      0.2266
     43  O         -7.3050   85.6580   38.8330 O.2   106  ASN106     -0.2867
     44  CB        -7.2420   87.8600   36.5660 C.3   106  ASN106      0.1155
     45  CG        -7.9660   88.1400   35.2490 C.2   106  ASN106      0.2627
     46  OD1       -9.1870   87.9810   35.1450 O.2   106  ASN106     -0.2716
     47  ND2       -7.2140   88.6170   34.2440 N.am  106  ASN106     -0.0877
     48  N         -3.7390   84.4280   33.6950 N.3   141  PRO141     -0.2102
     49  CA        -4.6060   85.0260   32.7040 C.3   141  PRO141      0.1504
     50  C         -4.6770   84.2590   31.3770 C.2   141  PRO141      0.2576
     51  O         -5.3930   84.6860   30.4720 O.2   141  PRO141     -0.2718
     52  CB        -3.9470   86.3820   32.4600 C.3   141  PRO141      0.0282
     53  CG        -2.4810   86.0760   32.5830 C.3   141  PRO141      0.0208
     54  CD        -2.3720   84.9930   33.6440 C.3   141  PRO141      0.0893
     55  N         -3.9370   83.1550   31.2470 N.am  142  THR142     -0.1953
     56  CA        -3.8950   82.4730   29.9550 C.3   142  THR142      0.1897
     57  C         -5.1860   81.8420   29.4850 C.2   142  THR142      0.2313
     58  O         -5.3630   81.6260   28.2930 O.2   142  THR142     -0.2863
     59  CB        -2.7230   81.4890   29.8130 C.3   142  THR142      0.1794
     60  OG1       -2.8820   80.4160   30.7350 O.3   142  THR142     -0.2208
     61  CG2       -1.3760   82.1950   30.0480 C.3   142  THR142      0.0378
     62  N         -7.6620   83.3190   28.9420 N.3   144  ASN144     -0.1225
     63  CA        -8.2710   84.3450   28.0710 C.3   144  ASN144      0.1785
     64  C         -7.5850   84.5470   26.7140 C.2   144  ASN144      0.2597
     65  O         -7.8480   85.5320   26.0410 O.2   144  ASN144     -0.2718
     66  CB        -8.3470   85.7140   28.7830 C.3   144  ASN144      0.1169
     67  CG        -8.9780   85.6360   30.1500 C.2   144  ASN144      0.2627
     68  OD1      -10.2090   85.5450   30.2840 O.2   144  ASN144     -0.2716
     69  ND2       -8.1610   85.7910   31.1750 N.am  144  ASN144     -0.0877
     70  N         -6.6780   83.6460   26.3280 N.am  145  THR145     -0.1953
     71  CA        -5.9460   83.8250   25.0480 C.3   145  THR145      0.1897
     72  C         -6.8690   83.8670   23.8320 C.2   145  THR145      0.2313
     73  O         -6.5880   84.5680   22.8480 O.2   145  THR145     -0.2863
     74  CB        -4.8420   82.7750   24.8460 C.3   145  THR145      0.1794
     75  OG1       -5.3760   81.4610   25.0430 O.3   145  THR145     -0.2208
     76  CG2       -3.6880   83.0110   25.8320 C.3   145  THR145      0.0378
     77  N        -19.3590   95.3840   35.8780 N.3   190  THR190     -0.1218
     78  CA       -18.7640   95.4890   34.5390 C.3   190  THR190      0.1862
     79  C        -19.7090   95.3400   33.3620 C.2   190  THR190      0.2287
     80  O        -19.2570   95.3460   32.2100 O.2   190  THR190     -0.2866
     81  CB       -17.6670   94.4260   34.3410 C.3   190  THR190      0.1770
     82  OG1      -18.2730   93.1240   34.3170 O.3   190  THR190     -0.2211
     83  CG2      -16.6530   94.4900   35.4650 C.3   190  THR190      0.0375
     84  N        -22.3970   88.2550   33.9380 N.3   208  LYS208     -0.1231
     85  CA       -20.9440   88.1450   34.0560 C.3   208  LYS208      0.1693
     86  C        -20.3370   88.3100   32.6770 C.2   208  LYS208      0.2593
     87  O        -20.6930   87.5690   31.7460 O.2   208  LYS208     -0.2718
     88  CB       -20.5090   86.8020   34.6350 C.3   208  LYS208      0.0285
     89  CG       -18.9820   86.6620   34.7270 C.3   208  LYS208      0.0035
     90  CD       -18.4210   87.5020   35.8780 C.3   208  LYS208      0.0206
     91  CE       -16.9200   87.6970   35.7670 C.3   208  LYS208      0.1093
     92  NZ       -16.5860   88.7280   34.6920 N.3   208  LYS208     -0.1314
     93  N        -19.4550   89.2970   32.5360 N.am  209  THR209     -0.1939
     94  CA       -18.7760   89.5790   31.2790 C.3   209  THR209      0.2028
     95  C        -17.5380   88.6950   31.1020 C.2   209  THR209      0.2643
     96  O        -17.0580   88.0520   32.0600 O.2   209  THR209     -0.2714
     97  CB       -18.3090   91.0460   31.2430 C.3   209  THR209      0.1808
     98  OG1      -17.5190   91.3230   32.4140 O.3   209  THR209     -0.2208
     99  CG2      -19.5160   92.0010   31.2010 C.3   209  THR209      0.0379
    100  N        -16.9580   88.7640   29.9070 N.am  210  GLY210     -0.1939
    101  CA       -15.6720   88.1550   29.6350 C.3   210  GLY210      0.2014
    102  C        -15.0510   88.8630   28.4570 C.2   210  GLY210      0.2640
    103  O        -15.7560   89.3690   27.5920 O.2   210  GLY210     -0.2714
    104  N        -13.7240   88.9440   28.4440 N.am  211  SER211     -0.1935
    105  CA       -13.0250   89.5660   27.3140 C.3   211  SER211      0.2055
    106  C        -11.6510   88.9660   27.1410 C.2   211  SER211      0.2644
    107  O        -11.0660   88.4450   28.0880 O.2   211  SER211     -0.2714
    108  CB       -12.8920   91.0600   27.5180 C.3   211  SER211      0.2130
    109  OG       -12.2540   91.3270   28.7330 O.3   211  SER211     -0.2179
    110  N        -11.1410   89.0420   25.9160 N.am  212  GLY212     -0.1939
    111  CA        -9.8130   88.5140   25.6220 C.3   212  GLY212      0.2014
    112  C         -9.3030   88.9940   24.2900 C.2   212  GLY212      0.2638
    113  O         -9.9520   89.7920   23.6260 O.2   212  GLY212     -0.2714
    114  N         -8.1630   88.4400   23.8750 N.am  213  ASP213     -0.1971
    115  CA        -7.5940   88.7270   22.5610 C.3   213  ASP213      0.1709
    116  C         -8.5870   88.3270   21.4700 C.2   213  ASP213      0.2293
    117  O         -9.6110   87.6840   21.7420 O.2   213  ASP213     -0.2864
    118  CB        -6.2810   87.9590   22.3690 C.3   213  ASP213      0.1436
    119  CG        -5.0670   88.7170   22.8960 C.2   213  ASP213      0.3671
    120  OD1       -5.2100   89.8730   23.3530 O.co2 213  ASP213     -0.2456
    121  OD2       -3.9550   88.1560   22.8160 O.co2 213  ASP213     -0.2456
    122  N         -6.0880   89.1760   16.0250 N.3   242  GLN242     -0.1245
    123  CA        -5.6650   89.1270   17.4260 C.3   242  GLN242      0.1566
    124  C         -5.8860   90.4510   18.1480 C.2   242  GLN242      0.2260
    125  O         -6.2730   90.4740   19.3150 O.2   242  GLN242     -0.2867
    126  CB        -4.1920   88.7220   17.5310 C.3   242  GLN242      0.0367
    127  CG        -3.6920   88.5760   18.9600 C.3   242  GLN242      0.0905
    128  CD        -2.3000   87.9890   19.0280 C.2   242  GLN242      0.2608
    129  OE1       -1.4300   88.3360   18.2310 O.2   242  GLN242     -0.2717
    130  NE2       -2.0860   87.0790   19.9710 N.am  242  GLN242     -0.0878
    131  N        -18.6530   95.4980   22.6580 N.3   248  ARG248     -0.1245
    132  CA       -19.7810   95.2980   23.5580 C.3   248  ARG248      0.1563
    133  C        -21.1070   95.7220   22.9250 C.2   248  ARG248      0.2260
    134  O        -22.1670   95.1760   23.2530 O.2   248  ARG248     -0.2867
    135  CB       -19.5460   96.0090   24.8830 C.3   248  ARG248      0.0307
    136  CG       -18.3900   95.4220   25.6610 C.3   248  ARG248      0.0489
    137  CD       -18.3030   96.0140   27.0300 C.3   248  ARG248      0.2205
    138  NE       -17.8700   97.4000   26.9840 N.pl3 248  ARG248     -0.0865
    139  CZ       -17.7110   98.1570   28.0610 C.cat 248  ARG248      0.5346
    140  NH1      -17.9690   97.6590   29.2590 N.pl3 248  ARG248      0.1354
    141  NH2      -17.3060   99.4110   27.9390 N.pl3 248  ARG248      0.1354
@<TRIPOS>BOND
     1   122   123    1
     2   123   126    1
     3   123   124    1
     4   126   127    1
     5   124   125    2
     6   129   128    2
     7   127   128    1
     8   128   130   am
     9   116   117    2
    10   116   115    1
    11   118   115    1
    12   118   119    1
    13   115   114    1
    14   131   132    1
    15   121   119   ar
    16    73    72    2
    17   119   120   ar
    18   133   134    2
    19   133   132    1
    20   132   135    1
    21   113   112    2
    22    72    71    1
    23   114   112   am
    24   112   111    1
    25    74    75    1
    26    74    71    1
    27    74    76    1
    28   135   136    1
    29    71    70    1
    30   111   110    1
    31   136   137    1
    32   110   106   am
    33    65    64    2
    34    70    64   am
    35    64    63    1
    36   138   137    1
    37   138   139    2
    38   106   105    1
    39   106   107    2
    40   105   108    1
    41   105   104    1
    42   108   109    1
    43   103   102    2
    44   141   139    1
    45   139   140    1
    46    63    66    1
    47    63    62    1
    48    58    57    2
    49   104   102   am
    50   102   101    1
    51    66    67    1
    52    57    56    1
    53   101   100    1
    54    59    56    1
    55    59    61    1
    56    59    60    1
    57   100    95   am
    58    56    55    1
    59    67    68    2
    60    67    69   am
    61    51    50    2
    62     1     2    1
    63    95    94    1
    64    95    96    2
    65    99    97    1
    66    97    94    1
    67    97    98    1
    68    55    50   am
    69    94    93    1
    70    50    49    1
    71    87    86    2
    72    21    19   am
    73    80    79    2
    74     2     3    1
    75    52    53    1
    76    52    49    1
    77    93    86   am
    78    53    54    1
    79     3     4    2
    80    86    85    1
    81    49    48    1
    82    19    18    1
    83    19    20    2
    84    18    15    1
    85    79    78    1
    86    54    48    1
    87    84    85    1
    88    85    88    1
    89    47    45   am
    90    82    81    1
    91    81    78    1
    92    81    83    1
    93    17    16    2
    94    78    77    1
    95    88    89    1
    96    92    91    1
    97    89    90    1
    98    15    16    1
    99    15    14    1
   100    39    38    1
   101    29    31   ar
   102    29    27   ar
   103    31    32   ar
   104    16    22   am
   105    13    12    1
   106    46    45    2
   107    26    27    1
   108    26    23    1
   109     5     6    1
   110    45    44    1
   111    27    28   ar
   112    32    33    1
   113    32    30   ar
   114    38    35    1
   115    91    90    1
   116    28    30   ar
   117    22    23    1
   118    12    11    1
   119    23    24    1
   120    11    10    1
   121    10     9    1
   122    44    41    1
   123    37    36    2
   124     6     9    1
   125     6     7    1
   126    35    36    1
   127    35    34    1
   128     7     8    2
   129    24    25    2
   130    41    40    1
   131    41    42    1
   132    43    42    2
