@<TRIPOS>MOLECULE
tmp/3hm8B01.pdb
 113 103 0 0 0
SMALL
GASTEIGER

@<TRIPOS>ATOM
      1  N         26.0850   54.0200    2.4980 N.3    64  ASP64      -0.1239
      2  CA        26.4950   53.0750    3.5340 C.3    64  ASP64       0.1674
      3  C         26.2460   51.6650    3.0030 C.2    64  ASP64       0.2266
      4  O         25.1270   51.1390    3.0900 O.2    64  ASP64      -0.2867
      5  CB        25.7240   53.3420    4.8340 C.3    64  ASP64       0.1410
      6  CG        26.2810   52.5630    6.0360 C.2    64  ASP64       0.3668
      7  OD1       25.8370   52.8450    7.1750 O.co2  64  ASP64      -0.2456
      8  OD2       27.1560   51.6770    5.8530 O.co2  64  ASP64      -0.2456
      9  N         27.5670   47.5210    2.5410 N.3    66  GLY66      -0.1210
     10  CA        28.3360   46.3630    3.0220 C.3    66  GLY66       0.1956
     11  C         27.8280   45.7490    4.3140 C.2    66  GLY66       0.2612
     12  O         28.2360   44.6440    4.6870 O.2    66  GLY66      -0.2717
     13  N         26.9410   46.4620    4.9990 N.am   67  GLY67      -0.1942
     14  CA        26.3090   45.9460    6.2010 C.3    67  GLY67       0.2014
     15  C         25.0220   45.2050    5.8740 C.2    67  GLY67       0.2640
     16  O         24.6890   44.9880    4.7070 O.2    67  GLY67      -0.2714
     17  N         24.3000   44.8150    6.9220 N.am   68  THR68      -0.1936
     18  CA        22.9830   44.1800    6.7780 C.3    68  THR68       0.2028
     19  C         22.0220   45.1090    6.0220 C.2    68  THR68       0.2642
     20  O         21.1150   44.6370    5.3260 O.2    68  THR68      -0.2714
     21  CB        22.3510   43.8370    8.1530 C.3    68  THR68       0.1808
     22  OG1       22.1360   45.0410    8.9080 O.3    68  THR68      -0.2208
     23  CG2       23.2600   42.8990    8.9530 C.3    68  THR68       0.0379
     24  N         22.2270   46.4270    6.1710 N.am   69  ASN69      -0.1971
     25  CA        21.4270   47.4340    5.4690 C.3    69  ASN69       0.1688
     26  C         22.2520   48.2940    4.5330 C.2    69  ASN69       0.2292
     27  O         23.3360   48.7810    4.9110 O.2    69  ASN69      -0.2864
     28  CB        20.7550   48.3720    6.4810 C.3    69  ASN69       0.1181
     29  CG        19.6690   47.6870    7.2920 C.2    69  ASN69       0.2629
     30  OD1       18.8080   46.9910    6.7430 O.2    69  ASN69      -0.2716
     31  ND2       19.6970   47.8880    8.6080 N.am   69  ASN69      -0.0877
     32  N         30.4960   55.2840    2.7320 N.3   129  THR129     -0.1218
     33  CA        30.9000   54.2680    3.6850 C.3   129  THR129      0.1862
     34  C         30.8410   52.9530    2.9130 C.2   129  THR129      0.2287
     35  O         29.7650   52.4870    2.5310 O.2   129  THR129     -0.2866
     36  CB        30.0000   54.2200    4.9280 C.3   129  THR129      0.1770
     37  OG1       29.7470   55.5530    5.4010 O.3   129  THR129     -0.2211
     38  CG2       30.6680   53.4100    6.0310 C.3   129  THR129      0.0375
     39  N         32.1640   49.2660    3.3160 N.3   131  SER131     -0.1217
     40  CA        32.7250   48.3470    4.3130 C.3   131  SER131      0.1889
     41  C         33.4520   47.1130    3.7530 C.2   131  SER131      0.2288
     42  O         33.0930   45.9610    4.0510 O.2   131  SER131     -0.2866
     43  CB        31.6240   47.9440    5.3000 C.3   131  SER131      0.2089
     44  OG        30.4490   47.5330    4.6370 O.3   131  SER131     -0.2183
     45  N         32.5240   38.9230    3.2350 N.3   149  LYS149     -0.1245
     46  CA        31.1650   38.6750    3.7140 C.3   149  LYS149      0.1561
     47  C         30.3250   37.9890    2.6110 C.2   149  LYS149      0.2260
     48  O         30.7080   36.9170    2.1400 O.2   149  LYS149     -0.2867
     49  CB        30.5250   39.9820    4.2300 C.3   149  LYS149      0.0271
     50  CG        31.2760   40.6150    5.4040 C.3   149  LYS149      0.0035
     51  CD        30.7540   42.0070    5.7410 C.3   149  LYS149      0.0206
     52  CE        31.1660   43.0300    4.6800 C.3   149  LYS149      0.1093
     53  NZ        30.8220   44.4260    5.0400 N.3   149  LYS149     -0.1314
     54  N         33.6170   51.1430    7.1870 N.3   185  ASP185     -0.1239
     55  CA        32.6330   51.3060    8.2650 C.3   185  ASP185      0.1674
     56  C         33.2900   51.4600    9.6300 C.2   185  ASP185      0.2266
     57  O         32.7890   52.2130   10.4690 O.2   185  ASP185     -0.2867
     58  CB        31.5970   50.1670    8.2840 C.3   185  ASP185      0.1410
     59  CG        32.2290   48.7780    8.2950 C.2   185  ASP185      0.3668
     60  OD1       33.4490   48.6570    8.0210 O.co2 185  ASP185     -0.2456
     61  OD2       31.4840   47.8010    8.5690 O.co2 185  ASP185     -0.2456
     62  N         33.8940   47.0120   14.6160 N.3   205  ILE205     -0.1245
     63  CA        32.6580   46.4930   14.0410 C.3   205  ILE205      0.1561
     64  C         32.5290   45.0220   14.3640 C.2   205  ILE205      0.2260
     65  O         33.4710   44.2470   14.1510 O.2   205  ILE205     -0.2867
     66  CB        32.6110   46.6460   12.5100 C.3   205  ILE205      0.0252
     67  CG1       32.6870   48.1160   12.1030 C.3   205  ILE205      0.0019
     68  CG2       31.3360   46.0190   11.9580 C.3   205  ILE205      0.0019
     69  CD1       31.5540   48.9660   12.6420 C.3   205  ILE205      0.0001
     70  N         29.3060   42.9010   13.4140 N.3   207  GLY207     -0.1210
     71  CA        27.9720   42.6460   12.8700 C.3   207  GLY207      0.1956
     72  C         28.0840   41.5130   11.8780 C.2   207  GLY207      0.2613
     73  O         28.5350   40.4190   12.2430 O.2   207  GLY207     -0.2717
     74  N         27.6920   41.7560   10.6220 N.am  208  THR208     -0.1938
     75  CA        27.8040   40.7180    9.5910 C.3   208  THR208      0.2028
     76  C         29.2330   40.2230    9.5790 C.2   208  THR208      0.2642
     77  O         29.4890   39.0260    9.6560 O.2   208  THR208     -0.2714
     78  CB        27.4280   41.2310    8.1890 C.3   208  THR208      0.1808
     79  OG1       26.0820   41.7290    8.1960 O.3   208  THR208     -0.2208
     80  CG2       27.5480   40.0970    7.1480 C.3   208  THR208      0.0379
     81  N         30.1600   41.1720    9.4820 N.am  209  GLY209     -0.1954
     82  CA        31.5820   40.8890    9.5340 C.3   209  GLY209      0.1869
     83  C         32.1840   41.6110   10.7150 C.2   209  GLY209      0.2309
     84  O         31.5020   42.3940   11.3890 O.2   209  GLY209     -0.2863
     85  N         30.0040   49.3150   16.6240 N.3   389  ASP389     -0.1225
     86  CA        28.7040   49.0770   15.9810 C.3   389  ASP389      0.1805
     87  C         28.6300   47.6320   15.4890 C.2   389  ASP389      0.2598
     88  O         29.6390   46.9390   15.4040 O.2   389  ASP389     -0.2718
     89  CB        28.4880   50.0650   14.8100 C.3   389  ASP389      0.1424
     90  CG        26.9790   50.3680   14.5380 C.2   389  ASP389      0.3668
     91  OD1       26.1340   49.4360   14.6190 O.co2 389  ASP389     -0.2456
     92  OD2       26.6570   51.5510   14.2400 O.co2 389  ASP389     -0.2456
     93  N         27.4310   47.1890   15.1700 N.am  390  GLY390     -0.1942
     94  CA        27.2080   45.8330   14.7020 C.3   390  GLY390      0.2014
     95  C         26.0450   45.2390   15.4340 C.2   390  GLY390      0.2639
     96  O         25.9710   45.3400   16.6470 O.2   390  GLY390     -0.2714
     97  N         25.1280   44.6190   14.6950 N.am  391  THR391     -0.1950
     98  CA        23.9070   44.0450   15.2940 C.3   391  THR391      0.1897
     99  C         24.2270   42.9740   16.3380 C.2   391  THR391      0.2313
    100  O         23.6030   42.9430   17.4060 O.2   391  THR391     -0.2863
    101  CB        22.9420   43.4590   14.2250 C.3   391  THR391      0.1794
    102  OG1       23.6690   42.5830   13.3550 O.3   391  THR391     -0.2208
    103  CG2       22.2830   44.5860   13.4010 C.3   391  THR391      0.0378
    104  N         25.1650   55.3500   13.2940 N.3   424  GLY424     -0.1210
    105  CA        25.8200   54.6460   12.1790 C.3   424  GLY424      0.1956
    106  C         27.0350   55.3820   11.6020 C.2   424  GLY424      0.2612
    107  O         27.4130   56.4810   12.0760 O.2   424  GLY424     -0.2717
    108  N         27.6410   54.7770   10.5710 N.am  425  SER425     -0.1952
    109  CA        28.8690   55.3070    9.9400 C.3   425  SER425      0.1924
    110  C         28.6700   56.5590    9.0750 C.2   425  SER425      0.2314
    111  O         29.6260   57.3100    8.8460 O.2   425  SER425     -0.2863
    112  CB        29.5210   54.2250    9.0900 C.3   425  SER425      0.2116
    113  OG        29.9030   53.1200    9.8850 O.3   425  SER425     -0.2180
@<TRIPOS>BOND
     1    48    47    2
     2     1     2    1
     3    35    34    2
     4     9    10    1
     5    47    46    1
     6    32    33    1
     7    34    33    1
     8     3     4    2
     9     3     2    1
    10    10    11    1
    11    45    46    1
    12    39    40    1
    13     2     5    1
    14    33    36    1
    15    46    49    1
    16    41    42    2
    17    41    40    1
    18    49    50    1
    19    40    43    1
    20    11    12    2
    21    11    13   am
    22    26    27    2
    23    26    25    1
    24    44    43    1
    25    52    53    1
    26    52    51    1
    27    16    15    2
    28     5     6    1
    29    36    37    1
    30    36    38    1
    31    13    14    1
    32    20    19    2
    33    50    51    1
    34    25    24    1
    35    25    28    1
    36     8     6   ar
    37    15    14    1
    38    15    17   am
    39    19    24   am
    40    19    18    1
    41     6     7   ar
    42    28    29    1
    43    30    29    2
    44    18    17    1
    45    18    21    1
    46    80    78    1
    47    54    55    1
    48    29    31   am
    49    60    59   ar
    50    21    22    1
    51    21    23    1
    52    78    79    1
    53    78    75    1
    54    55    58    1
    55    55    56    1
    56    58    59    1
    57    59    61   ar
    58   111   110    2
    59   110   109    1
    60   112   113    1
    61   112   109    1
    62    81    82    1
    63    81    76   am
    64    82    83    1
    65    76    75    1
    66    76    77    2
    67    75    74    1
    68    56    57    2
    69   109   108    1
    70   108   106   am
    71    74    72   am
    72    83    84    2
    73   106   107    2
    74   106   105    1
    75    72    73    2
    76    72    71    1
    77    68    66    1
    78    67    66    1
    79    67    69    1
    80   105   104    1
    81    66    63    1
    82    71    70    1
    83   102   101    1
    84   103   101    1
    85    63    64    1
    86    63    62    1
    87    65    64    2
    88   101    98    1
    89    92    90   ar
    90    90    91   ar
    91    90    89    1
    92    97    98    1
    93    97    95   am
    94    94    93    1
    95    94    95    1
    96    89    86    1
    97    93    87   am
    98    98    99    1
    99    88    87    2
   100    95    96    2
   101    87    86    1
   102    86    85    1
   103    99   100    2
