@<TRIPOS>MOLECULE
tmp/3hm8B00.pdb
 136 128 0 0 0
SMALL
GASTEIGER

@<TRIPOS>ATOM
      1  N         27.5670   47.5210    2.5410 N.3    66  GLY66      -0.1210
      2  CA        28.3360   46.3630    3.0220 C.3    66  GLY66       0.1956
      3  C         27.8280   45.7490    4.3140 C.2    66  GLY66       0.2612
      4  O         28.2360   44.6440    4.6870 O.2    66  GLY66      -0.2717
      5  N         26.9410   46.4620    4.9990 N.am   67  GLY67      -0.1956
      6  CA        26.3090   45.9460    6.2010 C.3    67  GLY67       0.1869
      7  C         25.0220   45.2050    5.8740 C.2    67  GLY67       0.2309
      8  O         24.6890   44.9880    4.7070 O.2    67  GLY67      -0.2863
      9  N         32.1640   49.2660    3.3160 N.3   131  SER131     -0.1202
     10  CA        32.7250   48.3470    4.3130 C.3   131  SER131      0.2020
     11  C         33.4520   47.1130    3.7530 C.2   131  SER131      0.2619
     12  O         33.0930   45.9610    4.0510 O.2   131  SER131     -0.2717
     13  CB        31.6240   47.9440    5.3000 C.3   131  SER131      0.2103
     14  OG        30.4490   47.5330    4.6370 O.3   131  SER131     -0.2182
     15  N         34.4820   47.3730    2.9510 N.am  132  PHE132     -0.1962
     16  CA        35.3180   46.3270    2.3690 C.3   132  PHE132      0.1756
     17  C         36.7460   46.8430    2.2690 C.2   132  PHE132      0.2461
     18  O         36.9750   48.0470    2.3750 O.2   132  PHE132     -0.2730
     19  CB        34.8040   45.9360    0.9900 C.3   132  PHE132      0.0574
     20  CG        33.4130   45.4000    0.9990 C.ar  132  PHE132     -0.0200
     21  CD1       33.1780   44.0530    1.2390 C.ar  132  PHE132     -0.0042
     22  CD2       32.3240   46.2470    0.7700 C.ar  132  PHE132     -0.0042
     23  CE1       31.8920   43.5590    1.2500 C.ar  132  PHE132     -0.0003
     24  CE2       31.0320   45.7590    0.7790 C.ar  132  PHE132     -0.0003
     25  CZ        30.8110   44.4180    1.0180 C.ar  132  PHE132     -0.0000
     26  N         37.7130   45.9370    2.0580 N.am  133  PRO133     -0.2727
     27  CA        39.1140   46.3300    2.0020 C.3   133  PRO133      0.1402
     28  C         39.4740   47.1340    0.7560 C.2   133  PRO133      0.2269
     29  O         39.2500   46.6800   -0.3640 O.2   133  PRO133     -0.2865
     30  CB        39.8630   44.9870    1.9880 C.3   133  PRO133      0.0296
     31  CG        38.8320   43.9350    2.1640 C.3   133  PRO133      0.0237
     32  CD        37.5420   44.5010    1.8010 C.3   133  PRO133      0.0939
     33  N         34.2270   40.7060    0.5700 N.3   148  THR148     -0.1203
     34  CA        34.2080   39.8650    1.7590 C.3   148  THR148      0.1994
     35  C         32.7580   39.6460    2.1450 C.2   148  THR148      0.2617
     36  O         31.8610   40.1220    1.4560 O.2   148  THR148     -0.2717
     37  CB        34.9780   40.5180    2.9180 C.3   148  THR148      0.1784
     38  OG1       34.4660   41.8280    3.1500 O.3   148  THR148     -0.2211
     39  CG2       36.4420   40.6190    2.5930 C.3   148  THR148      0.0376
     40  N         32.5240   38.9230    3.2350 N.am  149  LYS149     -0.1979
     41  CA        31.1650   38.6750    3.7140 C.3   149  LYS149      0.1596
     42  C         30.3250   37.9890    2.6110 C.2   149  LYS149      0.2287
     43  O         30.7080   36.9170    2.1400 O.2   149  LYS149     -0.2864
     44  CB        30.5250   39.9820    4.2300 C.3   149  LYS149      0.0298
     45  CG        31.2760   40.6150    5.4040 C.3   149  LYS149      0.0038
     46  CD        30.7540   42.0070    5.7410 C.3   149  LYS149      0.0206
     47  CE        31.1660   43.0300    4.6800 C.3   149  LYS149      0.1093
     48  NZ        30.8220   44.4260    5.0400 N.3   149  LYS149     -0.1314
     49  N         35.9450   53.1310    5.3590 N.3   184  ASN184     -0.1225
     50  CA        35.5340   51.8190    5.8380 C.3   184  ASN184      0.1785
     51  C         34.5630   52.0540    6.9910 C.2   184  ASN184      0.2597
     52  O         34.6680   53.0590    7.6960 O.2   184  ASN184     -0.2718
     53  CB        36.7550   51.0270    6.3190 C.3   184  ASN184      0.1169
     54  CG        36.4440   49.5700    6.6140 C.2   184  ASN184      0.2627
     55  OD1       36.4980   49.1340    7.7640 O.2   184  ASN184     -0.2716
     56  ND2       36.1160   48.8120    5.5760 N.am  184  ASN184     -0.0877
     57  N         33.6170   51.1430    7.1870 N.am  185  ASP185     -0.1960
     58  CA        32.6330   51.3060    8.2650 C.3   185  ASP185      0.1840
     59  C         33.2900   51.4600    9.6300 C.2   185  ASP185      0.2622
     60  O         32.7890   52.2130   10.4690 O.2   185  ASP185     -0.2715
     61  CB        31.5970   50.1670    8.2840 C.3   185  ASP185      0.1450
     62  CG        32.2290   48.7780    8.2950 C.2   185  ASP185      0.3671
     63  OD1       33.4490   48.6570    8.0210 O.co2 185  ASP185     -0.2456
     64  OD2       31.4840   47.8010    8.5690 O.co2 185  ASP185     -0.2456
     65  N         34.4080   50.7590    9.8580 N.am  186  THR186     -0.1951
     66  CA        35.1440   50.8950   11.1220 C.3   186  THR186      0.1897
     67  C         35.5330   52.3520   11.3130 C.2   186  THR186      0.2313
     68  O         35.2660   52.9410   12.3560 O.2   186  THR186     -0.2863
     69  CB        36.4190   50.0420   11.1550 C.3   186  THR186      0.1794
     70  OG1       37.2630   50.4000   10.0580 O.3   186  THR186     -0.2208
     71  CG2       36.0820   48.5820   11.0720 C.3   186  THR186      0.0378
     72  N         33.8940   47.0120   14.6160 N.3   205  ILE205     -0.1245
     73  CA        32.6580   46.4930   14.0410 C.3   205  ILE205      0.1561
     74  C         32.5290   45.0220   14.3640 C.2   205  ILE205      0.2260
     75  O         33.4710   44.2470   14.1510 O.2   205  ILE205     -0.2867
     76  CB        32.6110   46.6460   12.5100 C.3   205  ILE205      0.0252
     77  CG1       32.6870   48.1160   12.1030 C.3   205  ILE205      0.0019
     78  CG2       31.3360   46.0190   11.9580 C.3   205  ILE205      0.0019
     79  CD1       31.5540   48.9660   12.6420 C.3   205  ILE205      0.0001
     80  N         27.6920   41.7560   10.6220 N.3   208  THR208     -0.1203
     81  CA        27.8040   40.7180    9.5910 C.3   208  THR208      0.1994
     82  C         29.2330   40.2230    9.5790 C.2   208  THR208      0.2618
     83  O         29.4890   39.0260    9.6560 O.2   208  THR208     -0.2717
     84  CB        27.4280   41.2310    8.1890 C.3   208  THR208      0.1784
     85  OG1       26.0820   41.7290    8.1960 O.3   208  THR208     -0.2211
     86  CG2       27.5480   40.0970    7.1480 C.3   208  THR208      0.0376
     87  N         30.1600   41.1720    9.4820 N.am  209  GLY209     -0.1942
     88  CA        31.5820   40.8890    9.5340 C.3   209  GLY209      0.2014
     89  C         32.1840   41.6110   10.7150 C.2   209  GLY209      0.2640
     90  O         31.5020   42.3940   11.3890 O.2   209  GLY209     -0.2714
     91  N         33.4630   41.3590   10.9760 N.am  210  THR210     -0.1936
     92  CA        34.1500   42.0310   12.0610 C.3   210  THR210      0.2028
     93  C         35.4500   42.6300   11.5830 C.2   210  THR210      0.2642
     94  O         36.1100   42.0890   10.6930 O.2   210  THR210     -0.2714
     95  CB        34.4170   41.1060   13.2310 C.3   210  THR210      0.1808
     96  OG1       34.9710   41.8670   14.3080 O.3   210  THR210     -0.2208
     97  CG2       35.3800   39.9910   12.8420 C.3   210  THR210      0.0379
     98  N         35.8120   43.7570   12.1820 N.am  211  ASN211     -0.1971
     99  CA        36.9990   44.5000   11.7900 C.3   211  ASN211      0.1688
    100  C         37.2720   45.5890   12.8180 C.2   211  ASN211      0.2292
    101  O         36.4090   45.9100   13.6390 O.2   211  ASN211     -0.2864
    102  CB        36.7760   45.1250   10.3940 C.3   211  ASN211      0.1181
    103  CG        38.0290   45.7380    9.8050 C.2   211  ASN211      0.2629
    104  OD1       39.1260   45.5550   10.3160 O.2   211  ASN211     -0.2716
    105  ND2       37.8630   46.4730    8.7140 N.am  211  ASN211     -0.0877
    106  N         41.7370   45.4680    8.9250 N.3   236  GLU236     -0.1245
    107  CA        41.1040   44.3770    8.1860 C.3   236  GLU236      0.1567
    108  C         41.4540   43.0910    8.9080 C.2   236  GLU236      0.2260
    109  O         42.0450   42.1700    8.3310 O.2   236  GLU236     -0.2867
    110  CB        41.5480   44.3460    6.7050 C.3   236  GLU236      0.0388
    111  CG        40.8590   45.3870    5.8230 C.3   236  GLU236      0.1160
    112  CD        39.3400   45.1840    5.7350 C.2   236  GLU236      0.3649
    113  OE1       38.8960   44.0160    5.6390 O.co2 236  GLU236     -0.2457
    114  OE2       38.5950   46.1910    5.7610 O.co2 236  GLU236     -0.2457
    115  N         39.5240   40.7950    9.9150 N.3   238  GLY238     -0.1225
    116  CA        38.7010   39.6620    9.5560 C.3   238  GLY238      0.1811
    117  C         39.5710   38.5890    8.9150 C.2   238  GLY238      0.2280
    118  O         39.3860   37.3840    9.1600 O.2   238  GLY238     -0.2866
    119  N         39.1510   35.4900    5.1880 N.3   267  GLN267     -0.1245
    120  CA        38.4560   36.0210    6.3730 C.3   267  GLN267      0.1566
    121  C         38.2680   34.9640    7.4820 C.2   267  GLN267      0.2260
    122  O         37.2040   34.8540    8.0650 O.2   267  GLN267     -0.2867
    123  CB        37.0920   36.6080    5.9640 C.3   267  GLN267      0.0367
    124  CG        37.1620   37.6930    4.9010 C.3   267  GLN267      0.0905
    125  CD        37.7720   38.9890    5.4140 C.2   267  GLN267      0.2608
    126  OE1       38.8440   39.4100    4.9550 O.2   267  GLN267     -0.2717
    127  NE2       37.0950   39.6290    6.3720 N.am  267  GLN267     -0.0878
    128  N         37.3970   36.2890   11.0150 N.3   270  GLU270     -0.1245
    129  CA        36.0290   36.7960   10.9500 C.3   270  GLU270      0.1567
    130  C         35.0020   35.6680   11.0840 C.2   270  GLU270      0.2260
    131  O         33.9460   35.8400   11.6840 O.2   270  GLU270     -0.2867
    132  CB        35.8230   37.4820    9.6120 C.3   270  GLU270      0.0388
    133  CG        34.5150   38.1730    9.4400 C.3   270  GLU270      0.1160
    134  CD        34.5120   39.0450    8.2010 C.2   270  GLU270      0.3649
    135  OE1       34.3260   40.2650    8.3390 O.co2 270  GLU270     -0.2457
    136  OE2       34.7180   38.5100    7.0840 O.co2 270  GLU270     -0.2457
@<TRIPOS>BOND
     1    29    28    2
     2    33    34    1
     3    28    27    1
     4    22    24   ar
     5    22    20   ar
     6    24    25   ar
     7    19    20    1
     8    19    16    1
     9    20    21   ar
    10    25    23   ar
    11    21    23   ar
    12    36    35    2
    13    34    35    1
    14    34    37    1
    15    32    26    1
    16    32    31    1
    17    30    27    1
    18    30    31    1
    19    27    26    1
    20    26    17   am
    21    43    42    2
    22    35    40   am
    23    17    16    1
    24    17    18    2
    25    16    15    1
    26     1     2    1
    27    39    37    1
    28    42    41    1
    29    37    38    1
    30    15    11   am
    31     2     3    1
    32    40    41    1
    33     9    10    1
    34    41    44    1
    35    11    12    2
    36    11    10    1
    37    44    45    1
    38    10    13    1
    39     3     4    2
    40     3     5   am
    41    14    13    1
    42    47    48    1
    43    47    46    1
    44     8     7    2
    45   124   125    1
    46   124   123    1
    47   126   125    2
    48     5     6    1
    49   119   120    1
    50    49    50    1
    51    45    46    1
    52   125   127   am
    53    56    54   am
    54   113   112   ar
    55   112   114   ar
    56   112   111    1
    57   111   110    1
    58    50    53    1
    59    50    51    1
    60     7     6    1
    61   123   120    1
    62    53    54    1
    63   120   121    1
    64    54    55    2
    65   110   107    1
    66    51    57   am
    67    51    52    2
    68   136   134   ar
    69    86    84    1
    70    57    58    1
    71   121   122    2
    72    63    62   ar
    73   107   108    1
    74   107   106    1
    75    84    85    1
    76    84    81    1
    77   134   135   ar
    78   134   133    1
    79    58    61    1
    80    58    59    1
    81    61    62    1
    82    62    64   ar
    83   109   108    2
    84   105   103   am
    85   117   118    2
    86   117   116    1
    87   133   132    1
    88    87    88    1
    89    87    82   am
    90    88    89    1
    91   116   115    1
    92    82    81    1
    93    82    83    2
    94    81    80    1
    95   132   129    1
    96    59    65   am
    97    59    60    2
    98   103   104    2
    99   103   102    1
   100    65    66    1
   101    70    69    1
   102   102    99    1
   103    94    93    2
   104    89    91   am
   105    89    90    2
   106   129   128    1
   107   129   130    1
   108    91    92    1
   109    71    69    1
   110   130   131    2
   111    66    69    1
   112    66    67    1
   113    67    68    2
   114    93    92    1
   115    93    98   am
   116    99    98    1
   117    99   100    1
   118    78    76    1
   119    92    95    1
   120    77    76    1
   121    77    79    1
   122    76    73    1
   123   100   101    2
   124    97    95    1
   125    95    96    1
   126    73    74    1
   127    73    72    1
   128    75    74    2
