@<TRIPOS>MOLECULE
tmp/3hmcA00.pdb
 153 146 0 0 0
SMALL
GASTEIGER

@<TRIPOS>ATOM
      1  N         18.9460   40.9260   13.2180 N.3     8  ASP8       -0.1239
      2  CA        18.2490   40.6890   14.4750 C.3     8  ASP8        0.1674
      3  C         19.2970   40.9430   15.5520 C.2     8  ASP8        0.2266
      4  O         20.4670   40.5830   15.3900 O.2     8  ASP8       -0.2867
      5  CB        17.6420   39.2720   14.5860 C.3     8  ASP8        0.1410
      6  CG        18.6370   38.1630   14.3230 C.2     8  ASP8        0.3668
      7  OD1       18.8300   37.8120   13.1430 O.co2   8  ASP8       -0.2456
      8  OD2       19.2050   37.6260   15.2970 O.co2   8  ASP8       -0.2456
      9  N         20.0250   41.6620   20.0990 N.3    10  SER10      -0.1217
     10  CA        19.6320   41.4290   21.4820 C.3    10  SER10       0.1889
     11  C         20.6900   42.1360   22.3180 C.2    10  SER10       0.2288
     12  O         21.6050   42.7450   21.7690 O.2    10  SER10      -0.2866
     13  CB        19.6290   39.9350   21.8030 C.3    10  SER10       0.2089
     14  OG        20.9460   39.4180   21.8040 O.3    10  SER10      -0.2183
     15  N         23.1580   41.1010   23.6180 N.3    12  TRP12      -0.1241
     16  CA        24.5000   40.6180   23.3260 C.3    12  TRP12       0.1605
     17  C         25.2480   41.5100   22.3400 C.2    12  TRP12       0.2264
     18  O         26.4750   41.4790   22.2850 O.2    12  TRP12      -0.2867
     19  CB        24.4530   39.1790   22.8020 C.3    12  TRP12       0.0550
     20  CG        23.9960   38.1900   23.8350 C.ar   12  TRP12       0.0003
     21  CD1       22.8000   37.5320   23.8680 C.ar   12  TRP12       0.0946
     22  CD2       24.7200   37.7670   24.9980 C.ar   12  TRP12       0.0152
     23  NE1       22.7340   36.7250   24.9790 N.ar   12  TRP12      -0.2442
     24  CE2       23.8980   36.8500   25.6900 C.ar   12  TRP12       0.0810
     25  CE3       25.9830   38.0760   25.5220 C.ar   12  TRP12       0.0012
     26  CZ2       24.2980   36.2340   26.8820 C.ar   12  TRP12       0.0191
     27  CZ3       26.3820   37.4630   26.7110 C.ar   12  TRP12       0.0001
     28  CH2       25.5390   36.5520   27.3750 C.ar   12  TRP12       0.0015
     29  N         15.3030   41.6410   20.3830 N.3    31  ARG31      -0.1245
     30  CA        14.7920   40.7830   21.4440 C.3    31  ARG31       0.1563
     31  C         14.1870   41.5520   22.6110 C.2    31  ARG31       0.2260
     32  O         14.8210   42.4320   23.1900 O.2    31  ARG31      -0.2867
     33  CB        15.8910   39.8710   21.9840 C.3    31  ARG31       0.0307
     34  CG        15.3510   38.8440   22.9710 C.3    31  ARG31       0.0489
     35  CD        16.4200   37.9050   23.4900 C.3    31  ARG31       0.2205
     36  NE        17.3710   38.5880   24.3630 N.pl3  31  ARG31      -0.0865
     37  CZ        18.2680   37.9630   25.1180 C.cat  31  ARG31       0.5346
     38  NH1       18.3330   36.6390   25.1110 N.pl3  31  ARG31       0.1354
     39  NH2       19.1060   38.6620   25.8740 N.pl3  31  ARG31       0.1354
     40  N         13.5260   36.7970   27.1090 N.3    34  ASP34      -0.1239
     41  CA        13.9950   35.4260   26.9830 C.3    34  ASP34       0.1674
     42  C         13.0500   34.7170   27.9390 C.2    34  ASP34       0.2266
     43  O         13.3410   34.5680   29.1290 O.2    34  ASP34      -0.2867
     44  CB        15.4400   35.3040   27.4600 C.3    34  ASP34       0.1410
     45  CG        15.9490   33.8810   27.4140 C.2    34  ASP34       0.3668
     46  OD1       15.2250   33.0020   26.9000 O.co2  34  ASP34      -0.2456
     47  OD2       17.0800   33.6440   27.8870 O.co2  34  ASP34      -0.2456
     48  N         11.0750   40.2940   18.8650 N.3    60  TYR60      -0.1241
     49  CA        11.0910   38.8400   18.9460 C.3    60  TYR60       0.1605
     50  C         11.2720   38.4440   20.4040 C.2    60  TYR60       0.2264
     51  O         11.8140   39.2040   21.2120 O.2    60  TYR60      -0.2867
     52  CB        12.1550   38.2060   18.0230 C.3    60  TYR60       0.0534
     53  CG        13.5800   38.1230   18.5290 C.ar   60  TYR60      -0.0201
     54  CD1       13.9650   37.1500   19.4580 C.ar   60  TYR60      -0.0009
     55  CD2       14.5640   38.9710   18.0200 C.ar   60  TYR60      -0.0009
     56  CE1       15.2970   37.0230   19.8580 C.ar   60  TYR60       0.0417
     57  CE2       15.8930   38.8520   18.4130 C.ar   60  TYR60       0.0417
     58  CZ        16.2530   37.8770   19.3280 C.ar   60  TYR60       0.1957
     59  OH        17.5780   37.7540   19.6890 O.3    60  TYR60      -0.2866
     60  N         12.2600   34.9440   22.8540 N.3    62  PHE62      -0.1241
     61  CA        12.6700   33.5510   22.9210 C.3    62  PHE62       0.1605
     62  C         11.5810   32.8770   23.7470 C.2    62  PHE62       0.2264
     63  O         11.2250   33.3610   24.8250 O.2    62  PHE62      -0.2867
     64  CB        14.0350   33.4220   23.5990 C.3    62  PHE62       0.0534
     65  CG        14.6360   32.0510   23.4890 C.ar   62  PHE62      -0.0203
     66  CD1       14.2290   31.0270   24.3390 C.ar   62  PHE62      -0.0042
     67  CD2       15.5960   31.7780   22.5200 C.ar   62  PHE62      -0.0042
     68  CE1       14.7690   29.7480   24.2270 C.ar   62  PHE62      -0.0003
     69  CE2       16.1440   30.5000   22.3960 C.ar   62  PHE62      -0.0003
     70  CZ        15.7290   29.4840   23.2520 C.ar   62  PHE62      -0.0000
     71  N          9.8100   30.0320   26.0810 N.3    64  ARG64      -0.1245
     72  CA        10.1420   29.0720   27.1290 C.3    64  ARG64       0.1563
     73  C          8.8960   28.6000   27.8730 C.2    64  ARG64       0.2260
     74  O          8.9700   28.1830   29.0300 O.2    64  ARG64      -0.2867
     75  CB        11.1450   29.6930   28.1080 C.3    64  ARG64       0.0307
     76  CG        12.5270   29.8760   27.4960 C.3    64  ARG64       0.0489
     77  CD        13.5400   30.4410   28.4760 C.3    64  ARG64       0.2205
     78  NE        14.8800   30.4760   27.8900 N.pl3  64  ARG64      -0.0865
     79  CZ        15.6410   29.4050   27.6840 C.cat  64  ARG64       0.5346
     80  NH1       15.2080   28.1960   28.0210 N.pl3  64  ARG64       0.1354
     81  NH2       16.8380   29.5380   27.1270 N.pl3  64  ARG64       0.1354
     82  N         10.1820   33.0400   18.9410 N.3    92  ASP92      -0.1239
     83  CA        11.4920   32.4500   18.6740 C.3    92  ASP92       0.1674
     84  C         11.5930   31.1080   19.3980 C.2    92  ASP92       0.2266
     85  O         11.8080   31.0540   20.6090 O.2    92  ASP92      -0.2867
     86  CB        12.5590   33.4540   19.1340 C.3    92  ASP92       0.1410
     87  CG        13.9660   32.9020   19.1010 C.2    92  ASP92       0.3668
     88  OD1       14.2160   31.8730   18.4380 O.co2  92  ASP92      -0.2456
     89  OD2       14.8370   33.5270   19.7430 O.co2  92  ASP92      -0.2456
     90  N         13.5010   27.6150   19.8730 N.3    94  GLU94      -0.1245
     91  CA        14.7710   26.9170   19.6970 C.3    94  GLU94       0.1567
     92  C         15.0120   25.7440   20.6470 C.2    94  GLU94       0.2260
     93  O         15.8820   24.9110   20.3890 O.2    94  GLU94      -0.2867
     94  CB        15.9230   27.9150   19.8220 C.3    94  GLU94       0.0388
     95  CG        15.9110   28.9960   18.7500 C.3    94  GLU94       0.1160
     96  CD        17.0130   30.0200   18.9350 C.2    94  GLU94       0.3649
     97  OE1       18.1690   29.6170   19.1780 O.co2  94  GLU94      -0.2457
     98  OE2       16.7270   31.2300   18.8240 O.co2  94  GLU94      -0.2457
     99  N         10.1590   31.9380   14.3220 N.3   123  TYR123     -0.1241
    100  CA        11.5480   31.5790   14.0450 C.3   123  TYR123      0.1605
    101  C         11.7100   30.1770   14.6300 C.2   123  TYR123      0.2264
    102  O         11.3200   29.9420   15.7760 O.2   123  TYR123     -0.2867
    103  CB        12.5180   32.5380   14.7440 C.3   123  TYR123      0.0534
    104  CG        13.9810   32.1550   14.6020 C.ar  123  TYR123     -0.0201
    105  CD1       14.8030   32.7930   13.6710 C.ar  123  TYR123     -0.0009
    106  CD2       14.5470   31.1620   15.4070 C.ar  123  TYR123     -0.0009
    107  CE1       16.1490   32.4560   13.5470 C.ar  123  TYR123      0.0417
    108  CE2       15.8940   30.8160   15.2910 C.ar  123  TYR123      0.0417
    109  CZ        16.6870   31.4690   14.3620 C.ar  123  TYR123      0.1957
    110  OH        18.0220   31.1480   14.2580 O.3   123  TYR123     -0.2866
    111  N         10.6710   32.2260    9.6860 N.3   143  TRP143     -0.1241
    112  CA        12.0610   32.6700    9.7010 C.3   143  TRP143      0.1605
    113  C         12.9110   31.4900   10.1750 C.2   143  TRP143      0.2264
    114  O         12.7250   30.9820   11.2820 O.2   143  TRP143     -0.2867
    115  CB        12.0990   33.8670   10.6570 C.3   143  TRP143      0.0550
    116  CG        13.3910   34.5440   10.9450 C.ar  143  TRP143      0.0003
    117  CD1       14.5770   34.4230   10.2770 C.ar  143  TRP143      0.0946
    118  CD2       13.6050   35.5080   11.9780 C.ar  143  TRP143      0.0152
    119  NE1       15.5200   35.2600   10.8380 N.ar  143  TRP143     -0.2442
    120  CE2       14.9470   35.9370   11.8850 C.ar  143  TRP143      0.0810
    121  CE3       12.7880   36.0530   12.9790 C.ar  143  TRP143      0.0012
    122  CZ2       15.4920   36.8850   12.7580 C.ar  143  TRP143      0.0191
    123  CZ3       13.3290   36.9940   13.8470 C.ar  143  TRP143      0.0001
    124  CH2       14.6700   37.4000   13.7300 C.ar  143  TRP143      0.0015
    125  N         23.4370   28.4210    8.1030 N.3   147  TYR147     -0.1241
    126  CA        24.6570   29.1800    7.8580 C.3   147  TYR147      0.1605
    127  C         25.6730   28.5390    6.9180 C.2   147  TYR147      0.2264
    128  O         26.8310   28.9600    6.8920 O.2   147  TYR147     -0.2867
    129  CB        25.3370   29.4570    9.2040 C.3   147  TYR147      0.0534
    130  CG        24.4210   29.9760   10.3020 C.ar  147  TYR147     -0.0201
    131  CD1       24.7100   29.7210   11.6420 C.ar  147  TYR147     -0.0009
    132  CD2       23.2840   30.7330   10.0100 C.ar  147  TYR147     -0.0009
    133  CE1       23.8940   30.2010   12.6630 C.ar  147  TYR147      0.0417
    134  CE2       22.4600   31.2210   11.0260 C.ar  147  TYR147      0.0417
    135  CZ        22.7700   30.9510   12.3480 C.ar  147  TYR147      0.1957
    136  OH        21.9610   31.4210   13.3600 O.3   147  TYR147     -0.2866
    137  N         17.9510   33.3220    7.9020 N.3   160  GLN160     -0.1245
    138  CA        19.0660   33.8360    8.6920 C.3   160  GLN160      0.1566
    139  C         20.2460   33.0520    8.1320 C.2   160  GLN160      0.2260
    140  O         20.4530   31.8810    8.4690 O.2   160  GLN160     -0.2867
    141  CB        18.8590   33.5320   10.1690 C.3   160  GLN160      0.0367
    142  CG        19.8000   34.2800   11.0800 C.3   160  GLN160      0.0905
    143  CD        19.5390   33.9500   12.5210 C.2   160  GLN160      0.2608
    144  OE1       19.7220   32.8090   12.9470 O.2   160  GLN160     -0.2717
    145  NE2       19.0890   34.9380   13.2830 N.am  160  GLN160     -0.0878
    146  N         23.7940   38.7150   13.4250 N.3   174  ASP174     -0.1239
    147  CA        23.0170   37.7780   12.6200 C.3   174  ASP174      0.1674
    148  C         22.4640   38.5570   11.4280 C.2   174  ASP174      0.2266
    149  O         21.8620   39.6170   11.6120 O.2   174  ASP174     -0.2867
    150  CB        21.8130   37.2280   13.3990 C.3   174  ASP174      0.1410
    151  CG        22.1990   36.3320   14.5610 C.2   174  ASP174      0.3668
    152  OD1       23.3220   35.7870   14.5740 O.co2 174  ASP174     -0.2456
    153  OD2       21.3460   36.1490   15.4590 O.co2 174  ASP174     -0.2456
@<TRIPOS>BOND
     1   128   127    2
     2   127   126    1
     3   126   125    1
     4   126   129    1
     5   137   138    1
     6   139   140    2
     7   139   138    1
     8   138   141    1
     9   129   130    1
    10   111   112    1
    11   112   113    1
    12   112   115    1
    13   132   130   ar
    14   132   134   ar
    15   141   142    1
    16   113   114    2
    17   117   119   ar
    18   117   116   ar
    19   130   131   ar
    20   115   116    1
    21   119   120   ar
    22   116   118   ar
    23   134   135   ar
    24   142   143    1
    25   148   149    2
    26   148   147    1
    27   131   133   ar
    28   120   118   ar
    29   120   122   ar
    30   118   121   ar
    31   135   133   ar
    32   135   136    1
    33   143   144    2
    34   143   145   am
    35   147   150    1
    36   147   146    1
    37   122   124   ar
    38   121   123   ar
    39     7     6   ar
    40     1     2    1
    41   150   151    1
    42   107   105   ar
    43   107   109   ar
    44   105   104   ar
    45   124   123   ar
    46   100    99    1
    47   100   101    1
    48   100   103    1
    49   110   109    1
    50     6     5    1
    51     6     8   ar
    52   109   108   ar
    53     2     5    1
    54     2     3    1
    55   151   152   ar
    56   151   153   ar
    57   104   103    1
    58   104   106   ar
    59   101   102    2
    60   108   106   ar
    61     4     3    2
    62    55    57   ar
    63    55    53   ar
    64    52    53    1
    65    52    49    1
    66    57    58   ar
    67    88    87   ar
    68    53    54   ar
    69    83    82    1
    70    83    86    1
    71    83    84    1
    72    95    96    1
    73    95    94    1
    74    98    96   ar
    75    48    49    1
    76    96    97   ar
    77    49    50    1
    78    87    86    1
    79    87    89   ar
    80    58    59    1
    81    58    56   ar
    82    84    85    2
    83    54    56   ar
    84    91    94    1
    85    91    90    1
    86    91    92    1
    87     9    10    1
    88    29    30    1
    89    93    92    2
    90    50    51    2
    91    30    33    1
    92    30    31    1
    93    10    13    1
    94    10    11    1
    95    12    11    2
    96    13    14    1
    97    33    34    1
    98    18    17    2
    99    17    16    1
   100    69    67   ar
   101    69    70   ar
   102    67    65   ar
   103    31    32    2
   104    19    16    1
   105    19    20    1
   106    60    61    1
   107    61    64    1
   108    61    62    1
   109    34    35    1
   110    70    68   ar
   111    16    15    1
   112    65    64    1
   113    65    66   ar
   114    35    36    1
   115    62    63    2
   116    20    21   ar
   117    20    22   ar
   118    21    23   ar
   119    68    66   ar
   120    36    37    2
   121    23    24   ar
   122    22    25   ar
   123    22    24   ar
   124    38    37    1
   125    37    39    1
   126    25    27   ar
   127    24    26   ar
   128    71    72    1
   129    27    28   ar
   130    26    28   ar
   131    46    45   ar
   132    41    40    1
   133    41    44    1
   134    41    42    1
   135    81    79    1
   136    72    73    1
   137    72    75    1
   138    45    44    1
   139    45    47   ar
   140    76    75    1
   141    76    77    1
   142    79    78    2
   143    79    80    1
   144    73    74    2
   145    78    77    1
   146    42    43    2
