@<TRIPOS>MOLECULE
tmp/3hmiA00.pdb
 182 177 0 0 0
SMALL
GASTEIGER

@<TRIPOS>ATOM
      1  N        -34.1440    1.7000  -14.1260 N.3    16  LEU16      -0.1231
      2  CA       -33.6270    2.8840  -14.7920 C.3    16  LEU16       0.1693
      3  C        -32.4170    2.5250  -15.6250 C.2    16  LEU16       0.2593
      4  O        -31.6080    1.6870  -15.2280 O.2    16  LEU16      -0.2718
      5  CB       -33.1770    3.8960  -13.7400 C.3    16  LEU16       0.0284
      6  CG       -32.6130    5.2590  -14.1720 C.3    16  LEU16       0.0019
      7  CD1      -33.6330    6.0030  -15.0420 C.3    16  LEU16       0.0001
      8  CD2      -32.2650    6.0490  -12.8890 C.3    16  LEU16       0.0001
      9  N        -32.2960    3.1760  -16.7770 N.am   17  GLY17      -0.1942
     10  CA       -31.1610    2.9730  -17.6850 C.3    17  GLY17       0.2014
     11  C        -30.8120    1.5470  -17.9710 C.2    17  GLY17       0.2639
     12  O        -29.6510    1.1590  -18.0010 O.2    17  GLY17      -0.2714
     13  N        -31.8450    0.7510  -18.1670 N.am   18  GLY18      -0.1954
     14  CA       -31.6810   -0.6390  -18.5500 C.3    18  GLY18       0.1869
     15  C        -30.9130   -1.4760  -17.5450 C.2    18  GLY18       0.2309
     16  O        -30.3400   -2.5270  -17.8960 O.2    18  GLY18      -0.2863
     17  N        -28.2460   -0.3910  -15.5680 N.3    20  GLN20      -0.1231
     18  CA       -26.8200   -0.0760  -15.3980 C.3    20  GLN20       0.1698
     19  C        -26.5400    0.6030  -14.0450 C.2    20  GLN20       0.2592
     20  O        -25.3810    0.6980  -13.6300 O.2    20  GLN20      -0.2718
     21  CB       -26.3100    0.8090  -16.5410 C.3    20  GLN20       0.0381
     22  CG       -26.8330    2.2220  -16.4310 C.3    20  GLN20       0.0905
     23  CD       -26.5290    3.0590  -17.6290 C.2    20  GLN20       0.2608
     24  OE1      -25.4370    3.6170  -17.7500 O.2    20  GLN20      -0.2717
     25  NE2      -27.4770    3.1330  -18.5360 N.am   20  GLN20      -0.0878
     26  N        -27.5910    1.0750  -13.3670 N.am   21  TYR21      -0.1976
     27  CA       -27.4270    1.7000  -12.0630 C.3    21  TYR21       0.1639
     28  C        -27.8740    0.8220  -10.9010 C.2    21  TYR21       0.2290
     29  O        -28.0280    1.3190   -9.7850 O.2    21  TYR21      -0.2864
     30  CB       -28.1500    3.0410  -12.0090 C.3    21  TYR21       0.0560
     31  CG       -27.7230    4.0260  -13.0840 C.ar   21  TYR21      -0.0198
     32  CD1      -26.4250    4.5360  -13.1280 C.ar   21  TYR21      -0.0009
     33  CD2      -28.6290    4.4630  -14.0330 C.ar   21  TYR21      -0.0009
     34  CE1      -26.0180    5.4120  -14.1310 C.ar   21  TYR21       0.0417
     35  CE2      -28.2450    5.3580  -15.0340 C.ar   21  TYR21       0.0417
     36  CZ       -26.9580    5.8390  -15.0730 C.ar   21  TYR21       0.1957
     37  OH       -26.6170    6.7380  -16.0620 O.3    21  TYR21      -0.2866
     38  N        -32.2620    0.8210   -9.1630 N.3    24  VAL24      -0.1245
     39  CA       -32.9000    2.0760   -9.2810 C.3    24  VAL24       0.1561
     40  C        -33.9500    1.9400  -10.3860 C.2    24  VAL24       0.2260
     41  O        -33.6470    1.4250  -11.4800 O.2    24  VAL24      -0.2867
     42  CB       -31.9000    3.2030   -9.6300 C.3    24  VAL24       0.0252
     43  CG1      -32.5640    4.6580   -9.6480 C.3    24  VAL24       0.0019
     44  CG2      -30.6620    3.1550   -8.6770 C.3    24  VAL24       0.0019
     45  N        -37.1040    9.1640  -10.0040 N.3    37  ALA37      -0.1245
     46  CA       -36.2040    8.0060   -9.8710 C.3    37  ALA37       0.1562
     47  C        -36.2990    7.4610   -8.4540 C.2    37  ALA37       0.2260
     48  O        -36.3240    8.2000   -7.4700 O.2    37  ALA37      -0.2867
     49  CB       -34.6820    8.3950  -10.2490 C.3    37  ALA37       0.0290
     50  N        -28.3530   16.2220   -8.4630 N.3    67  VAL67      -0.1245
     51  CA       -29.6910   15.6520   -8.5590 C.3    67  VAL67       0.1561
     52  C        -30.4920   15.9210   -7.2580 C.2    67  VAL67       0.2260
     53  O        -30.0250   15.7120   -6.1400 O.2    67  VAL67      -0.2867
     54  CB       -29.6580   14.1300   -8.8470 C.3    67  VAL67       0.0252
     55  CG1      -31.0510   13.4970   -8.6730 C.3    67  VAL67       0.0019
     56  CG2      -29.1300   13.8190  -10.3030 C.3    67  VAL67       0.0019
     57  N        -35.7790   10.6090   -6.0410 N.3    83  THR83      -0.1203
     58  CA       -35.2320   11.8560   -6.5820 C.3    83  THR83       0.1994
     59  C        -35.9790   12.2590   -7.8350 C.2    83  THR83       0.2618
     60  O        -36.7510   11.5050   -8.4120 O.2    83  THR83      -0.2717
     61  CB       -33.7190   11.7230   -6.9800 C.3    83  THR83       0.1784
     62  OG1      -33.5900   10.8770   -8.1300 O.3    83  THR83      -0.2211
     63  CG2      -32.8660   11.1690   -5.8330 C.3    83  THR83       0.0376
     64  N        -35.7150   13.4760   -8.2960 N.am   84  GLU84      -0.1965
     65  CA       -36.1860   13.8940   -9.5940 C.3    84  GLU84       0.1733
     66  C        -35.6190   12.9490  -10.6870 C.2    84  GLU84       0.2616
     67  O        -34.5710   12.2900  -10.4870 O.2    84  GLU84      -0.2715
     68  CB       -35.7290   15.3340   -9.9070 C.3    84  GLU84       0.0429
     69  CG       -34.2360   15.5250   -9.9970 C.3    84  GLU84       0.1163
     70  CD       -33.8160   16.9590  -10.2950 C.2    84  GLU84       0.3649
     71  OE1      -34.6420   17.7200  -10.8110 O.co2  84  GLU84      -0.2457
     72  OE2      -32.6530   17.3010  -10.0180 O.co2  84  GLU84      -0.2457
     73  N        -36.3180   12.9100  -11.8130 N.am   85  TYR85      -0.1960
     74  CA       -35.9030   12.1090  -12.9710 C.3    85  TYR85       0.1771
     75  C        -35.4020   13.0630  -14.0480 C.2    85  TYR85       0.2619
     76  O        -36.0740   14.0630  -14.3530 O.2    85  TYR85      -0.2715
     77  CB       -37.1230   11.3430  -13.5060 C.3    85  TYR85       0.0574
     78  CG       -36.8800   10.6020  -14.7750 C.ar   85  TYR85      -0.0198
     79  CD1      -36.0600    9.4830  -14.8040 C.ar   85  TYR85      -0.0009
     80  CD2      -37.4730   11.0150  -15.9590 C.ar   85  TYR85      -0.0009
     81  CE1      -35.8510    8.7850  -15.9940 C.ar   85  TYR85       0.0417
     82  CE2      -37.2590   10.3480  -17.1460 C.ar   85  TYR85       0.0417
     83  CZ       -36.4650    9.2320  -17.1660 C.ar   85  TYR85       0.1957
     84  OH       -36.2940    8.5760  -18.3760 O.3    85  TYR85      -0.2866
     85  N        -34.2490   12.7460  -14.6240 N.am   86  MET86      -0.1964
     86  CA       -33.6530   13.5870  -15.6550 C.3    86  MET86       0.1722
     87  C        -34.0180   12.9500  -17.0060 C.2    86  MET86       0.2458
     88  O        -33.5970   11.8380  -17.3380 O.2    86  MET86      -0.2730
     89  CB       -32.1500   13.7410  -15.4040 C.3    86  MET86       0.0427
     90  CG       -31.8070   14.4280  -14.0570 C.3    86  MET86       0.0599
     91  SD       -32.2820   16.1690  -13.9500 S.3    86  MET86      -0.1393
     92  CE       -31.1510   16.8180  -15.2170 C.3    86  MET86       0.0692
     93  N        -34.8580   13.6400  -17.7900 N.am   87  PRO87      -0.2716
     94  CA       -35.4210   12.9270  -18.9370 C.3    87  PRO87       0.1536
     95  C        -34.4410   12.6380  -20.0840 C.2    87  PRO87       0.2599
     96  O        -34.6610   11.6990  -20.8350 O.2    87  PRO87      -0.2715
     97  CB       -36.5730   13.8480  -19.4190 C.3    87  PRO87       0.0310
     98  CG       -36.2610   15.1760  -18.8990 C.3    87  PRO87       0.0237
     99  CD       -35.5560   14.9240  -17.5560 C.3    87  PRO87       0.0939
    100  N        -33.3760   13.4070  -20.2220 N.am   88  TYR88      -0.1960
    101  CA       -32.4910   13.1820  -21.3650 C.3    88  TYR88       0.1771
    102  C        -31.3590   12.1740  -21.1460 C.2    88  TYR88       0.2620
    103  O        -30.5260   11.9780  -22.0470 O.2    88  TYR88      -0.2715
    104  CB       -31.9950   14.5090  -21.9120 C.3    88  TYR88       0.0574
    105  CG       -33.1250   15.4060  -22.3810 C.ar   88  TYR88      -0.0198
    106  CD1      -33.1390   16.7500  -22.0590 C.ar   88  TYR88      -0.0009
    107  CD2      -34.1890   14.8980  -23.1330 C.ar   88  TYR88      -0.0009
    108  CE1      -34.1520   17.5810  -22.4860 C.ar   88  TYR88       0.0417
    109  CE2      -35.2210   15.7200  -23.5550 C.ar   88  TYR88       0.0417
    110  CZ       -35.1910   17.0670  -23.2280 C.ar   88  TYR88       0.1957
    111  OH       -36.2050   17.8970  -23.6460 O.3    88  TYR88      -0.2866
    112  N        -31.3370   11.5000  -19.9960 N.am   89  GLY89      -0.1940
    113  CA       -30.4030   10.3590  -19.8110 C.3    89  GLY89       0.2014
    114  C        -29.0150   10.8620  -19.4150 C.2    89  GLY89       0.2638
    115  O        -28.8750   12.0010  -18.9750 O.2    89  GLY89      -0.2714
    116  N        -28.0060   10.0100  -19.5200 N.am   90  ASN90      -0.1972
    117  CA       -26.7010   10.3700  -18.9810 C.3    90  ASN90       0.1688
    118  C        -25.8330   11.1380  -19.9960 C.2    90  ASN90       0.2292
    119  O        -26.1330   11.1870  -21.1950 O.2    90  ASN90      -0.2864
    120  CB       -25.9940    9.1700  -18.3200 C.3    90  ASN90       0.1181
    121  CG       -25.4430    8.1220  -19.3240 C.2    90  ASN90       0.2629
    122  OD1      -24.7850    8.4680  -20.3360 O.2    90  ASN90      -0.2716
    123  ND2      -25.6820    6.8170  -19.0260 N.am   90  ASN90      -0.0877
    124  N        -23.8840    9.0050  -22.9990 N.3    93  ASP93      -0.1239
    125  CA       -24.7320    8.7510  -24.1630 C.3    93  ASP93       0.1674
    126  C        -25.0580   10.0490  -24.9000 C.2    93  ASP93       0.2266
    127  O        -25.0440   10.0990  -26.1380 O.2    93  ASP93      -0.2867
    128  CB       -26.0260    8.0760  -23.7390 C.3    93  ASP93       0.1410
    129  CG       -25.7970    6.7090  -23.1120 C.2    93  ASP93       0.3668
    130  OD1      -24.7820    6.0700  -23.4150 O.co2  93  ASP93      -0.2456
    131  OD2      -26.6550    6.2710  -22.3290 O.co2  93  ASP93      -0.2456
    132  N        -21.0180    8.7300  -17.2480 N.3   135  ARG135     -0.1231
    133  CA       -22.1640    7.8710  -17.0700 C.3   135  ARG135      0.1694
    134  C        -23.0000    8.2180  -15.8450 C.2   135  ARG135      0.2592
    135  O        -24.1710    7.8260  -15.7650 O.2   135  ARG135     -0.2718
    136  CB       -21.7130    6.4180  -16.9930 C.3   135  ARG135      0.0321
    137  CG       -20.7420    6.1160  -15.8660 C.3   135  ARG135      0.0489
    138  CD       -20.3590    4.6170  -15.7370 C.3   135  ARG135      0.2205
    139  NE       -19.4190    4.5720  -14.6340 N.pl3 135  ARG135     -0.0865
    140  CZ       -18.1150    4.8230  -14.7360 C.cat 135  ARG135      0.5346
    141  NH1      -17.5310    5.0270  -15.9290 N.pl3 135  ARG135      0.1354
    142  NH2      -17.3760    4.8620  -13.6460 N.pl3 135  ARG135      0.1354
    143  N        -22.4130    8.9610  -14.9060 N.am  136  ASN136     -0.1974
    144  CA       -23.0470    9.2950  -13.6370 C.3   136  ASN136      0.1688
    145  C        -23.3770   10.7680  -13.5670 C.2   136  ASN136      0.2292
    146  O        -23.6650   11.3180  -12.4830 O.2   136  ASN136     -0.2864
    147  CB       -22.1460    8.8180  -12.4830 C.3   136  ASN136      0.1181
    148  CG       -22.0260    7.3380  -12.4460 C.2   136  ASN136      0.2629
    149  OD1      -22.9600    6.6060  -12.8360 O.2   136  ASN136     -0.2716
    150  ND2      -20.8640    6.8410  -11.9800 N.am  136  ASN136     -0.0877
    151  N        -26.0180   13.5460  -15.5160 N.3   138  LEU138     -0.1245
    152  CA       -27.3100   13.5660  -16.2160 C.3   138  LEU138      0.1561
    153  C        -27.5930   14.8900  -16.8710 C.2   138  LEU138      0.2260
    154  O        -27.2060   15.9810  -16.3690 O.2   138  LEU138     -0.2867
    155  CB       -28.4760   13.2020  -15.2650 C.3   138  LEU138      0.0270
    156  CG       -28.4490   11.8410  -14.5470 C.3   138  LEU138      0.0019
    157  CD1      -28.2360   10.5940  -15.4750 C.3   138  LEU138      0.0001
    158  CD2      -27.4560   11.7900  -13.3820 C.3   138  LEU138      0.0001
    159  N        -25.1270   12.8370  -10.3600 N.3   148  ALA148     -0.1231
    160  CA       -25.8270   11.8430   -9.5080 C.3   148  ALA148      0.1694
    161  C        -25.2540   11.8670   -8.0950 C.2   148  ALA148      0.2592
    162  O        -24.0300   12.0220   -7.8850 O.2   148  ALA148     -0.2718
    163  CB       -25.6700   10.4330  -10.0910 C.3   148  ALA148      0.0304
    164  N        -26.1150   11.6990   -7.0950 N.am  149  ASP149     -0.1960
    165  CA       -25.6960   11.8780   -5.6930 C.3   149  ASP149      0.1840
    166  C        -26.2500   10.7990   -4.7730 C.2   149  ASP149      0.2622
    167  O        -26.3480   10.9790   -3.5490 O.2   149  ASP149     -0.2715
    168  CB       -25.9950   13.3130   -5.2000 C.3   149  ASP149      0.1450
    169  CG       -27.4250   13.7450   -5.4650 C.2   149  ASP149      0.3671
    170  OD1      -28.3430   12.9020   -5.6300 O.co2 149  ASP149     -0.2456
    171  OD2      -27.7070   14.9600   -5.5740 O.co2 149  ASP149     -0.2456
    172  N        -26.5440    9.6380   -5.3600 N.am  150  PHE150     -0.1974
    173  CA       -26.6060    8.4380   -4.5710 C.3   150  PHE150      0.1639
    174  C        -25.1410    8.0610   -4.2690 C.2   150  PHE150      0.2290
    175  O        -24.1950    8.4540   -4.9600 O.2   150  PHE150     -0.2864
    176  CB       -27.2770    7.2790   -5.3150 C.3   150  PHE150      0.0560
    177  CG       -28.7240    7.5340   -5.7000 C.ar  150  PHE150     -0.0200
    178  CD1      -29.7120    7.6850   -4.7360 C.ar  150  PHE150     -0.0042
    179  CD2      -29.1120    7.5220   -7.0400 C.ar  150  PHE150     -0.0042
    180  CE1      -31.0420    7.8800   -5.1220 C.ar  150  PHE150     -0.0003
    181  CE2      -30.4350    7.7360   -7.4200 C.ar  150  PHE150     -0.0003
    182  CZ       -31.4070    7.9220   -6.4570 C.ar  150  PHE150     -0.0000
@<TRIPOS>BOND
     1   127   126    2
     2   126   125    1
     3   125   128    1
     4   125   124    1
     5   128   129    1
     6   111   110    1
     7   109   110   ar
     8   109   107   ar
     9   130   129   ar
    10   110   108   ar
    11   107   105   ar
    12   129   131   ar
    13   108   106   ar
    14   105   106   ar
    15   105   104    1
    16   103   102    2
    17   104   101    1
    18   101   102    1
    19   101   100    1
    20   119   118    2
    21   102   112   am
    22    96    95    2
    23   122   121    2
    24   100    95   am
    25    95    94    1
    26   112   113    1
    27   118   117    1
    28   113   114    1
    29   116   114   am
    30   116   117    1
    31    97    94    1
    32    97    98    1
    33   114   115    2
    34   121   123   am
    35   121   120    1
    36   117   120    1
    37    94    93    1
    38    98    99    1
    39    14    13    1
    40    14    15    1
    41    25    23   am
    42    84    83    1
    43    13    11   am
    44    12    11    2
    45    11    10    1
    46    16    15    2
    47    93    99    1
    48    93    87   am
    49    24    23    2
    50    10     9    1
    51    23    22    1
    52    88    87    2
    53   132   133    1
    54    83    82   ar
    55    83    81   ar
    56    82    80   ar
    57   133   136    1
    58   133   134    1
    59    87    86    1
    60   136   137    1
    61   153   154    2
    62   153   152    1
    63     9     3   am
    64    21    22    1
    65    21    18    1
    66   152   151    1
    67   152   155    1
    68    37    36    1
    69    81    79   ar
    70    80    78   ar
    71   141   140    1
    72   137   138    1
    73   134   135    2
    74   134   143   am
    75   138   139    1
    76    86    89    1
    77    86    85    1
    78     3     4    2
    79     3     2    1
    80    17    18    1
    81   157   156    1
    82    89    90    1
    83    18    19    1
    84   155   156    1
    85    92    91    1
    86    36    35   ar
    87    36    34   ar
    88     7     6    1
    89    35    33   ar
    90   143   144    1
    91    79    78   ar
    92     2     1    1
    93     2     5    1
    94    78    77    1
    95   140   139    2
    96   140   142    1
    97    85    75   am
    98   156   158    1
    99    76    75    2
   100     6     5    1
   101     6     8    1
   102    34    32   ar
   103    90    91    1
   104    75    74    1
   105    19    20    2
   106    19    26   am
   107    33    31   ar
   108   144   145    1
   109   144   147    1
   110   145   146    2
   111    77    74    1
   112    26    27    1
   113    32    31   ar
   114    31    30    1
   115    74    73    1
   116   149   148    2
   117   147   148    1
   118   148   150   am
   119    27    30    1
   120    27    28    1
   121    73    66   am
   122    41    40    2
   123    28    29    2
   124    71    70   ar
   125    66    67    2
   126    66    65    1
   127    40    39    1
   128   159   160    1
   129    56    54    1
   130    70    72   ar
   131    70    69    1
   132    49    46    1
   133   163   160    1
   134    45    46    1
   135    69    68    1
   136    68    65    1
   137    46    47    1
   138    43    42    1
   139    42    39    1
   140    42    44    1
   141    65    64    1
   142   160   161    1
   143    39    38    1
   144    54    55    1
   145    54    51    1
   146    51    50    1
   147    51    52    1
   148    47    48    2
   149    60    59    2
   150    64    59   am
   151    62    61    1
   152   161   162    2
   153   161   164   am
   154    59    58    1
   155   181   179   ar
   156   181   182   ar
   157    52    53    2
   158   164   165    1
   159   179   177   ar
   160    61    58    1
   161    61    63    1
   162    58    57    1
   163   182   180   ar
   164   177   176    1
   165   177   178   ar
   166   165   168    1
   167   165   166    1
   168   170   169   ar
   169   171   169   ar
   170   169   168    1
   171   172   166   am
   172   172   173    1
   173   176   173    1
   174   180   178   ar
   175   175   174    2
   176   166   167    2
   177   173   174    1
