@<TRIPOS>MOLECULE
tmp/3hmmA00.pdb
 197 187 0 0 0
SMALL
GASTEIGER

@<TRIPOS>ATOM
      1  N         24.1090   63.8440    3.4700 N.3    11  ILE11      -0.1245
      2  CA        24.0260   65.2820    3.7290 C.3    11  ILE11       0.1561
      3  C         23.5410   65.6840    5.1150 C.2    11  ILE11       0.2260
      4  O         23.2240   66.8560    5.3470 O.2    11  ILE11      -0.2867
      5  CB        23.1270   65.9870    2.6890 C.3    11  ILE11       0.0252
      6  CG1       21.6890   65.4820    2.8090 C.3    11  ILE11       0.0019
      7  CG2       23.6710   65.7550    1.2920 C.3    11  ILE11       0.0019
      8  CD1       20.7140   66.1850    1.8870 C.3    11  ILE11       0.0001
      9  N         22.1280   64.1890    9.4310 N.3    13  LYS13      -0.1231
     10  CA        21.4790   63.2290   10.3140 C.3    13  LYS13       0.1693
     11  C         20.2830   63.8710   11.0000 C.2    13  LYS13       0.2592
     12  O         20.3620   65.0110   11.4630 O.2    13  LYS13      -0.2718
     13  CB        22.4700   62.7440   11.3720 C.3    13  LYS13       0.0285
     14  CG        22.9490   61.3170   11.1690 C.3    13  LYS13       0.0035
     15  CD        21.9240   60.3160   11.6910 C.3    13  LYS13       0.0206
     16  CE        21.7960   60.3980   13.2060 C.3    13  LYS13       0.1093
     17  NZ        20.7010   59.5310   13.7170 N.3    13  LYS13      -0.1314
     18  N         19.1720   63.1410   11.0540 N.am   14  GLY14      -0.1957
     19  CA        17.9860   63.6630   11.7090 C.3    14  GLY14       0.1869
     20  C         17.9730   63.1770   13.1440 C.2    14  GLY14       0.2309
     21  O         18.9140   62.5090   13.5680 O.2    14  GLY14      -0.2863
     22  N         20.0630   61.5030    6.4620 N.3    19  VAL19      -0.1245
     23  CA        19.5630   62.2190    5.3020 C.3    19  VAL19       0.1561
     24  C         20.5580   62.1450    4.1510 C.2    19  VAL19       0.2260
     25  O         21.7620   62.3440    4.3310 O.2    19  VAL19      -0.2867
     26  CB        19.2870   63.6920    5.6410 C.3    19  VAL19       0.0252
     27  CG1       18.6130   64.3790    4.4560 C.3    19  VAL19       0.0019
     28  CG2       18.4180   63.7730    6.8760 C.3    19  VAL19       0.0019
     29  N         15.6440   64.6130   -1.6700 N.3    30  ALA30      -0.1231
     30  CA        16.2110   64.3370   -0.3580 C.3    30  ALA30       0.1694
     31  C         15.5790   63.0540    0.1540 C.2    30  ALA30       0.2592
     32  O         14.3850   62.8150   -0.0350 O.2    30  ALA30      -0.2718
     33  CB        15.9170   65.4840    0.6030 C.3    30  ALA30       0.0304
     34  N         16.3900   62.2330    0.8060 N.am   31  VAL31      -0.1966
     35  CA        15.9190   60.9630    1.3430 C.3    31  VAL31       0.1727
     36  C         16.3650   60.8000    2.7910 C.2    31  VAL31       0.2616
     37  O         17.5480   60.9690    3.1030 O.2    31  VAL31      -0.2715
     38  CB        16.4910   59.7810    0.5220 C.3    31  VAL31       0.0290
     39  CG1       15.8940   58.4740    1.0010 C.3    31  VAL31       0.0023
     40  CG2       16.2120   59.9870   -0.9640 C.3    31  VAL31       0.0023
     41  N         15.4210   60.4960    3.6770 N.am   32  LYS32      -0.1977
     42  CA        15.7540   60.2650    5.0720 C.3    32  LYS32       0.1596
     43  C         15.4860   58.7690    5.2780 C.2    32  LYS32       0.2287
     44  O         14.3780   58.2790    5.0350 O.2    32  LYS32      -0.2864
     45  CB        14.8840   61.1460    6.0010 C.3    32  LYS32       0.0298
     46  CG        15.3110   61.0800    7.4720 C.3    32  LYS32       0.0038
     47  CD        14.9790   62.3560    8.2590 C.3    32  LYS32       0.0206
     48  CE        13.5080   62.6660    8.3060 C.3    32  LYS32       0.1093
     49  NZ        13.3120   63.9160    9.1070 N.3    32  LYS32      -0.1314
     50  N          6.3030   60.5370   11.4570 N.3    45  GLU45      -0.1245
     51  CA         6.6540   61.6500   10.5690 C.3    45  GLU45       0.1567
     52  C          5.9040   61.5100    9.2320 C.2    45  GLU45       0.2260
     53  O          5.3840   62.5000    8.7030 O.2    45  GLU45      -0.2867
     54  CB         8.1790   61.7280   10.3700 C.3    45  GLU45       0.0388
     55  CG         8.6180   62.9980    9.6350 C.3    45  GLU45       0.1160
     56  CD        10.0940   63.3050    9.7720 C.2    45  GLU45       0.3649
     57  OE1       10.5280   64.3070    9.1730 O.co2  45  GLU45      -0.2457
     58  OE2       10.8190   62.5670   10.4680 O.co2  45  GLU45      -0.2457
     59  N          3.3180   64.4140    7.6730 N.3    49  TYR49      -0.1241
     60  CA         3.4340   64.9760    6.3280 C.3    49  TYR49       0.1605
     61  C          2.2480   64.6490    5.4260 C.2    49  TYR49       0.2264
     62  O          1.9700   65.3740    4.4760 O.2    49  TYR49      -0.2867
     63  CB         4.7350   64.5300    5.6590 C.3    49  TYR49       0.0534
     64  CG         5.9090   65.4110    6.0130 C.ar   49  TYR49      -0.0201
     65  CD1        6.8200   65.0310    6.9910 C.ar   49  TYR49      -0.0009
     66  CD2        6.1210   66.6220    5.3410 C.ar   49  TYR49      -0.0009
     67  CE1        7.9290   65.8290    7.2930 C.ar   49  TYR49       0.0417
     68  CE2        7.2210   67.4230    5.6360 C.ar   49  TYR49       0.0417
     69  CZ         8.1200   67.0190    6.6060 C.ar   49  TYR49       0.1957
     70  OH         9.2330   67.7780    6.8570 O.3    49  TYR49      -0.2866
     71  N          8.5380   71.9040    4.0890 N.3    60  LEU60      -0.1245
     72  CA         9.2790   71.0010    3.2040 C.3    60  LEU60       0.1561
     73  C          8.3020   70.1600    2.3860 C.2    60  LEU60       0.2260
     74  O          7.3890   69.5400    2.9330 O.2    60  LEU60      -0.2867
     75  CB        10.2100   70.0770    4.0080 C.3    60  LEU60       0.0270
     76  CG        10.9630   69.0270    3.1740 C.3    60  LEU60       0.0019
     77  CD1       11.8780   69.7070    2.1670 C.3    60  LEU60       0.0001
     78  CD2       11.7920   68.1050    4.0890 C.3    60  LEU60       0.0001
     79  N          6.8230   67.2000    0.8080 N.3    62  PHE62      -0.1241
     80  CA         6.8570   65.7490    0.9730 C.3    62  PHE62       0.1605
     81  C          6.5160   65.0200   -0.3260 C.2    62  PHE62       0.2264
     82  O          5.5590   65.3760   -1.0120 O.2    62  PHE62      -0.2867
     83  CB         5.8600   65.3510    2.0630 C.3    62  PHE62       0.0534
     84  CG         5.8860   63.8910    2.4120 C.ar   62  PHE62      -0.0203
     85  CD1        6.9370   63.3600    3.1420 C.ar   62  PHE62      -0.0042
     86  CD2        4.8490   63.0570    2.0120 C.ar   62  PHE62      -0.0042
     87  CE1        6.9570   62.0060    3.4790 C.ar   62  PHE62      -0.0003
     88  CE2        4.8590   61.7020    2.3430 C.ar   62  PHE62      -0.0003
     89  CZ         5.9150   61.1790    3.0760 C.ar   62  PHE62      -0.0000
     90  N         11.7240   58.1630    3.6420 N.3    78  LEU78      -0.1231
     91  CA        10.8540   59.3310    3.5030 C.3    78  LEU78       0.1693
     92  C         11.6130   60.0950    2.4170 C.2    78  LEU78       0.2592
     93  O         12.8450   60.1910    2.4660 O.2    78  LEU78      -0.2718
     94  CB        10.7700   60.1780    4.7820 C.3    78  LEU78       0.0284
     95  CG        10.1090   59.4910    5.9800 C.3    78  LEU78       0.0019
     96  CD1       10.0890   60.4590    7.1630 C.3    78  LEU78       0.0001
     97  CD2        8.6930   59.0330    5.6350 C.3    78  LEU78       0.0001
     98  N         10.8870   60.5980    1.4230 N.am   79  VAL79      -0.1966
     99  CA        11.4860   61.3280    0.3080 C.3    79  VAL79       0.1727
    100  C         10.8330   62.6960    0.2130 C.2    79  VAL79       0.2617
    101  O          9.6200   62.8130    0.3690 O.2    79  VAL79      -0.2715
    102  CB        11.2240   60.6190   -1.0360 C.3    79  VAL79       0.0290
    103  CG1       11.9760   61.3410   -2.1520 C.3    79  VAL79       0.0023
    104  CG2       11.6480   59.1570   -0.9560 C.3    79  VAL79       0.0023
    105  N         11.6370   63.7160   -0.0700 N.am   80  SER80      -0.1936
    106  CA        11.1370   65.0840   -0.1830 C.3    80  SER80       0.2055
    107  C         11.9050   65.8630   -1.2300 C.2    80  SER80       0.2643
    108  O         12.8430   65.3550   -1.8440 O.2    80  SER80      -0.2714
    109  CB        11.3370   65.8240    1.1310 C.3    80  SER80       0.2130
    110  OG        12.7200   66.0960    1.3270 O.3    80  SER80      -0.2179
    111  N         11.5220   67.1270   -1.3920 N.am   81  ASP81      -0.1957
    112  CA        12.2050   68.0350   -2.3050 C.3    81  ASP81       0.1840
    113  C         13.6140   68.1820   -1.7410 C.2    81  ASP81       0.2622
    114  O         13.8360   68.0190   -0.5370 O.2    81  ASP81      -0.2715
    115  CB        11.5850   69.4400   -2.2670 C.3    81  ASP81       0.1450
    116  CG        10.1910   69.5050   -2.8550 C.2    81  ASP81       0.3671
    117  OD1        9.4750   70.4850   -2.5340 O.co2  81  ASP81      -0.2456
    118  OD2        9.8060   68.6130   -3.6410 O.co2  81  ASP81      -0.2456
    119  N         14.5570   68.5310   -2.6090 N.am   82  TYR82      -0.1960
    120  CA        15.9420   68.7460   -2.2080 C.3    82  TYR82       0.1771
    121  C         16.2850   70.2350   -2.3140 C.2    82  TYR82       0.2619
    122  O         15.9520   70.8740   -3.3120 O.2    82  TYR82      -0.2715
    123  CB        16.8820   67.9500   -3.1120 C.3    82  TYR82       0.0574
    124  CG        18.3380   68.2630   -2.8690 C.ar   82  TYR82      -0.0198
    125  CD1       19.0750   69.0020   -3.7990 C.ar   82  TYR82      -0.0009
    126  CD2       18.9710   67.8570   -1.6960 C.ar   82  TYR82      -0.0009
    127  CE1       20.4040   69.3290   -3.5660 C.ar   82  TYR82       0.0417
    128  CE2       20.3070   68.1820   -1.4510 C.ar   82  TYR82       0.0417
    129  CZ        21.0100   68.9190   -2.3980 C.ar   82  TYR82       0.1957
    130  OH        22.3240   69.2550   -2.1890 O.3    82  TYR82      -0.2866
    131  N         16.9360   70.7830   -1.2880 N.am   83  HIS83      -0.1973
    132  CA        17.3360   72.1970   -1.2950 C.3    83  HIS83       0.1656
    133  C         18.8390   72.2800   -1.0720 C.2    83  HIS83       0.2291
    134  O         19.3230   72.0150    0.0210 O.2    83  HIS83      -0.2864
    135  CB        16.5850   72.9710   -0.2120 C.3    83  HIS83       0.0771
    136  CG        15.1030   72.9750   -0.4110 C.ar   83  HIS83       0.0820
    137  ND1       14.4970   73.5890   -1.4880 N.ar   83  HIS83      -0.2267
    138  CD2       14.1120   72.3590    0.2780 C.ar   83  HIS83       0.1154
    139  CE1       13.1990   73.3430   -1.4560 C.ar   83  HIS83       0.1986
    140  NE2       12.9400   72.5990   -0.3930 N.ar   83  HIS83      -0.2212
    141  N         20.5860   73.6520    2.0770 N.3    86  GLY86      -0.1210
    142  CA        20.5320   72.9110    3.3200 C.3    86  GLY86       0.1956
    143  C         19.8360   73.7410    4.3840 C.2    86  GLY86       0.2612
    144  O         19.0350   74.6250    4.0660 O.2    86  GLY86      -0.2717
    145  N         20.1560   73.4740    5.6470 N.am   87  SER87      -0.1952
    146  CA        19.5420   74.1720    6.7760 C.3    87  SER87       0.1924
    147  C         19.8510   75.6600    6.8620 C.2    87  SER87       0.2314
    148  O         20.8360   76.1410    6.2990 O.2    87  SER87      -0.2863
    149  CB        19.9810   73.5210    8.0870 C.3    87  SER87       0.2116
    150  OG        21.3770   73.7070    8.2910 O.3    87  SER87      -0.2180
    151  N         13.9560   74.9610   15.1340 N.3   135  LYS135     -0.1245
    152  CA        15.3150   75.4690   15.3150 C.3   135  LYS135      0.1561
    153  C         15.9490   75.7810   13.9580 C.2   135  LYS135      0.2260
    154  O         15.4250   75.3930   12.9130 O.2   135  LYS135     -0.2867
    155  CB        16.1760   74.4530   16.0820 C.3   135  LYS135      0.0271
    156  CG        16.2380   73.0720   15.4510 C.3   135  LYS135      0.0035
    157  CD        17.1280   72.1360   16.2640 C.3   135  LYS135      0.0206
    158  CE        17.1230   70.7200   15.6870 C.3   135  LYS135      0.1093
    159  NZ        17.9430   69.7860   16.5120 N.3   135  LYS135     -0.1314
    160  N         18.4860   74.5070   12.6290 N.3   137  LYS137     -0.1231
    161  CA        18.9670   73.2950   11.9720 C.3   137  LYS137      0.1693
    162  C         17.9100   72.5030   11.2140 C.2   137  LYS137      0.2592
    163  O         18.2530   71.6460   10.3890 O.2   137  LYS137     -0.2718
    164  CB        19.6630   72.3880   12.9850 C.3   137  LYS137      0.0285
    165  CG        21.0210   72.9160   13.4200 C.3   137  LYS137      0.0035
    166  CD        21.6480   72.0130   14.4620 C.3   137  LYS137      0.0206
    167  CE        22.9690   72.5810   14.9540 C.3   137  LYS137      0.1093
    168  NZ        23.4710   71.8280   16.1450 N.3   137  LYS137     -0.1314
    169  N         16.6310   72.7540   11.4890 N.am  138  ASN138     -0.1974
    170  CA        15.6000   72.0340   10.7480 C.3   138  ASN138      0.1688
    171  C         14.6700   72.9250    9.9440 C.2   138  ASN138      0.2292
    172  O         13.5320   72.5690    9.6350 O.2   138  ASN138     -0.2864
    173  CB        14.8210   71.0590   11.6460 C.3   138  ASN138      0.1181
    174  CG        14.1710   71.7190   12.8400 C.2   138  ASN138      0.2629
    175  OD1       13.8350   71.0350   13.8140 O.2   138  ASN138     -0.2716
    176  ND2       13.9740   73.0260   12.7780 N.am  138  ASN138     -0.0877
    177  N         14.8990   74.9550    6.3690 N.3   140  LEU140     -0.1245
    178  CA        15.7390   74.9010    5.1720 C.3   140  LEU140      0.1561
    179  C         15.5930   76.1420    4.3060 C.2   140  LEU140      0.2260
    180  O         14.5260   76.7370    4.2560 O.2   140  LEU140     -0.2867
    181  CB        15.3650   73.6730    4.3350 C.3   140  LEU140      0.0270
    182  CG        15.2880   72.3380    5.0750 C.3   140  LEU140      0.0019
    183  CD1       14.6490   71.3010    4.1730 C.3   140  LEU140      0.0001
    184  CD2       16.6750   71.9120    5.5100 C.3   140  LEU140      0.0001
    185  N         11.0500   71.8710    8.2050 N.3   150  ALA150     -0.1231
    186  CA        11.1400   70.4230    8.0600 C.3   150  ALA150      0.1694
    187  C         11.1410   69.7620    9.4290 C.2   150  ALA150      0.2592
    188  O         10.8560   70.4020   10.4380 O.2   150  ALA150     -0.2718
    189  CB        12.4170   70.0490    7.3050 C.3   150  ALA150      0.0304
    190  N         11.4480   68.4680    9.4480 N.am  151  ASP151     -0.1974
    191  CA        11.5320   67.7010   10.6880 C.3   151  ASP151      0.1709
    192  C         10.2480   67.8300   11.5060 C.2   151  ASP151      0.2293
    193  O         10.2500   68.3880   12.6050 O.2   151  ASP151     -0.2864
    194  CB        12.7430   68.2010   11.4880 C.3   151  ASP151      0.1436
    195  CG        13.2690   67.1830   12.4800 C.2   151  ASP151      0.3671
    196  OD1       12.9640   65.9780   12.3650 O.co2 151  ASP151     -0.2456
    197  OD2       14.0240   67.6060   13.3820 O.co2 151  ASP151     -0.2456
@<TRIPOS>BOND
     1   125   127   ar
     2   125   124   ar
     3   118   116   ar
     4   127   129   ar
     5   122   121    2
     6   123   124    1
     7   123   120    1
     8   124   126   ar
     9   116   117   ar
    10   116   115    1
    11   119   120    1
    12   119   113   am
    13   129   130    1
    14   129   128   ar
    15   121   120    1
    16   121   131   am
    17   112   115    1
    18   112   113    1
    19   112   111    1
    20   103   102    1
    21   108   107    2
    22   113   114    2
    23   126   128   ar
    24    29    30    1
    25   137   139   ar
    26   137   136   ar
    27   139   140   ar
    28   111   107   am
    29   132   131    1
    30   132   133    1
    31   132   135    1
    32   107   106    1
    33   133   134    2
    34   102   104    1
    35   102    99    1
    36    82    81    2
    37    40    38    1
    38   136   135    1
    39   136   138   ar
    40   140   138   ar
    41    30    31    1
    42    30    33    1
    43    81    80    1
    44   106   105    1
    45   106   109    1
    46   105   100   am
    47    32    31    2
    48    31    34   am
    49   100    99    1
    50   100   101    2
    51    99    98    1
    52    38    39    1
    53    38    35    1
    54    34    35    1
    55    79    80    1
    56    80    83    1
    57   109   110    1
    58     7     5    1
    59    35    36    1
    60    98    92   am
    61     8     6    1
    62    86    88   ar
    63    86    84   ar
    64    83    84    1
    65   141   142    1
    66    77    76    1
    67    88    89   ar
    68    73    74    2
    69    73    72    1
    70    84    85   ar
    71    92    93    2
    72    92    91    1
    73     5     6    1
    74     5     2    1
    75    36    37    2
    76    36    41   am
    77    89    87   ar
    78    85    87   ar
    79    76    75    1
    80    76    78    1
    81    72    75    1
    82    72    71    1
    83   142   143    1
    84     1     2    1
    85    91    90    1
    86    91    94    1
    87    41    42    1
    88     2     3    1
    89   144   143    2
    90    24    25    2
    91    24    23    1
    92   183   182    1
    93   180   179    2
    94   179   178    1
    95   181   182    1
    96   181   178    1
    97   143   145   am
    98    27    26    1
    99    62    61    2
   100    94    95    1
   101    44    43    2
   102    42    43    1
   103    42    45    1
   104   182   184    1
   105     3     4    2
   106   178   177    1
   107    23    26    1
   108    23    22    1
   109    66    68   ar
   110    66    64   ar
   111    61    60    1
   112    97    95    1
   113    68    69   ar
   114    26    28    1
   115   145   146    1
   116    63    64    1
   117    63    60    1
   118    95    96    1
   119    45    46    1
   120    64    65   ar
   121   148   147    2
   122    60    59    1
   123    69    70    1
   124    69    67   ar
   125   146   147    1
   126   146   149    1
   127    65    67   ar
   128   189   186    1
   129    46    47    1
   130   186   185    1
   131   186   187    1
   132   149   150    1
   133    47    48    1
   134    48    49    1
   135    53    52    2
   136    57    56   ar
   137    52    51    1
   138   187   190   am
   139   187   188    2
   140     9    10    1
   141   190   191    1
   142    55    56    1
   143    55    54    1
   144   172   171    2
   145    56    58   ar
   146   171   170    1
   147    10    11    1
   148    10    13    1
   149    54    51    1
   150   163   162    2
   151    51    50    1
   152   191   194    1
   153   191   192    1
   154   170   169    1
   155   170   173    1
   156    11    18   am
   157    11    12    2
   158    18    19    1
   159    14    13    1
   160    14    15    1
   161   162   169   am
   162   162   161    1
   163   194   195    1
   164   192   193    2
   165   173   174    1
   166    15    16    1
   167    19    20    1
   168   161   160    1
   169   161   164    1
   170   196   195   ar
   171   195   197   ar
   172   176   174   am
   173   174   175    2
   174   154   153    2
   175   164   165    1
   176    20    21    2
   177    16    17    1
   178   165   166    1
   179   153   152    1
   180   166   167    1
   181   167   168    1
   182   151   152    1
   183   152   155    1
   184   156   155    1
   185   156   157    1
   186   158   157    1
   187   158   159    1
