@<TRIPOS>MOLECULE
tmp/3hmnA00.pdb
 138 127 0 0 0
SMALL
GASTEIGER

@<TRIPOS>ATOM
      1  N          5.5100  -38.8080   -6.2930 N.3    16  ILE16      -0.1231
      2  CA         4.2980  -39.3170   -6.9210 C.3    16  ILE16       0.1692
      3  C          4.7170  -40.3620   -7.9460 C.2    16  ILE16       0.2593
      4  O          5.5550  -40.0860   -8.8050 O.2    16  ILE16      -0.2718
      5  CB         3.4960  -38.2090   -7.6340 C.3    16  ILE16       0.0266
      6  CG1        3.2990  -36.9930   -6.7260 C.3    16  ILE16       0.0019
      7  CG2        2.1400  -38.7500   -8.0800 C.3    16  ILE16       0.0020
      8  CD1        2.4660  -35.8960   -7.3530 C.3    16  ILE16       0.0001
      9  N          4.1320  -41.5550   -7.8550 N.am   17  GLY17      -0.1942
     10  CA         4.5550  -42.6970   -8.6740 C.3    17  GLY17       0.2014
     11  C          5.9750  -43.1030   -8.3140 C.2    17  GLY17       0.2640
     12  O          6.3780  -42.9960   -7.1500 O.2    17  GLY17      -0.2714
     13  N          6.7320  -43.5670   -9.3060 N.am   18  SER18      -0.1935
     14  CA         8.1830  -43.7650   -9.1510 C.3    18  SER18       0.2055
     15  C          8.8450  -44.0470  -10.4990 C.2    18  SER18       0.2643
     16  O          8.9380  -45.2010  -10.9210 O.2    18  SER18      -0.2714
     17  CB         8.5010  -44.9010   -8.1690 C.3    18  SER18       0.2130
     18  OG         7.9000  -46.1110   -8.5890 O.3    18  SER18      -0.2179
     19  N          9.2990  -42.9890  -11.1690 N.am   19  GLY19      -0.1954
     20  CA         9.9110  -43.1210  -12.4930 C.3    19  GLY19       0.1869
     21  C         11.4060  -43.3810  -12.4350 C.2    19  GLY19       0.2309
     22  O         12.0150  -43.3530  -11.3580 O.2    19  GLY19      -0.2863
     23  N         13.2940  -39.8980  -14.7020 N.3    22  SER22      -0.1202
     24  CA        12.2980  -38.8460  -14.5400 C.3    22  SER22       0.2020
     25  C         11.5150  -39.1180  -13.2550 C.2    22  SER22       0.2619
     26  O         11.1430  -40.2590  -12.9860 O.2    22  SER22      -0.2717
     27  CB        11.3550  -38.8080  -15.7370 C.3    22  SER22       0.2103
     28  OG        10.5140  -37.6760  -15.6550 O.3    22  SER22      -0.2182
     29  N         11.2830  -38.0800  -12.4550 N.am   23  LYS23      -0.1965
     30  CA        10.5970  -38.2350  -11.1710 C.3    23  LYS23       0.1728
     31  C          9.7090  -37.0360  -10.8800 C.2    23  LYS23       0.2616
     32  O         10.1270  -35.9000  -11.0670 O.2    23  LYS23      -0.2715
     33  CB        11.6120  -38.3720  -10.0360 C.3    23  LYS23       0.0311
     34  CG        12.6410  -39.4810  -10.2180 C.3    23  LYS23       0.0038
     35  CD        13.5220  -39.6550   -8.9700 C.3    23  LYS23       0.0206
     36  CE        14.4200  -38.4370   -8.7140 C.3    23  LYS23       0.1093
     37  NZ        15.2530  -38.5720   -7.4780 N.3    23  LYS23      -0.1314
     38  N          8.4900  -37.2930  -10.4090 N.am   24  VAL24      -0.1977
     39  CA         7.5860  -36.2220   -9.9880 C.3    24  VAL24       0.1596
     40  C          7.5140  -36.1890   -8.4640 C.2    24  VAL24       0.2287
     41  O          7.3990  -37.2250   -7.8230 O.2    24  VAL24      -0.2864
     42  CB         6.1750  -36.3960  -10.5740 C.3    24  VAL24       0.0276
     43  CG1        5.3320  -35.1730  -10.2770 C.3    24  VAL24       0.0022
     44  CG2        6.2470  -36.6350  -12.0750 C.3    24  VAL24       0.0022
     45  N          3.7880  -29.4940   -7.8810 N.3    36  ALA36      -0.1245
     46  CA         4.3810  -30.7490   -8.3470 C.3    36  ALA36       0.1562
     47  C          5.6480  -30.4170   -9.1230 C.2    36  ALA36       0.2260
     48  O          5.6070  -29.5880  -10.0270 O.2    36  ALA36      -0.2867
     49  CB         3.4110  -31.5060   -9.2220 C.3    36  ALA36       0.0290
     50  N          8.5370  -31.8880  -11.5480 N.3    38  LYS38      -0.1245
     51  CA         9.0730  -32.9140  -12.4240 C.3    38  LYS38       0.1561
     52  C         10.5840  -32.7260  -12.5190 C.2    38  LYS38       0.2260
     53  O         11.0530  -31.6460  -12.8670 O.2    38  LYS38      -0.2867
     54  CB         8.4380  -32.8150  -13.8130 C.3    38  LYS38       0.0271
     55  CG         8.7390  -33.9890  -14.7280 C.3    38  LYS38       0.0035
     56  CD         8.1820  -33.7580  -16.1220 C.3    38  LYS38       0.0206
     57  CE         8.3770  -34.9810  -16.9980 C.3    38  LYS38       0.1093
     58  NZ         7.6100  -34.9010  -18.2660 N.3    38  LYS38      -0.1314
     59  N         -2.3790  -28.1230  -17.8800 N.3    71  ILE71      -0.1245
     60  CA        -1.6890  -28.0510  -16.5940 C.3    71  ILE71       0.1561
     61  C         -0.8060  -26.8070  -16.5490 C.2    71  ILE71       0.2260
     62  O         -0.1170  -26.4920  -17.5170 O.2    71  ILE71      -0.2867
     63  CB        -0.8370  -29.3310  -16.3290 C.3    71  ILE71       0.0252
     64  CG1       -0.6550  -29.5550  -14.8280 C.3    71  ILE71       0.0019
     65  CG2        0.5040  -29.2640  -17.0500 C.3    71  ILE71       0.0019
     66  CD1       -1.9020  -30.0710  -14.1430 C.3    71  ILE71       0.0001
     67  N          5.1570  -27.1200  -11.2420 N.3    87  MET87      -0.1230
     68  CA         3.8290  -27.2320  -11.8270 C.3    87  MET87       0.1702
     69  C          2.7030  -27.2140  -10.8030 C.2    87  MET87       0.2592
     70  O          2.8990  -27.4760   -9.6220 O.2    87  MET87      -0.2718
     71  CB         3.7210  -28.5200  -12.6450 C.3    87  MET87       0.0401
     72  CG         4.7060  -28.5990  -13.7930 C.3    87  MET87       0.0596
     73  SD         4.6160  -30.1580  -14.6810 S.3    87  MET87      -0.1393
     74  CE         2.9100  -30.1320  -15.2140 C.3    87  MET87       0.0692
     75  N          1.5220  -26.8830  -11.3050 N.am   88  GLU88      -0.1966
     76  CA         0.2700  -27.0300  -10.5900 C.3    88  GLU88       0.1733
     77  C          0.1150  -28.4710  -10.1440 C.2    88  GLU88       0.2616
     78  O          0.4010  -29.3920  -10.8960 O.2    88  GLU88      -0.2715
     79  CB        -0.8630  -26.6400  -11.5310 C.3    88  GLU88       0.0429
     80  CG        -2.2620  -26.8590  -11.0320 C.3    88  GLU88       0.1163
     81  CD        -3.2920  -26.5750  -12.1100 C.2    88  GLU88       0.3649
     82  OE1       -2.9310  -26.5820  -13.3100 O.co2  88  GLU88      -0.2457
     83  OE2       -4.4690  -26.3480  -11.7570 O.co2  88  GLU88      -0.2457
     84  N         -0.3420  -28.6550   -8.9150 N.am   89  CYS89      -0.1954
     85  CA        -0.4020  -29.9730   -8.3030 C.3    89  CYS89       0.1843
     86  C         -1.8110  -30.5510   -8.3690 C.2    89  CYS89       0.2626
     87  O         -2.7510  -29.9460   -7.8660 O.2    89  CYS89      -0.2714
     88  CB         0.0430  -29.8740   -6.8500 C.3    89  CYS89       0.0997
     89  SG         0.4590  -31.4620   -6.1540 S.3    89  CYS89      -0.0797
     90  N         -1.9520  -31.7170   -8.9910 N.am   90  GLY90      -0.1940
     91  CA        -3.2550  -32.3750   -9.1330 C.3    90  GLY90       0.2014
     92  C         -3.5000  -33.4550   -8.0950 C.2    90  GLY90       0.2638
     93  O         -2.5600  -33.9650   -7.4850 O.2    90  GLY90      -0.2714
     94  N         -4.7710  -33.8110   -7.9060 N.am   91  ASN91      -0.1972
     95  CA        -5.1560  -34.8360   -6.9330 C.3    91  ASN91       0.1688
     96  C         -4.7290  -36.2370   -7.3700 C.2    91  ASN91       0.2292
     97  O         -4.0010  -36.9280   -6.6560 O.2    91  ASN91      -0.2864
     98  CB        -6.6750  -34.8350   -6.7180 C.3    91  ASN91       0.1181
     99  CG        -7.1870  -33.5370   -6.1240 C.2    91  ASN91       0.2629
    100  OD1       -6.5240  -32.9080   -5.2950 O.2    91  ASN91      -0.2716
    101  ND2       -8.3860  -33.1360   -6.5360 N.am   91  ASN91      -0.0877
    102  N         -4.5240  -38.9040  -11.2600 N.3    93  ASP93      -0.1239
    103  CA        -4.7220  -39.0320  -12.7110 C.3    93  ASP93       0.1674
    104  C         -6.0170  -39.7870  -12.9980 C.2    93  ASP93       0.2266
    105  O         -6.4630  -40.5960  -12.1850 O.2    93  ASP93      -0.2867
    106  CB        -3.5320  -39.7180  -13.3930 C.3    93  ASP93       0.1410
    107  CG        -3.4070  -41.1780  -13.0210 C.2    93  ASP93       0.3668
    108  OD1       -3.1010  -41.4600  -11.8480 O.co2  93  ASP93      -0.2456
    109  OD2       -3.6070  -42.0410  -13.8970 O.co2  93  ASP93      -0.2456
    110  N         -4.4000  -41.7690  -18.4810 N.3   136  ALA136     -0.1245
    111  CA        -3.2320  -41.3160  -17.6970 C.3   136  ALA136      0.1562
    112  C         -2.7380  -39.9100  -18.0900 C.2   136  ALA136      0.2260
    113  O         -2.1180  -39.2250  -17.2750 O.2   136  ALA136     -0.2867
    114  CB        -2.0860  -42.3250  -17.7980 C.3   136  ALA136      0.0290
    115  N         -5.3430  -35.2930  -15.5400 N.3   139  LEU139     -0.1245
    116  CA        -5.1300  -35.1490  -14.1100 C.3   139  LEU139      0.1561
    117  C         -6.3180  -34.4000  -13.5120 C.2   139  LEU139      0.2260
    118  O         -6.7540  -33.3930  -14.0630 O.2   139  LEU139     -0.2867
    119  CB        -3.8520  -34.3410  -13.8900 C.3   139  LEU139      0.0270
    120  CG        -2.9970  -34.6510  -12.6740 C.3   139  LEU139      0.0019
    121  CD1       -2.2000  -35.9270  -12.9180 C.3   139  LEU139      0.0001
    122  CD2       -2.0820  -33.4730  -12.3980 C.3   139  LEU139      0.0001
    123  N         -1.9470  -33.1010  -19.0840 N.3   148  ILE148     -0.1245
    124  CA        -0.6100  -32.8850  -18.5180 C.3   148  ILE148      0.1561
    125  C          0.5440  -33.1020  -19.4980 C.2   148  ILE148      0.2260
    126  O          1.6800  -32.7560  -19.1730 O.2   148  ILE148     -0.2867
    127  CB        -0.3540  -33.6970  -17.2130 C.3   148  ILE148      0.0252
    128  CG1       -0.5150  -35.2030  -17.4310 C.3   148  ILE148      0.0019
    129  CG2       -1.2770  -33.2080  -16.1000 C.3   148  ILE148      0.0019
    130  CD1       -0.1060  -36.0310  -16.2240 C.3   148  ILE148      0.0001
    131  N         11.7600  -41.5700  -24.0790 N.3   156  MET156     -0.1245
    132  CA        11.9670  -41.0160  -22.7260 C.3   156  MET156      0.1570
    133  C         13.0160  -41.7780  -21.8990 C.2   156  MET156      0.2261
    134  O         13.5550  -42.7990  -22.3270 O.2   156  MET156     -0.2867
    135  CB        10.6210  -40.9070  -21.9670 C.3   156  MET156      0.0387
    136  CG        10.5780  -41.4810  -20.5300 C.3   156  MET156      0.0595
    137  SD        10.3910  -43.2910  -20.4790 S.3   156  MET156     -0.1393
    138  CE        10.2230  -43.5960  -18.7080 C.3   156  MET156      0.0692
@<TRIPOS>BOND
     1   131   132    1
     2   132   135    1
     3   132   133    1
     4   134   133    2
     5   135   136    1
     6   136   137    1
     7   137   138    1
     8   125   126    2
     9   125   124    1
    10   123   124    1
    11   124   127    1
    12   110   111    1
    13    58    57    1
    14   112   111    1
    15   112   113    2
    16    59    60    1
    17   114   111    1
    18    62    61    2
    19   128   127    1
    20   128   130    1
    21   127   129    1
    22    65    63    1
    23    57    56    1
    24    60    61    1
    25    60    63    1
    26    63    64    1
    27    56    55    1
    28    27    28    1
    29    27    24    1
    30   115   116    1
    31    74    73    1
    32    64    66    1
    33    55    54    1
    34    23    24    1
    35    73    72    1
    36    24    25    1
    37   116   119    1
    38   116   117    1
    39   118   117    2
    40   109   107   ar
    41   119   120    1
    42    54    51    1
    43    72    71    1
    44   106   107    1
    45   106   103    1
    46    82    81   ar
    47    25    26    2
    48    25    29   am
    49   107   108   ar
    50   104   103    1
    51   104   105    2
    52   121   120    1
    53    53    52    2
    54   103   102    1
    55   120   122    1
    56    71    68    1
    57    52    51    1
    58    20    21    1
    59    20    19    1
    60    29    30    1
    61    21    22    2
    62    51    50    1
    63    81    83   ar
    64    81    80    1
    65    44    42    1
    66    68    67    1
    67    68    69    1
    68    79    80    1
    69    79    76    1
    70    75    69   am
    71    75    76    1
    72    30    31    1
    73    30    33    1
    74    19    15   am
    75    32    31    2
    76    16    15    2
    77    78    77    2
    78    31    38   am
    79    69    70    2
    80    76    77    1
    81    42    43    1
    82    42    39    1
    83    15    14    1
    84    38    39    1
    85    34    33    1
    86    34    35    1
    87    77    84   am
    88    48    47    2
    89    39    40    1
    90    13    14    1
    91    13    11   am
    92    49    46    1
    93    14    17    1
    94    91    90    1
    95    91    92    1
    96    47    46    1
    97    90    86   am
    98    35    36    1
    99    84    85    1
   100     4     3    2
   101    36    37    1
   102    10    11    1
   103    10     9    1
   104    18    17    1
   105    40    41    2
   106    86    85    1
   107    86    87    2
   108    46    45    1
   109    11    12    2
   110    85    88    1
   111    92    94   am
   112    92    93    2
   113     7     5    1
   114     3     9   am
   115     3     2    1
   116    94    95    1
   117     5     2    1
   118     5     6    1
   119    96    95    1
   120    96    97    2
   121     8     6    1
   122    95    98    1
   123     2     1    1
   124    88    89    1
   125    98    99    1
   126   101    99   am
   127    99   100    2
