@<TRIPOS>MOLECULE
tmp/3hmoA01.pdb
 159 147 0 0 0
SMALL
GASTEIGER

@<TRIPOS>ATOM
      1  N        -41.7000  -17.0620   -0.5870 N.3    16  LYS16      -0.1245
      2  CA       -41.9170  -15.6600   -0.9610 C.3    16  LYS16       0.1561
      3  C        -42.1250  -15.5030   -2.4680 C.2    16  LYS16       0.2260
      4  O        -41.8060  -16.4010   -3.2470 O.2    16  LYS16      -0.2867
      5  CB       -40.7460  -14.7750   -0.5080 C.3    16  LYS16       0.0271
      6  CG       -39.3790  -15.2340   -0.9960 C.3    16  LYS16       0.0035
      7  CD       -38.3630  -14.1040   -0.9810 C.3    16  LYS16       0.0206
      8  CE       -36.9710  -14.6240   -1.3430 C.3    16  LYS16       0.1093
      9  NZ       -35.9940  -13.5360   -1.6480 N.3    16  LYS16      -0.1314
     10  N        -40.8270  -13.8500   -5.7460 N.3    18  ILE18      -0.1231
     11  CA       -39.5240  -13.3700   -6.2070 C.3    18  ILE18       0.1692
     12  C        -39.5940  -12.5790   -7.5160 C.2    18  ILE18       0.2593
     13  O        -38.6580  -11.8560   -7.8500 O.2    18  ILE18      -0.2718
     14  CB       -38.5020  -14.5320   -6.3450 C.3    18  ILE18       0.0266
     15  CG1      -39.0210  -15.6340   -7.2830 C.3    18  ILE18       0.0019
     16  CG2      -38.1780  -15.0900   -4.9680 C.3    18  ILE18       0.0020
     17  CD1      -38.0500  -16.7740   -7.4930 C.3    18  ILE18       0.0001
     18  N        -40.6940  -12.7040   -8.2490 N.am   19  GLY19      -0.1942
     19  CA       -40.8240  -12.0190   -9.5280 C.3    19  GLY19       0.2014
     20  C        -42.2600  -11.8150   -9.9560 C.2    19  GLY19       0.2639
     21  O        -43.1820  -12.3880   -9.3760 O.2    19  GLY19      -0.2714
     22  N        -42.4390  -10.9750  -10.9720 N.am   20  SER20      -0.1949
     23  CA       -43.7560  -10.7270  -11.5500 C.3    20  SER20       0.1924
     24  C        -43.6680  -10.0510  -12.9220 C.2    20  SER20       0.2314
     25  O        -42.6000   -9.6010  -13.3520 O.2    20  SER20      -0.2863
     26  CB       -44.6150   -9.8680  -10.6140 C.3    20  SER20       0.2116
     27  OG       -44.3060   -8.4930  -10.7650 O.3    20  SER20      -0.2180
     28  N        -43.8640  -15.1390  -10.0510 N.3    26  VAL26      -0.1245
     29  CA       -42.9030  -16.2010   -9.7660 C.3    26  VAL26       0.1561
     30  C        -42.7100  -16.2920   -8.2560 C.2    26  VAL26       0.2260
     31  O        -42.5050  -15.2810   -7.5940 O.2    26  VAL26      -0.2867
     32  CB       -41.5480  -15.9760  -10.4840 C.3    26  VAL26       0.0252
     33  CG1      -40.6090  -17.1520  -10.2330 C.3    26  VAL26       0.0019
     34  CG2      -41.7610  -15.7930  -11.9740 C.3    26  VAL26       0.0019
     35  N        -40.8870  -18.4450   -4.8350 N.3    28  GLN28      -0.1245
     36  CA       -40.0720  -19.4650   -4.1770 C.3    28  GLN28       0.1566
     37  C        -41.0070  -20.3120   -3.3390 C.2    28  GLN28       0.2260
     38  O        -41.7740  -19.7850   -2.5350 O.2    28  GLN28      -0.2867
     39  CB       -39.0160  -18.8480   -3.2650 C.3    28  GLN28       0.0367
     40  CG       -37.7130  -18.5320   -3.9490 C.3    28  GLN28       0.0905
     41  CD       -36.6270  -18.1280   -2.9700 C.2    28  GLN28       0.2608
     42  OE1      -36.8300  -18.1410   -1.7540 O.2    28  GLN28      -0.2717
     43  NE2      -35.4630  -17.7690   -3.5000 N.am   28  GLN28      -0.0878
     44  N        -38.9310  -22.9360   -7.8720 N.3    38  ALA38      -0.1245
     45  CA       -39.5670  -21.7110   -8.3480 C.3    38  ALA38       0.1562
     46  C        -40.8420  -22.1000   -9.0880 C.2    38  ALA38       0.2260
     47  O        -40.8010  -22.9280   -9.9990 O.2    38  ALA38      -0.2867
     48  CB       -38.6370  -20.9330   -9.2580 C.3    38  ALA38       0.0290
     49  N        -43.6170  -20.5770  -11.4940 N.3    40  LYS40      -0.1245
     50  CA       -44.1170  -19.5140  -12.3450 C.3    40  LYS40       0.1561
     51  C        -45.6130  -19.7330  -12.5590 C.2    40  LYS40       0.2260
     52  O        -46.0300  -20.7750  -13.0750 O.2    40  LYS40      -0.2867
     53  CB       -43.3780  -19.4880  -13.6850 C.3    40  LYS40       0.0271
     54  CG       -43.9480  -18.4950  -14.6880 C.3    40  LYS40       0.0035
     55  CD       -43.0580  -18.3580  -15.9040 C.3    40  LYS40       0.0206
     56  CE       -43.7350  -17.5220  -16.9670 C.3    40  LYS40       0.1093
     57  NZ       -42.8090  -17.1410  -18.0540 N.3    40  LYS40      -0.1314
     58  N        -32.7290  -24.2550  -17.8490 N.3    73  ILE73      -0.1245
     59  CA       -33.4710  -24.3500  -16.5980 C.3    73  ILE73       0.1561
     60  C        -34.3030  -25.6330  -16.5740 C.2    73  ILE73       0.2260
     61  O        -34.9290  -25.9860  -17.5730 O.2    73  ILE73      -0.2867
     62  CB       -34.3880  -23.0930  -16.3950 C.3    73  ILE73       0.0252
     63  CG1      -34.8310  -22.9580  -14.9350 C.3    73  ILE73       0.0019
     64  CG2      -35.5880  -23.1230  -17.3310 C.3    73  ILE73       0.0019
     65  CD1      -33.7250  -22.4890  -14.0120 C.3    73  ILE73       0.0001
     66  N        -40.1860  -25.1860  -11.4850 N.3    89  MET89      -0.1230
     67  CA       -38.8370  -25.1100  -12.0510 C.3    89  MET89       0.1702
     68  C        -37.7920  -25.1150  -10.9430 C.2    89  MET89       0.2592
     69  O        -38.1160  -24.8480   -9.7880 O.2    89  MET89      -0.2718
     70  CB       -38.6980  -23.8440  -12.8990 C.3    89  MET89       0.0401
     71  CG       -39.8490  -23.6320  -13.8730 C.3    89  MET89       0.0596
     72  SD       -39.7930  -22.0470  -14.7200 S.3    89  MET89      -0.1393
     73  CE       -38.4250  -22.3490  -15.8230 C.3    89  MET89       0.0692
     74  N        -36.5440  -25.4270  -11.2940 N.am   90  GLU90      -0.1966
     75  CA       -35.4530  -25.4160  -10.3130 C.3    90  GLU90       0.1733
     76  C        -35.2080  -23.9930   -9.8500 C.2    90  GLU90       0.2616
     77  O        -35.3960  -23.0470  -10.6080 O.2    90  GLU90      -0.2715
     78  CB       -34.1600  -26.0510  -10.8670 C.3    90  GLU90       0.0429
     79  CG       -33.2840  -25.1460  -11.7290 C.3    90  GLU90       0.1163
     80  CD       -32.1310  -25.8930  -12.3800 C.2    90  GLU90       0.3649
     81  OE1      -31.3610  -26.5570  -11.6560 O.co2  90  GLU90      -0.2457
     82  OE2      -31.9850  -25.8110  -13.6180 O.co2  90  GLU90      -0.2457
     83  N        -34.8090  -23.8490   -8.5960 N.am   91  CYS91      -0.1954
     84  CA       -34.6070  -22.5350   -8.0090 C.3    91  CYS91       0.1843
     85  C        -33.1420  -22.1160   -8.1150 C.2    91  CYS91       0.2626
     86  O        -32.2400  -22.9250   -7.9080 O.2    91  CYS91      -0.2714
     87  CB       -35.0610  -22.5330   -6.5500 C.3    91  CYS91       0.0997
     88  SG       -35.5140  -20.8950   -5.9820 S.3    91  CYS91      -0.0797
     89  N        -32.9170  -20.8490   -8.4400 N.am   92  GLY92      -0.1940
     90  CA       -31.5720  -20.2940   -8.5570 C.3    92  GLY92       0.2014
     91  C        -31.2950  -19.2220   -7.5200 C.2    92  GLY92       0.2639
     92  O        -32.1570  -18.8890   -6.7010 O.2    92  GLY92      -0.2714
     93  N        -30.0790  -18.6810   -7.5620 N.am   93  ASN93      -0.1958
     94  CA       -29.6480  -17.6560   -6.6120 C.3    93  ASN93       0.1819
     95  C        -30.1810  -16.2850   -7.0060 C.2    93  ASN93       0.2621
     96  O        -30.7650  -15.5740   -6.1910 O.2    93  ASN93      -0.2715
     97  CB       -28.1160  -17.5850   -6.5440 C.3    93  ASN93       0.1195
     98  CG       -27.4850  -18.9010   -6.1470 C.2    93  ASN93       0.2630
     99  OD1      -27.9420  -19.5630   -5.2100 O.2    93  ASN93      -0.2716
    100  ND2      -26.4220  -19.2950   -6.8590 N.am   93  ASN93      -0.0877
    101  N        -29.9650  -15.9350   -8.2720 N.am   94  ILE94      -0.1963
    102  CA       -30.1700  -14.5780   -8.7690 C.3    94  ILE94       0.1727
    103  C        -29.9880  -14.6120  -10.2850 C.2    94  ILE94       0.2616
    104  O        -29.2520  -15.4500  -10.7910 O.2    94  ILE94      -0.2715
    105  CB       -29.1390  -13.6110   -8.1200 C.3    94  ILE94       0.0290
    106  CG1      -29.4270  -12.1560   -8.4850 C.3    94  ILE94       0.0022
    107  CG2      -27.7130  -13.9960   -8.5140 C.3    94  ILE94       0.0023
    108  CD1      -28.6150  -11.1610   -7.6690 C.3    94  ILE94       0.0001
    109  N        -30.6570  -13.7260  -11.0140 N.am   95  ASP95      -0.1971
    110  CA       -30.4620  -13.6580  -12.4670 C.3    95  ASP95       0.1709
    111  C        -29.1640  -12.9070  -12.7890 C.2    95  ASP95       0.2293
    112  O        -28.6200  -12.2010  -11.9410 O.2    95  ASP95      -0.2864
    113  CB       -31.6730  -13.0330  -13.1770 C.3    95  ASP95       0.1436
    114  CG       -31.8670  -11.5740  -12.8360 C.2    95  ASP95       0.3671
    115  OD1      -32.4370  -11.2790  -11.7640 O.co2  95  ASP95      -0.2456
    116  OD2      -31.4540  -10.7200  -13.6420 O.co2  95  ASP95      -0.2456
    117  N        -28.5000  -10.3570  -14.7900 N.3    97  ASN97      -0.1225
    118  CA       -28.6340   -8.8920  -14.7900 C.3    97  ASN97       0.1785
    119  C        -28.4840   -8.2870  -13.3890 C.2    97  ASN97       0.2597
    120  O        -27.6620   -7.3990  -13.1820 O.2    97  ASN97      -0.2718
    121  CB       -29.9750   -8.4700  -15.3940 C.3    97  ASN97       0.1169
    122  CG       -30.0000   -7.0060  -15.8060 C.2    97  ASN97       0.2627
    123  OD1      -29.1180   -6.5260  -16.5250 O.2    97  ASN97      -0.2716
    124  ND2      -31.0230   -6.2910  -15.3610 N.am   97  ASN97      -0.0877
    125  N        -29.2700   -8.7840  -12.4380 N.am   98  SER98      -0.1952
    126  CA       -29.2340   -8.3000  -11.0570 C.3    98  SER98       0.1924
    127  C        -27.8590   -8.4610  -10.4190 C.2    98  SER98       0.2314
    128  O        -27.4230   -7.6100   -9.6470 O.2    98  SER98      -0.2863
    129  CB       -30.2620   -9.0480  -10.2010 C.3    98  SER98       0.2116
    130  OG       -31.5760   -8.8340  -10.6710 O.3    98  SER98      -0.2180
    131  N        -30.8750  -10.8310  -18.3240 N.3   138  ALA138     -0.1245
    132  CA       -32.0350  -11.2240  -17.5130 C.3   138  ALA138      0.1562
    133  C        -32.5920  -12.5980  -17.9040 C.2   138  ALA138      0.2260
    134  O        -33.2950  -13.2310  -17.1160 O.2   138  ALA138     -0.2867
    135  CB       -33.1320  -10.1680  -17.6140 C.3   138  ALA138      0.0290
    136  N        -30.1980  -17.3330  -15.4350 N.3   141  LEU141     -0.1245
    137  CA       -30.2980  -17.4850  -13.9910 C.3   141  LEU141      0.1561
    138  C        -29.0380  -18.1780  -13.4710 C.2   141  LEU141      0.2260
    139  O        -28.5540  -19.1340  -14.0830 O.2   141  LEU141     -0.2867
    140  CB       -31.5350  -18.3190  -13.6520 C.3   141  LEU141      0.0270
    141  CG       -31.9390  -18.4610  -12.1820 C.3   141  LEU141      0.0019
    142  CD1      -32.6000  -17.1780  -11.6880 C.3   141  LEU141      0.0001
    143  CD2      -32.8700  -19.6590  -12.0020 C.3   141  LEU141      0.0001
    144  N        -33.3460  -19.3940  -19.0670 N.3   150  ILE150     -0.1231
    145  CA       -34.6640  -19.6190  -18.4750 C.3   150  ILE150      0.1692
    146  C        -35.8050  -19.5640  -19.4910 C.2   150  ILE150      0.2592
    147  O        -36.9090  -20.0100  -19.1850 O.2   150  ILE150     -0.2718
    148  CB       -34.9540  -18.6730  -17.2580 C.3   150  ILE150      0.0266
    149  CG1      -34.9720  -17.1910  -17.6540 C.3   150  ILE150      0.0019
    150  CG2      -33.9350  -18.9080  -16.1520 C.3   150  ILE150      0.0020
    151  CD1      -35.0240  -16.2370  -16.4480 C.3   150  ILE150      0.0001
    152  N        -35.5380  -19.0440  -20.6890 N.am  151  ASP151     -0.1974
    153  CA       -36.5650  -18.9390  -21.7370 C.3   151  ASP151      0.1709
    154  C        -35.9680  -18.9250  -23.1400 C.2   151  ASP151      0.2293
    155  O        -34.7700  -18.7030  -23.3080 O.2   151  ASP151     -0.2864
    156  CB       -37.4560  -17.7040  -21.5120 C.3   151  ASP151      0.1436
    157  CG       -36.6960  -16.4000  -21.6210 C.2   151  ASP151      0.3671
    158  OD1      -36.3210  -16.0210  -22.7450 O.co2 151  ASP151     -0.2456
    159  OD2      -36.4910  -15.7390  -20.5840 O.co2 151  ASP151     -0.2456
@<TRIPOS>BOND
     1   155   154    2
     2   154   153    1
     3   158   157   ar
     4   153   156    1
     5   153   152    1
     6   157   156    1
     7   157   159   ar
     8   152   146   am
     9   146   147    2
    10   146   145    1
    11   144   145    1
    12   145   148    1
    13   131   132    1
    14    57    56    1
    15   133   132    1
    16   133   134    2
    17    58    59    1
    18   149   148    1
    19   149   151    1
    20   135   132    1
    21    61    60    2
    22    64    62    1
    23   148   150    1
    24    56    55    1
    25    59    60    1
    26    59    62    1
    27   123   122    2
    28    62    63    1
    29    55    54    1
    30    73    72    1
    31   122   121    1
    32   122   124   am
    33   136   137    1
    34   121   118    1
    35    63    65    1
    36   117   118    1
    37   118   119    1
    38    72    71    1
    39    54    53    1
    40   139   138    2
    41   137   140    1
    42   137   138    1
    43    71    70    1
    44    53    50    1
    45   140   141    1
    46   116   114   ar
    47    82    80   ar
    48   119   120    2
    49   119   125   am
    50    25    24    2
    51   113   114    1
    52   113   110    1
    53    52    51    2
    54    24    23    1
    55    70    67    1
    56   114   115   ar
    57   111   110    1
    58   111   112    2
    59    51    50    1
    60   110   109    1
    61   125   126    1
    62    80    79    1
    63    80    81   ar
    64    50    49    1
    65   141   143    1
    66   141   142    1
    67    67    66    1
    68    67    68    1
    69    34    32    1
    70    79    78    1
    71    23    22    1
    72    23    26    1
    73    74    68   am
    74    74    75    1
    75   126   127    1
    76   126   129    1
    77   109   103   am
    78    22    20   am
    79    68    69    2
    80    78    75    1
    81   104   103    2
    82    27    26    1
    83   130   129    1
    84    77    76    2
    85    32    33    1
    86    32    29    1
    87   127   128    2
    88    75    76    1
    89   103   102    1
    90    28    29    1
    91    47    46    2
    92    20    19    1
    93    20    21    2
    94    76    83   am
    95    29    30    1
    96    19    18    1
    97    48    45    1
    98    46    45    1
    99   102   101    1
   100   102   105    1
   101    83    84    1
   102    90    89    1
   103    90    91    1
   104   107   105    1
   105   106   105    1
   106   106   108    1
   107    89    85   am
   108    45    44    1
   109   101    95   am
   110    30    31    2
   111    18    12   am
   112    85    84    1
   113    85    86    2
   114    84    87    1
   115    13    12    2
   116    93    91   am
   117    93    94    1
   118    91    92    2
   119    12    11    1
   120    17    15    1
   121    15    14    1
   122    95    94    1
   123    95    96    2
   124   100    98   am
   125    94    97    1
   126    87    88    1
   127    97    98    1
   128    14    11    1
   129    14    16    1
   130    11    10    1
   131    98    99    2
   132    35    36    1
   133    36    37    1
   134    36    39    1
   135    40    39    1
   136    40    41    1
   137    43    41   am
   138    37    38    2
   139     4     3    2
   140    41    42    2
   141     3     2    1
   142     9     8    1
   143     8     7    1
   144     6     7    1
   145     6     5    1
   146     2     1    1
   147     2     5    1
