@<TRIPOS>MOLECULE
tmp/3hmpA00.pdb
 126 116 0 0 0
SMALL
GASTEIGER

@<TRIPOS>ATOM
      1  N        -42.0740  -16.3150   -1.0450 N.3    14  LYS14      -0.1245
      2  CA       -42.1730  -14.9410   -1.5270 C.3    14  LYS14       0.1561
      3  C        -42.4700  -14.9190   -3.0170 C.2    14  LYS14       0.2260
      4  O        -42.4360  -15.9520   -3.6830 O.2    14  LYS14      -0.2867
      5  CB       -40.8770  -14.1600   -1.2500 C.3    14  LYS14       0.0271
      6  CG       -39.6320  -14.7270   -1.9270 C.3    14  LYS14       0.0035
      7  CD       -38.4340  -13.7920   -1.7870 C.3    14  LYS14       0.0206
      8  CE       -37.3900  -14.0470   -2.8730 C.3    14  LYS14       0.1093
      9  NZ       -36.0540  -13.4710   -2.5320 N.3    14  LYS14      -0.1314
     10  N        -41.0070  -13.7370   -6.4730 N.3    16  ILE16      -0.1231
     11  CA       -39.8090  -13.3530   -7.1940 C.3    16  ILE16       0.1692
     12  C        -40.2320  -12.4560   -8.3420 C.2    16  ILE16       0.2592
     13  O        -39.7910  -11.3140   -8.4540 O.2    16  ILE16      -0.2718
     14  CB       -39.1110  -14.5860   -7.8170 C.3    16  ILE16       0.0266
     15  CG1      -38.7610  -15.6250   -6.7570 C.3    16  ILE16       0.0019
     16  CG2      -37.8740  -14.1580   -8.6060 C.3    16  ILE16       0.0020
     17  CD1      -38.3190  -16.9450   -7.3540 C.3    16  ILE16       0.0001
     18  N        -41.1120  -12.9990   -9.1810 N.am   17  GLY17      -0.1957
     19  CA       -41.4720  -12.4150  -10.4660 C.3    17  GLY17       0.1869
     20  C        -42.7580  -11.6330  -10.3540 C.2    17  GLY17       0.2309
     21  O        -43.7460  -12.1130   -9.8010 O.2    17  GLY17      -0.2863
     22  N        -44.0480  -15.0950  -10.6620 N.3    24  VAL24      -0.1245
     23  CA       -43.1620  -16.1890  -10.2580 C.3    24  VAL24       0.1561
     24  C        -43.0490  -16.1830   -8.7370 C.2    24  VAL24       0.2260
     25  O        -42.8730  -15.1280   -8.1400 O.2    24  VAL24      -0.2867
     26  CB       -41.7580  -16.0900  -10.9110 C.3    24  VAL24       0.0252
     27  CG1      -40.9150  -17.3320  -10.5830 C.3    24  VAL24       0.0019
     28  CG2      -41.8770  -15.9190  -12.4130 C.3    24  VAL24       0.0019
     29  N        -41.3450  -18.1190   -5.1510 N.3    26  GLN26      -0.1245
     30  CA       -40.4090  -19.0180   -4.5000 C.3    26  GLN26       0.1566
     31  C        -41.2490  -19.8610   -3.5490 C.2    26  GLN26       0.2260
     32  O        -42.0400  -19.3200   -2.7760 O.2    26  GLN26      -0.2867
     33  CB       -39.3450  -18.2060   -3.7660 C.3    26  GLN26       0.0367
     34  CG       -38.2240  -19.0130   -3.1660 C.3    26  GLN26       0.0905
     35  CD       -37.3200  -18.1580   -2.3040 C.2    26  GLN26       0.2608
     36  OE1      -37.7500  -17.6330   -1.2790 O.2    26  GLN26      -0.2717
     37  NE2      -36.0660  -18.0060   -2.7170 N.am   26  GLN26      -0.0878
     38  N        -39.2220  -22.6690   -7.9690 N.3    36  ALA36      -0.1245
     39  CA       -39.9450  -21.4880   -8.4610 C.3    36  ALA36       0.1562
     40  C        -41.2190  -21.9530   -9.1800 C.2    36  ALA36       0.2260
     41  O        -41.1610  -22.8350  -10.0270 O.2    36  ALA36      -0.2867
     42  CB       -39.0720  -20.6650   -9.4080 C.3    36  ALA36       0.0290
     43  N        -43.9890  -20.6550  -11.7320 N.3    38  LYS38      -0.1245
     44  CA       -44.4740  -19.6320  -12.6470 C.3    38  LYS38       0.1561
     45  C        -45.9840  -19.7900  -12.7930 C.2    38  LYS38       0.2260
     46  O        -46.4800  -20.8800  -13.0900 O.2    38  LYS38      -0.2867
     47  CB       -43.7870  -19.7230  -14.0080 C.3    38  LYS38       0.0271
     48  CG       -44.2130  -18.6470  -14.9840 C.3    38  LYS38       0.0035
     49  CD       -43.3340  -18.6300  -16.1990 C.3    38  LYS38       0.0206
     50  CE       -43.8940  -17.7350  -17.2600 C.3    38  LYS38       0.1093
     51  NZ       -42.9920  -17.6310  -18.4290 N.3    38  LYS38      -0.1314
     52  N        -32.8760  -24.1980  -17.9690 N.3    71  ILE71      -0.1245
     53  CA       -33.6110  -24.2720  -16.7120 C.3    71  ILE71       0.1561
     54  C        -34.4920  -25.5230  -16.6430 C.2    71  ILE71       0.2260
     55  O        -35.0280  -25.9710  -17.6500 O.2    71  ILE71      -0.2867
     56  CB       -34.4790  -22.9770  -16.4760 C.3    71  ILE71       0.0252
     57  CG1      -34.9380  -22.8920  -15.0230 C.3    71  ILE71       0.0019
     58  CG2      -35.6650  -22.9300  -17.4170 C.3    71  ILE71       0.0019
     59  CD1      -35.5120  -21.5650  -14.6580 C.3    71  ILE71       0.0001
     60  N        -40.6370  -25.1020  -11.5270 N.3    87  MET87      -0.1230
     61  CA       -39.3280  -24.9530  -12.1050 C.3    87  MET87       0.1702
     62  C        -38.2420  -24.8260  -11.0310 C.2    87  MET87       0.2592
     63  O        -38.5070  -24.6520   -9.8430 O.2    87  MET87      -0.2718
     64  CB       -39.3110  -23.7180  -13.0070 C.3    87  MET87       0.0401
     65  CG       -40.4020  -23.7340  -14.0760 C.3    87  MET87       0.0596
     66  SD       -40.3680  -22.3510  -15.2180 S.3    87  MET87      -0.1393
     67  CE       -38.8820  -22.7530  -16.1360 C.3    87  MET87       0.0692
     68  N        -37.0150  -24.9330  -11.5110 N.am   88  GLU88      -0.1966
     69  CA       -35.7920  -24.7220  -10.7580 C.3    88  GLU88       0.1733
     70  C        -35.7530  -23.2960  -10.2450 C.2    88  GLU88       0.2616
     71  O        -36.0700  -22.3620  -10.9830 O.2    88  GLU88      -0.2715
     72  CB       -34.6320  -24.9730  -11.7220 C.3    88  GLU88       0.0429
     73  CG       -33.2580  -25.0130  -11.1510 C.3    88  GLU88       0.1163
     74  CD       -32.2840  -25.6870  -12.1020 C.2    88  GLU88       0.3649
     75  OE1      -32.4190  -25.5130  -13.3360 O.co2  88  GLU88      -0.2457
     76  OE2      -31.3930  -26.4140  -11.6120 O.co2  88  GLU88      -0.2457
     77  N        -35.3960  -23.1310   -8.9710 N.am   89  CYS89      -0.1954
     78  CA       -35.3800  -21.8130   -8.3450 C.3    89  CYS89       0.1843
     79  C        -34.0930  -21.0330   -8.6190 C.2    89  CYS89       0.2626
     80  O        -34.1390  -19.8610   -8.9830 O.2    89  CYS89      -0.2714
     81  CB       -35.6040  -21.9200   -6.8350 C.3    89  CYS89       0.0997
     82  SG       -35.7660  -20.2820   -6.0590 S.3    89  CYS89      -0.0797
     83  N        -32.9470  -21.6650   -8.4170 N.am   90  GLY90      -0.1940
     84  CA       -31.6720  -20.9700   -8.5680 C.3    90  GLY90       0.2014
     85  C        -31.4150  -19.8860   -7.5290 C.2    90  GLY90       0.2639
     86  O        -32.1950  -19.7070   -6.5860 O.2    90  GLY90      -0.2714
     87  N        -30.3320  -19.1370   -7.7220 N.am   91  ASN91      -0.1958
     88  CA       -29.8230  -18.2250   -6.7080 C.3    91  ASN91       0.1819
     89  C        -30.1570  -16.7680   -7.0130 C.2    91  ASN91       0.2621
     90  O        -30.6490  -16.0400   -6.1490 O.2    91  ASN91      -0.2715
     91  CB       -28.3030  -18.4110   -6.5640 C.3    91  ASN91       0.1195
     92  CG       -27.9330  -19.7740   -5.9920 C.2    91  ASN91       0.2630
     93  OD1      -28.1540  -20.8180   -6.6220 O.2    91  ASN91      -0.2716
     94  ND2      -27.3800  -19.7730   -4.7810 N.am   91  ASN91      -0.0877
     95  N        -29.8880  -16.3520   -8.2450 N.am   92  ILE92      -0.1963
     96  CA       -30.0660  -14.9620   -8.6550 C.3    92  ILE92       0.1727
     97  C        -29.9390  -14.9210  -10.1740 C.2    92  ILE92       0.2616
     98  O        -29.2060  -15.7210  -10.7470 O.2    92  ILE92      -0.2715
     99  CB       -29.0020  -14.0490   -7.9700 C.3    92  ILE92       0.0290
    100  CG1      -29.2940  -12.5650   -8.2120 C.3    92  ILE92       0.0022
    101  CG2      -27.5830  -14.4390   -8.4140 C.3    92  ILE92       0.0023
    102  CD1      -28.3650  -11.6390   -7.4420 C.3    92  ILE92       0.0001
    103  N        -30.6790  -14.0330  -10.8320 N.am   93  ASP93      -0.1971
    104  CA       -30.5520  -13.8800  -12.2810 C.3    93  ASP93       0.1709
    105  C        -29.2880  -13.0830  -12.5980 C.2    93  ASP93       0.2293
    106  O        -28.8360  -12.2760  -11.7840 O.2    93  ASP93      -0.2864
    107  CB       -31.8010  -13.2370  -12.9220 C.3    93  ASP93       0.1436
    108  CG       -31.9130  -11.7490  -12.6470 C.2    93  ASP93       0.3671
    109  OD1      -32.5060  -11.3810  -11.6080 O.co2  93  ASP93      -0.2456
    110  OD2      -31.4160  -10.9480  -13.4670 O.co2  93  ASP93      -0.2456
    111  N        -30.1260  -17.4150  -15.4830 N.3   139  LEU139     -0.1245
    112  CA       -30.2580  -17.6470  -14.0510 C.3   139  LEU139      0.1561
    113  C        -28.9880  -18.3290  -13.5370 C.2   139  LEU139      0.2260
    114  O        -28.5260  -19.3090  -14.1320 O.2   139  LEU139     -0.2867
    115  CB       -31.4870  -18.5360  -13.7640 C.3   139  LEU139      0.0270
    116  CG       -31.8220  -18.8680  -12.3010 C.3   139  LEU139      0.0019
    117  CD1      -32.0940  -17.5950  -11.5190 C.3   139  LEU139      0.0001
    118  CD2      -33.0110  -19.8410  -12.1840 C.3   139  LEU139      0.0001
    119  N        -33.3580  -19.2280  -19.1050 N.3   148  ILE148     -0.1245
    120  CA       -34.6520  -19.2720  -18.3930 C.3   148  ILE148      0.1561
    121  C        -35.8210  -19.4500  -19.3660 C.2   148  ILE148      0.2260
    122  O        -36.8650  -20.0010  -19.0050 O.2   148  ILE148     -0.2867
    123  CB       -34.8590  -17.9890  -17.5410 C.3   148  ILE148      0.0252
    124  CG1      -33.8320  -17.9180  -16.4090 C.3   148  ILE148      0.0019
    125  CG2      -36.2370  -17.9450  -16.9020 C.3   148  ILE148      0.0019
    126  CD1      -33.7250  -16.5200  -15.7980 C.3   148  ILE148      0.0001
@<TRIPOS>BOND
     1   121   122    2
     2   121   120    1
     3   119   120    1
     4    51    50    1
     5   120   123    1
     6    52    53    1
     7    55    54    2
     8   123   125    1
     9   123   124    1
    10    58    56    1
    11    50    49    1
    12    53    54    1
    13    53    56    1
    14    56    57    1
    15   124   126    1
    16    49    48    1
    17    67    66    1
    18   111   112    1
    19    66    65    1
    20    57    59    1
    21    48    47    1
    22   114   113    2
    23    65    64    1
    24   112   115    1
    25   112   113    1
    26    47    44    1
    27   115   116    1
    28   110   108   ar
    29    75    74   ar
    30    46    45    2
    31    64    61    1
    32   107   108    1
    33   107   104    1
    34    45    44    1
    35   108   109   ar
    36    44    43    1
    37   105   104    1
    38   105   106    2
    39    28    26    1
    40   116   118    1
    41   116   117    1
    42   104   103    1
    43    61    60    1
    44    61    62    1
    45    74    76   ar
    46    74    73    1
    47    72    73    1
    48    72    69    1
    49    68    62   am
    50    68    69    1
    51    62    63    2
    52    71    70    2
    53    26    27    1
    54    26    23    1
    55   103    97   am
    56    69    70    1
    57    98    97    2
    58    22    23    1
    59    19    20    1
    60    19    18    1
    61    20    21    2
    62    23    24    1
    63    70    77   am
    64    97    96    1
    65    41    40    2
    66    42    39    1
    67    18    12   am
    68    40    39    1
    69    80    79    2
    70    77    78    1
    71    24    25    2
    72    96    95    1
    73    96    99    1
    74    79    83   am
    75    79    78    1
    76    16    14    1
    77    84    83    1
    78    84    85    1
    79    39    38    1
    80    13    12    2
    81   101    99    1
    82    78    81    1
    83    12    11    1
    84    95    89   am
    85   100    99    1
    86   100   102    1
    87    14    11    1
    88    14    15    1
    89    87    85   am
    90    87    88    1
    91    85    86    2
    92    17    15    1
    93    11    10    1
    94    89    88    1
    95    89    90    2
    96    81    82    1
    97    88    91    1
    98    93    92    2
    99    91    92    1
   100    92    94   am
   101    29    30    1
   102    30    33    1
   103    30    31    1
   104    33    34    1
   105     4     3    2
   106    31    32    2
   107    34    35    1
   108     3     2    1
   109     8     9    1
   110     8     7    1
   111    37    35   am
   112    35    36    2
   113     6     7    1
   114     6     5    1
   115     2     5    1
   116     2     1    1
