@<TRIPOS>MOLECULE
tmp/3hmvB00.pdb
 232 224 0 0 0
SMALL
GASTEIGER

@<TRIPOS>ATOM
      1  N        -18.5230    9.3460   29.1790 N.3    82  TYR82      -0.1227
      2  CA       -17.3150    8.5440   29.1040 C.3    82  TYR82       0.1736
      3  C        -16.1700    9.2880   28.4170 C.2    82  TYR82       0.2595
      4  O        -15.0790    9.4210   28.9900 O.2    82  TYR82      -0.2718
      5  CB       -17.5810    7.2230   28.3790 C.3    82  TYR82       0.0548
      6  CG       -16.3450    6.3800   28.2740 C.ar   82  TYR82      -0.0200
      7  CD1      -15.9600    5.5410   29.3080 C.ar   82  TYR82      -0.0009
      8  CD2      -15.5150    6.4700   27.1520 C.ar   82  TYR82      -0.0009
      9  CE1      -14.7940    4.7720   29.2070 C.ar   82  TYR82       0.0417
     10  CE2      -14.4020    5.7430   27.0560 C.ar   82  TYR82       0.0417
     11  CZ       -14.0280    4.8810   28.0630 C.ar   82  TYR82       0.1957
     12  OH       -12.8690    4.1320   27.8970 O.3    82  TYR82      -0.2866
     13  N        -16.4010    9.7700   27.1930 N.am   83  HIS83      -0.1975
     14  CA       -15.3540   10.4720   26.4450 C.3    83  HIS83       0.1656
     15  C        -15.2020   11.9260   26.9030 C.2    83  HIS83       0.2291
     16  O        -15.3720   12.8620   26.1080 O.2    83  HIS83      -0.2864
     17  CB       -15.6180   10.4310   24.9230 C.3    83  HIS83       0.0771
     18  CG       -15.4900    9.0720   24.3370 C.ar   83  HIS83       0.0820
     19  ND1      -16.5840    8.2690   24.0890 N.ar   83  HIS83      -0.2267
     20  CD2      -14.3950    8.3350   24.0320 C.ar   83  HIS83       0.1154
     21  CE1      -16.1640    7.1030   23.6230 C.ar   83  HIS83       0.1986
     22  NE2      -14.8420    7.1130   23.5880 N.ar   83  HIS83      -0.2212
     23  N         -9.3190   11.9180   21.9120 N.3   124  ASP124     -0.1239
     24  CA       -10.7830   11.9380   21.8790 C.3   124  ASP124      0.1674
     25  C        -11.3140   13.3810   22.0980 C.2   124  ASP124      0.2266
     26  O        -12.4890   13.5560   22.4920 O.2   124  ASP124     -0.2867
     27  CB       -11.4030   10.9860   22.9570 C.3   124  ASP124      0.1410
     28  CG       -11.5490    9.5220   22.4950 C.2   124  ASP124      0.3668
     29  OD1      -11.6660    9.2860   21.2520 O.co2 124  ASP124     -0.2456
     30  OD2      -11.5410    8.5770   23.3700 O.co2 124  ASP124     -0.2456
     31  N        -15.0240   15.2290   21.6000 N.3   127  HIS127     -0.1241
     32  CA       -15.9390   14.1420   21.3020 C.3   127  HIS127      0.1621
     33  C        -17.3710   14.5330   21.7140 C.2   127  HIS127      0.2264
     34  O        -17.6030   14.9210   22.8510 O.2   127  HIS127     -0.2867
     35  CB       -15.5490   12.8910   22.1040 C.3   127  HIS127      0.0745
     36  CG       -16.0780   11.6180   21.5260 C.ar  127  HIS127      0.0817
     37  ND1      -17.4290   11.3200   21.4940 N.ar  127  HIS127     -0.2268
     38  CD2      -15.4460   10.5680   20.9370 C.ar  127  HIS127      0.1154
     39  CE1      -17.6070   10.1370   20.9260 C.ar  127  HIS127      0.1986
     40  NE2      -16.4250    9.6620   20.5720 N.ar  127  HIS127     -0.2212
     41  N        -21.2390    8.0860   17.9400 N.3   131  SER131     -0.1217
     42  CA       -20.2410    7.4330   17.0930 C.3   131  SER131      0.1889
     43  C        -20.0650    8.0810   15.7210 C.2   131  SER131      0.2288
     44  O        -20.8870    8.9040   15.2930 O.2   131  SER131     -0.2866
     45  CB       -20.6340    5.9580   16.9100 C.3   131  SER131      0.2089
     46  OG       -21.9110    5.8650   16.2740 O.3   131  SER131     -0.2183
     47  N        -11.9210   10.8800   14.6610 N.3   153  GLU153     -0.1245
     48  CA       -10.4970   10.8350   14.8330 C.3   153  GLU153      0.1567
     49  C         -9.8210   11.9720   14.0500 C.2   153  GLU153      0.2260
     50  O         -8.9030   12.6080   14.5730 O.2   153  GLU153     -0.2867
     51  CB        -9.9840    9.4510   14.4230 C.3   153  GLU153      0.0388
     52  CG       -10.4340    8.3120   15.3790 C.3   153  GLU153      0.1160
     53  CD       -11.8990    7.8020   15.1590 C.2   153  GLU153      0.3649
     54  OE1      -12.4960    8.0440   14.0940 O.co2 153  GLU153     -0.2457
     55  OE2      -12.4390    7.0930   16.0610 O.co2 153  GLU153     -0.2457
     56  N         -6.8410    4.8750   16.5630 N.3   194  THR194     -0.1218
     57  CA        -7.7340    4.6300   17.6690 C.3   194  THR194      0.1862
     58  C         -9.1720    4.3730   17.1770 C.2   194  THR194      0.2287
     59  O        -10.0670    4.1750   17.9820 O.2   194  THR194     -0.2866
     60  CB        -7.7620    5.7720   18.7000 C.3   194  THR194      0.1770
     61  OG1       -8.2880    6.9770   18.0990 O.3   194  THR194     -0.2211
     62  CG2       -6.3750    6.0260   19.2560 C.3   194  THR194      0.0375
     63  N        -11.9560    2.2750   15.9900 N.3   196  MET196     -0.1245
     64  CA       -12.1670    0.8460   16.2550 C.3   196  MET196      0.1570
     65  C        -12.3640    0.0900   14.9720 C.2   196  MET196      0.2261
     66  O        -12.1520   -1.1140   14.9360 O.2   196  MET196     -0.2867
     67  CB       -13.3650    0.6130   17.2180 C.3   196  MET196      0.0387
     68  CG       -12.9860    0.8210   18.7060 C.3   196  MET196      0.0595
     69  SD       -11.8330   -0.4850   19.2680 S.3   196  MET196     -0.1393
     70  CE       -12.7540   -1.9890   18.8480 C.3   196  MET196      0.0692
     71  N         -3.5350    2.1970   20.9830 N.3   238  HIS238     -0.1241
     72  CA        -4.8400    1.4890   20.8420 C.3   238  HIS238      0.1621
     73  C         -5.0840    0.6140   22.1020 C.2   238  HIS238      0.2264
     74  O         -6.1560    0.6580   22.7100 O.2   238  HIS238     -0.2867
     75  CB        -4.8520    0.7100   19.5230 C.3   238  HIS238      0.0745
     76  CG        -6.0730   -0.1390   19.3000 C.ar  238  HIS238      0.0817
     77  ND1       -7.3580    0.3740   19.2460 N.ar  238  HIS238     -0.2268
     78  CD2       -6.1970   -1.4620   19.0710 C.ar  238  HIS238      0.1154
     79  CE1       -8.2190   -0.6030   19.0270 C.ar  238  HIS238      0.1986
     80  NE2       -7.5420   -1.7350   18.9380 N.ar  238  HIS238     -0.2212
     81  N         -6.1240    2.8260   24.9040 N.3   241  ASP241     -0.1225
     82  CA        -7.5410    3.2260   24.7060 C.3   241  ASP241      0.1805
     83  C         -8.4760    2.0850   25.1560 C.2   241  ASP241      0.2597
     84  O         -9.6220    2.3170   25.6050 O.2   241  ASP241     -0.2718
     85  CB        -7.7540    3.5950   23.2130 C.3   241  ASP241      0.1424
     86  CG        -8.9280    4.5670   22.9520 C.2   241  ASP241      0.3668
     87  OD1       -9.4420    5.2530   23.8820 O.co2 241  ASP241     -0.2456
     88  OD2       -9.3370    4.6590   21.7460 O.co2 241  ASP241     -0.2456
     89  N         -7.9680    0.8610   25.0360 N.am  242  LEU242     -0.1979
     90  CA        -8.6900   -0.3850   25.3630 C.3   242  LEU242      0.1596
     91  C         -8.1790   -1.0240   26.6550 C.2   242  LEU242      0.2287
     92  O         -8.2010   -2.2450   26.8240 O.2   242  LEU242     -0.2864
     93  CB        -8.5880   -1.3970   24.2040 C.3   242  LEU242      0.0297
     94  CG        -9.5720   -1.1070   23.0720 C.3   242  LEU242      0.0022
     95  CD1       -9.3040   -1.9700   21.8620 C.3   242  LEU242      0.0001
     96  CD2      -11.0320   -1.3280   23.5660 C.3   242  LEU242      0.0001
     97  N         -9.2610   -0.1410   29.8770 N.3   244  ASN244     -0.1226
     98  CA       -10.1820   -0.1200   31.0210 C.3   244  ASN244      0.1770
     99  C        -10.3620   -1.5280   31.6190 C.2   244  ASN244      0.2439
    100  O        -10.2600   -1.7250   32.8500 O.2   244  ASN244     -0.2733
    101  CB       -11.5710    0.3950   30.6410 C.3   244  ASN244      0.1168
    102  CG       -11.5960    1.8270   30.2710 C.2   244  ASN244      0.2627
    103  OD1      -12.6170    2.2920   29.7720 O.2   244  ASN244     -0.2716
    104  ND2      -10.4720    2.5480   30.4530 N.am  244  ASN244     -0.0877
    105  N        -10.6580   -2.5150   30.7490 N.am  245  PRO245     -0.2729
    106  CA       -10.9770   -3.8630   31.2660 C.3   245  PRO245      0.1401
    107  C         -9.8050   -4.5650   31.9330 C.2   245  PRO245      0.2269
    108  O        -10.0230   -5.6110   32.5840 O.2   245  PRO245     -0.2865
    109  CB       -11.4200   -4.6460   30.0020 C.3   245  PRO245      0.0296
    110  CG       -11.8190   -3.5550   28.9970 C.3   245  PRO245      0.0237
    111  CD       -10.8290   -2.4230   29.2830 C.3   245  PRO245      0.0939
    112  N        -12.5670   -0.6240   36.6670 N.3   252  TYR252     -0.1241
    113  CA       -13.3310   -1.0410   35.4800 C.3   252  TYR252      0.1605
    114  C        -14.8750   -0.9100   35.5800 C.2   252  TYR252      0.2264
    115  O        -15.5370   -0.4830   34.6290 O.2   252  TYR252     -0.2867
    116  CB       -12.9160   -2.4390   35.0450 C.3   252  TYR252      0.0534
    117  CG       -13.4960   -2.8710   33.7040 C.ar  252  TYR252     -0.0201
    118  CD1      -13.5330   -1.9850   32.6050 C.ar  252  TYR252     -0.0009
    119  CD2      -14.0030   -4.1620   33.5370 C.ar  252  TYR252     -0.0009
    120  CE1      -14.0690   -2.3870   31.3590 C.ar  252  TYR252      0.0417
    121  CE2      -14.5280   -4.5790   32.2980 C.ar  252  TYR252      0.0417
    122  CZ       -14.5550   -3.6990   31.2140 C.ar  252  TYR252      0.1957
    123  OH       -15.0910   -4.1590   30.0150 O.3   252  TYR252     -0.2866
    124  N        -15.6860    2.5930   34.6750 N.3   255  TRP255     -0.1227
    125  CA       -15.5820    2.8810   33.2360 C.3   255  TRP255      0.1737
    126  C        -16.7710    2.2690   32.5160 C.2   255  TRP255      0.2596
    127  O        -17.2940    2.8320   31.5750 O.2   255  TRP255     -0.2718
    128  CB       -14.3010    2.2750   32.6540 C.3   255  TRP255      0.0564
    129  CG       -13.0090    2.9270   33.1600 C.ar  255  TRP255      0.0003
    130  CD1      -11.9470    2.2900   33.7480 C.ar  255  TRP255      0.0946
    131  CD2      -12.6680    4.3310   33.1340 C.ar  255  TRP255      0.0152
    132  NE1      -10.9740    3.1980   34.0690 N.ar  255  TRP255     -0.2442
    133  CE2      -11.3910    4.4580   33.7230 C.ar  255  TRP255      0.0810
    134  CE3      -13.3170    5.4860   32.6670 C.ar  255  TRP255      0.0012
    135  CZ2      -10.7370    5.6860   33.8390 C.ar  255  TRP255      0.0191
    136  CZ3      -12.6630    6.7200   32.7810 C.ar  255  TRP255      0.0001
    137  CH2      -11.3840    6.8050   33.3740 C.ar  255  TRP255      0.0015
    138  N        -17.1740    1.0800   32.9520 N.am  256  THR256     -0.1953
    139  CA       -18.3070    0.4040   32.3700 C.3   256  THR256      0.1897
    140  C        -19.5840    1.2200   32.5640 C.2   256  THR256      0.2313
    141  O        -20.3390    1.4470   31.5990 O.2   256  THR256     -0.2863
    142  CB       -18.4080   -1.0320   32.9250 C.3   256  THR256      0.1794
    143  OG1      -17.2530   -1.7580   32.4820 O.3   256  THR256     -0.2208
    144  CG2      -19.6500   -1.7420   32.4190 C.3   256  THR256      0.0378
    145  N        -19.4110    4.2720   30.0650 N.3   259  ILE259     -0.1231
    146  CA       -19.5490    4.0330   28.6300 C.3   259  ILE259      0.1692
    147  C        -20.9990    3.5780   28.3600 C.2   259  ILE259      0.2591
    148  O        -21.6080    3.9770   27.3740 O.2   259  ILE259     -0.2718
    149  CB       -18.4690    3.0820   28.0910 C.3   259  ILE259      0.0266
    150  CG1      -18.3590    3.1500   26.5630 C.3   259  ILE259      0.0019
    151  CG2      -18.7060    1.6450   28.5090 C.3   259  ILE259      0.0020
    152  CD1      -18.2950    4.4880   26.0140 C.3   259  ILE259      0.0001
    153  N        -21.5690    2.7660   29.2440 N.am  260  MET260     -0.1979
    154  CA       -22.9540    2.3400   29.0090 C.3   260  MET260      0.1605
    155  C        -23.9110    3.5370   29.0140 C.2   260  MET260      0.2287
    156  O        -24.8680    3.6010   28.2120 O.2   260  MET260     -0.2864
    157  CB       -23.4090    1.2460   29.9900 C.3   260  MET260      0.0413
    158  CG       -22.5600   -0.0400   29.9110 C.3   260  MET260      0.0598
    159  SD       -22.5210   -0.8550   28.2760 S.3   260  MET260     -0.1393
    160  CE       -24.2950   -0.8540   27.9110 C.3   260  MET260      0.0692
    161  N        -23.5070    5.3010   25.7620 N.3   263  PHE263     -0.1241
    162  CA       -24.2010    4.5050   24.7470 C.3   263  PHE263      0.1605
    163  C        -25.7090    4.7480   24.8290 C.2   263  PHE263      0.2264
    164  O        -26.3650    5.0390   23.8210 O.2   263  PHE263     -0.2867
    165  CB       -23.9160    3.0130   24.8720 C.3   263  PHE263      0.0534
    166  CG       -22.5330    2.6280   24.4730 C.ar  263  PHE263     -0.0203
    167  CD1      -21.7620    3.4640   23.6750 C.ar  263  PHE263     -0.0042
    168  CD2      -22.0070    1.3800   24.8420 C.ar  263  PHE263     -0.0042
    169  CE1      -20.4690    3.0870   23.2880 C.ar  263  PHE263     -0.0003
    170  CE2      -20.7400    1.0090   24.4670 C.ar  263  PHE263     -0.0003
    171  CZ       -19.9590    1.8830   23.6780 C.ar  263  PHE263     -0.0000
    172  N        -25.7160   -2.3390   21.8240 N.3   280  MET280     -0.1245
    173  CA       -25.3650   -1.9350   23.1680 C.3   280  MET280      0.1570
    174  C        -25.8980   -0.5600   23.5310 C.2   280  MET280      0.2261
    175  O        -25.6500   -0.1160   24.6200 O.2   280  MET280     -0.2867
    176  CB       -23.8430   -1.9690   23.3870 C.3   280  MET280      0.0387
    177  CG       -23.2650   -3.4130   23.3300 C.3   280  MET280      0.0595
    178  SD       -21.5020   -3.3740   23.8070 S.3   280  MET280     -0.1393
    179  CE       -20.7810   -2.5170   22.4240 C.3   280  MET280      0.0692
    180  N        -25.3790   -5.7260   30.2330 N.3   288  VAL288     -0.1245
    181  CA       -24.0120   -5.3790   30.4330 C.3   288  VAL288      0.1561
    182  C        -23.1640   -6.6310   30.5990 C.2   288  VAL288      0.2260
    183  O        -22.1090   -6.7410   29.9910 O.2   288  VAL288     -0.2867
    184  CB       -23.8670   -4.4850   31.6610 C.3   288  VAL288      0.0252
    185  CG1      -22.4150   -4.0080   31.8140 C.3   288  VAL288      0.0019
    186  CG2      -24.7830   -3.2910   31.5180 C.3   288  VAL288      0.0019
    187  N        -22.7020   -8.4350   27.4860 N.3   291  SER291     -0.1202
    188  CA       -21.8770   -7.6780   26.5820 C.3   291  SER291      0.2020
    189  C        -20.4250   -7.6970   27.0760 C.2   291  SER291      0.2618
    190  O        -19.4890   -7.6990   26.2620 O.2   291  SER291     -0.2717
    191  CB       -22.4010   -6.2510   26.4000 C.3   291  SER291      0.2103
    192  OG       -23.7110   -6.2900   25.8320 O.3   291  SER291     -0.2182
    193  N        -20.2320   -7.7390   28.3970 N.am  292  GLN292     -0.1979
    194  CA       -18.8790   -7.6980   28.9110 C.3   292  GLN292      0.1601
    195  C        -18.0830   -8.8800   28.4310 C.2   292  GLN292      0.2287
    196  O        -16.9650   -8.6970   27.9640 O.2   292  GLN292     -0.2864
    197  CB       -18.8390   -7.6740   30.4450 C.3   292  GLN292      0.0394
    198  CG       -19.0620   -6.3030   31.0330 C.3   292  GLN292      0.0908
    199  CD       -17.8050   -5.4910   31.0500 C.2   292  GLN292      0.2608
    200  OE1      -16.8590   -5.7420   30.2920 O.2   292  GLN292     -0.2717
    201  NE2      -17.7700   -4.5130   31.9290 N.am  292  GLN292     -0.0878
    202  N        -17.4010   -8.8560   24.6710 N.3   295  PHE295     -0.1241
    203  CA       -16.4840   -7.7830   24.3170 C.3   295  PHE295      0.1605
    204  C        -15.0510   -8.1470   24.7110 C.2   295  PHE295      0.2264
    205  O        -14.1280   -7.9370   23.9350 O.2   295  PHE295     -0.2867
    206  CB       -16.9120   -6.4940   25.0070 C.3   295  PHE295      0.0534
    207  CG       -15.9110   -5.3470   24.9010 C.ar  295  PHE295     -0.0203
    208  CD1      -15.6620   -4.7140   23.6870 C.ar  295  PHE295     -0.0042
    209  CD2      -15.3620   -4.7990   26.0460 C.ar  295  PHE295     -0.0042
    210  CE1      -14.7680   -3.5990   23.6090 C.ar  295  PHE295     -0.0003
    211  CE2      -14.5090   -3.6790   25.9920 C.ar  295  PHE295     -0.0003
    212  CZ       -14.2030   -3.0900   24.7630 C.ar  295  PHE295     -0.0000
    213  N        -21.2740   -2.8720   15.5390 N.3   345  LYS345     -0.1231
    214  CA       -21.0010   -1.6890   16.3080 C.3   345  LYS345      0.1693
    215  C        -19.6960   -1.0800   15.8260 C.2   345  LYS345      0.2592
    216  O        -19.6140    0.1440   15.6430 O.2   345  LYS345     -0.2718
    217  CB       -20.8410   -2.0470   17.7840 C.3   345  LYS345      0.0285
    218  CG       -20.3850   -0.8740   18.6790 C.3   345  LYS345      0.0035
    219  CD       -21.5430   -0.2020   19.2910 C.3   345  LYS345      0.0206
    220  CE       -21.8380    1.1700   18.7070 C.3   345  LYS345      0.1093
    221  NZ       -21.3830    2.2640   19.6320 N.3   345  LYS345     -0.1314
    222  N        -18.6650   -1.9190   15.6640 N.am  346  PHE346     -0.1976
    223  CA       -17.3540   -1.3980   15.3600 C.3   346  PHE346      0.1639
    224  C        -17.0660   -1.1970   13.8610 C.2   346  PHE346      0.2290
    225  O        -16.1280   -0.5040   13.5440 O.2   346  PHE346     -0.2864
    226  CB       -16.2540   -2.2090   16.0640 C.3   346  PHE346      0.0560
    227  CG       -16.3700   -2.1750   17.5750 C.ar  346  PHE346     -0.0200
    228  CD1      -16.5360   -0.9650   18.2360 C.ar  346  PHE346     -0.0042
    229  CD2      -16.3530   -3.3590   18.3230 C.ar  346  PHE346     -0.0042
    230  CE1      -16.6620   -0.9140   19.6120 C.ar  346  PHE346     -0.0003
    231  CE2      -16.4640   -3.3160   19.6960 C.ar  346  PHE346     -0.0003
    232  CZ       -16.6350   -2.0950   20.3450 C.ar  346  PHE346     -0.0000
@<TRIPOS>BOND
     1   225   224    2
     2   224   223    1
     3    49    50    2
     4    49    48    1
     5    54    53   ar
     6    51    48    1
     7    51    52    1
     8    47    48    1
     9    66    65    2
    10    65    64    1
    11    53    52    1
    12    53    55   ar
    13    44    43    2
    14   223   222    1
    15   223   226    1
    16   213   214    1
    17   216   215    2
    18   222   215   am
    19    43    42    1
    20   215   214    1
    21    63    64    1
    22   226   227    1
    23    64    67    1
    24    46    45    1
    25   214   217    1
    26    56    57    1
    27    45    42    1
    28    42    41    1
    29    58    57    1
    30    58    59    2
    31    67    68    1
    32   227   228   ar
    33   227   229   ar
    34    57    60    1
    35   217   218    1
    36    61    60    1
    37   228   230   ar
    38   229   231   ar
    39   218   219    1
    40    60    62    1
    41    68    69    1
    42   220   219    1
    43   220   221    1
    44    70    69    1
    45    80    79   ar
    46    80    78   ar
    47    79    77   ar
    48    78    76   ar
    49    77    76   ar
    50    76    75    1
    51    75    72    1
    52   230   232   ar
    53   231   232   ar
    54    40    39   ar
    55    40    38   ar
    56    72    71    1
    57    72    73    1
    58    39    37   ar
    59    38    36   ar
    60    29    28   ar
    61    32    31    1
    62    32    33    1
    63    32    35    1
    64    37    36   ar
    65    36    35    1
    66    33    34    2
    67    88    86   ar
    68   172   173    1
    69    95    94    1
    70    24    23    1
    71    24    25    1
    72    24    27    1
    73    25    26    2
    74    73    74    2
    75   179   178    1
    76    28    27    1
    77    28    30   ar
    78    86    85    1
    79    86    87   ar
    80    94    96    1
    81    94    93    1
    82   173   176    1
    83   173   174    1
    84    85    82    1
    85   169   167   ar
    86   169   171   ar
    87   177   176    1
    88   177   178    1
    89   174   175    2
    90    22    21   ar
    91    22    20   ar
    92   210   208   ar
    93   210   212   ar
    94    21    19   ar
    95   167   166   ar
    96   171   170   ar
    97   208   207   ar
    98   164   163    2
    99   205   204    2
   100    20    18   ar
   101    19    18   ar
   102    93    90    1
   103   203   202    1
   104   203   204    1
   105   203   206    1
   106    18    17    1
   107   170   168   ar
   108   166   168   ar
   109   166   165    1
   110    82    81    1
   111    82    83    1
   112   162   163    1
   113   162   165    1
   114   162   161    1
   115   212   211   ar
   116   207   206    1
   117   207   209   ar
   118    17    14    1
   119    89    83   am
   120    89    90    1
   121    83    84    2
   122    90    91    1
   123   192   191    1
   124   211   209   ar
   125   152   150    1
   126    16    15    2
   127   190   189    2
   128   191   188    1
   129    14    15    1
   130    14    13    1
   131   150   149    1
   132   188   189    1
   133   188   187    1
   134    91    92    2
   135    10     8   ar
   136    10    11   ar
   137   189   193   am
   138     8     6   ar
   139    13     3   am
   140   148   147    2
   141    12    11    1
   142   160   159    1
   143   196   195    2
   144    11     9   ar
   145   149   151    1
   146   149   146    1
   147   156   155    2
   148     6     5    1
   149     6     7   ar
   150   159   158    1
   151   147   146    1
   152   147   153   am
   153     5     2    1
   154   193   194    1
   155     3     4    2
   156     3     2    1
   157   195   194    1
   158   146   145    1
   159   194   197    1
   160   110   111    1
   161   110   109    1
   162   154   155    1
   163   154   153    1
   164   154   157    1
   165     2     1    1
   166     9     7   ar
   167   111   105    1
   168   103   102    2
   169    97    98    1
   170   158   157    1
   171   183   182    2
   172   109   106    1
   173   123   122    1
   174   180   181    1
   175   102   104   am
   176   102   101    1
   177   200   199    2
   178   181   182    1
   179   181   184    1
   180   197   198    1
   181   101    98    1
   182   105   106    1
   183   105    99   am
   184    98    99    1
   185   198   199    1
   186   199   201   am
   187   122   120   ar
   188   122   121   ar
   189   106   107    1
   190   120   118   ar
   191   186   184    1
   192   127   126    2
   193   141   140    2
   194    99   100    2
   195   184   185    1
   196   107   108    2
   197   121   119   ar
   198   139   140    1
   199   139   142    1
   200   139   138    1
   201   144   142    1
   202   143   142    1
   203   126   138   am
   204   126   125    1
   205   118   117   ar
   206   128   129    1
   207   128   125    1
   208   134   136   ar
   209   134   131   ar
   210   136   137   ar
   211   131   129   ar
   212   131   133   ar
   213   129   130   ar
   214   125   124    1
   215   137   135   ar
   216   119   117   ar
   217   117   116    1
   218   133   135   ar
   219   133   132   ar
   220   130   132   ar
   221   115   114    2
   222   116   113    1
   223   113   114    1
   224   113   112    1
