@<TRIPOS>MOLECULE
tmp/3hmxA00.pdb
 117 114 0 0 0
SMALL
GASTEIGER

@<TRIPOS>ATOM
      1  N         40.7620   21.4480   25.9050 N.3     1  ILE1       -0.1231
      2  CA        40.7420   20.0850   26.4290 C.3     1  ILE1        0.1692
      3  C         41.4630   20.0000   27.7660 C.2     1  ILE1        0.2592
      4  O         42.6360   20.3470   27.8720 O.2     1  ILE1       -0.2718
      5  CB        41.3700   19.0660   25.4400 C.3     1  ILE1        0.0266
      6  CG1       41.0710   17.6280   25.8750 C.3     1  ILE1        0.0019
      7  CG2       42.8710   19.2740   25.3110 C.3     1  ILE1        0.0020
      8  CD1       42.0310   16.6120   25.3140 C.3     1  ILE1        0.0001
      9  N         40.7520   19.5460   28.7920 N.am    2  TRP2       -0.1962
     10  CA        41.3540   19.3630   30.1140 C.3     2  TRP2        0.1771
     11  C         41.1170   17.9710   30.6690 C.2     2  TRP2        0.2620
     12  O         40.3500   17.1960   30.1060 O.2     2  TRP2       -0.2715
     13  CB        40.8780   20.4210   31.1150 C.3     2  TRP2        0.0590
     14  CG        39.3920   20.6540   31.1830 C.ar    2  TRP2        0.0006
     15  CD1       38.6520   21.4350   30.3540 C.ar    2  TRP2        0.0946
     16  CD2       38.4830   20.1390   32.1660 C.ar    2  TRP2        0.0152
     17  NE1       37.3360   21.4290   30.7430 N.ar    2  TRP2       -0.2442
     18  CE2       37.2060   20.6420   31.8540 C.ar    2  TRP2        0.0810
     19  CE3       38.6250   19.3000   33.2720 C.ar    2  TRP2        0.0012
     20  CZ2       36.0770   20.3330   32.6090 C.ar    2  TRP2        0.0191
     21  CZ3       37.4990   18.9900   34.0200 C.ar    2  TRP2        0.0001
     22  CH2       36.2440   19.5050   33.6830 C.ar    2  TRP2        0.0015
     23  N         41.7840   17.6600   31.7740 N.am    3  GLU3       -0.1963
     24  CA        41.7200   16.3250   32.3460 C.3     3  GLU3        0.1733
     25  C         40.7520   16.2490   33.5180 C.2     3  GLU3        0.2616
     26  O         40.8080   17.0620   34.4290 O.2     3  GLU3       -0.2715
     27  CB        43.1120   15.8690   32.7810 C.3     3  GLU3        0.0429
     28  CG        43.1290   14.4730   33.3740 C.3     3  GLU3        0.1163
     29  CD        44.5220   13.9910   33.6960 C.2     3  GLU3        0.3649
     30  OE1       45.4530   14.3170   32.9320 O.co2   3  GLU3       -0.2457
     31  OE2       44.6860   13.2860   34.7130 O.co2   3  GLU3       -0.2457
     32  N         39.8640   15.2660   33.4870 N.am    4  LEU4       -0.1977
     33  CA        38.9570   15.0060   34.5960 C.3     4  LEU4        0.1596
     34  C         39.6260   14.0270   35.5570 C.2     4  LEU4        0.2287
     35  O         40.2910   14.4400   36.5040 O.2     4  LEU4       -0.2864
     36  CB        37.6540   14.4230   34.0660 C.3     4  LEU4        0.0297
     37  CG        36.3960   14.5950   34.9110 C.3     4  LEU4        0.0022
     38  CD1       36.2290   16.0400   35.3120 C.3     4  LEU4        0.0001
     39  CD2       35.1850   14.1110   34.1380 C.3     4  LEU4        0.0001
     40  N         35.2610   21.1770   25.5860 N.3    12  GLU12      -0.1245
     41  CA        34.0860   22.0250   25.5700 C.3    12  GLU12       0.1567
     42  C         33.8560   22.6060   24.1790 C.2    12  GLU12       0.2260
     43  O         34.8050   23.0140   23.5080 O.2    12  GLU12      -0.2867
     44  CB        34.2690   23.1340   26.6030 C.3    12  GLU12       0.0388
     45  CG        35.7260   23.3130   27.0460 C.3    12  GLU12       0.1160
     46  CD        35.8620   24.1180   28.3350 C.2    12  GLU12       0.3649
     47  OE1       35.7350   25.3600   28.2810 O.co2  12  GLU12      -0.2457
     48  OE2       36.1050   23.5140   29.4030 O.co2  12  GLU12      -0.2457
     49  N         31.6080   18.7170   26.9930 N.3    83  HIS83      -0.1241
     50  CA        30.8610   19.6830   27.7800 C.3    83  HIS83       0.1621
     51  C         30.2760   20.6950   26.7980 C.2    83  HIS83       0.2264
     52  O         31.0040   21.3920   26.0890 O.2    83  HIS83      -0.2867
     53  CB        31.7580   20.3450   28.8370 C.3    83  HIS83       0.0745
     54  CG        31.0170   20.9530   29.9840 C.ar   83  HIS83       0.0817
     55  ND1       29.6790   20.6970   30.2290 N.ar   83  HIS83      -0.2268
     56  CD2       31.4210   21.7800   30.9740 C.ar   83  HIS83       0.1154
     57  CE1       29.2980   21.3590   31.3070 C.ar   83  HIS83       0.1986
     58  NE2       30.3380   22.0220   31.7780 N.ar   83  HIS83      -0.2212
     59  N         26.0240   26.6400   29.9280 N.3    90  TRP90      -0.1241
     60  CA        26.3880   25.2390   29.7840 C.3    90  TRP90       0.1605
     61  C         25.1470   24.3660   29.8830 C.2    90  TRP90       0.2264
     62  O         24.1140   24.7940   30.3850 O.2    90  TRP90      -0.2867
     63  CB        27.3800   24.8320   30.8710 C.3    90  TRP90       0.0550
     64  CG        28.6940   25.5510   30.8290 C.ar   90  TRP90       0.0003
     65  CD1       29.0850   26.5840   31.6200 C.ar   90  TRP90       0.0946
     66  CD2       29.7980   25.2730   29.9570 C.ar   90  TRP90       0.0152
     67  NE1       30.3620   26.9740   31.2960 N.ar   90  TRP90      -0.2442
     68  CE2       30.8220   26.1850   30.2760 C.ar   90  TRP90       0.0810
     69  CE3       30.0170   24.3430   28.9310 C.ar   90  TRP90       0.0012
     70  CZ2       32.0500   26.1940   29.6080 C.ar   90  TRP90       0.0191
     71  CZ3       31.2380   24.3530   28.2690 C.ar   90  TRP90       0.0001
     72  CH2       32.2370   25.2720   28.6100 C.ar   90  TRP90       0.0015
     73  N         32.4260   16.8200   45.5380 N.3   135  LYS135     -0.1245
     74  CA        33.5090   17.4470   46.2850 C.3   135  LYS135      0.1561
     75  C         32.9680   18.6920   46.9750 C.2   135  LYS135      0.2260
     76  O         31.9680   19.2540   46.5390 O.2   135  LYS135     -0.2867
     77  CB        34.6990   17.7910   45.3730 C.3   135  LYS135      0.0271
     78  CG        34.4240   18.8120   44.2610 C.3   135  LYS135      0.0035
     79  CD        33.8280   18.1660   43.0040 C.3   135  LYS135      0.0206
     80  CE        34.8460   17.3110   42.2660 C.3   135  LYS135      0.1093
     81  NZ        34.1910   16.2300   41.4790 N.3   135  LYS135     -0.1314
     82  N         30.0970   20.6890   44.7780 N.3   189  MET189     -0.1245
     83  CA        30.4040   20.4930   43.3680 C.3   189  MET189      0.1570
     84  C         30.1240   19.0670   42.9020 C.2   189  MET189      0.2261
     85  O         30.7980   18.1300   43.3120 O.2   189  MET189     -0.2867
     86  CB        31.8690   20.8330   43.0910 C.3   189  MET189      0.0387
     87  CG        32.1440   22.3010   42.8810 C.3   189  MET189      0.0595
     88  SD        32.4180   23.1760   44.4210 S.3   189  MET189     -0.1393
     89  CE        33.8770   22.3300   45.0270 C.3   189  MET189      0.0692
     90  N         30.0670   16.5290   39.6620 N.3   191  ASP191     -0.1239
     91  CA        30.3870   16.1880   38.2800 C.3   191  ASP191      0.1674
     92  C         29.4140   15.1280   37.7950 C.2   191  ASP191      0.2266
     93  O         29.3880   14.0190   38.3170 O.2   191  ASP191     -0.2867
     94  CB        31.8120   15.6450   38.1660 C.3   191  ASP191      0.1410
     95  CG        32.8590   16.7350   38.2060 C.2   191  ASP191      0.3668
     96  OD1       32.4860   17.9190   38.3270 O.co2 191  ASP191     -0.2456
     97  OD2       34.0600   16.4110   38.1160 O.co2 191  ASP191     -0.2456
     98  N         29.2770   15.3090   29.5600 N.3   198  TYR198     -0.1241
     99  CA        29.7500   15.7500   30.8670 C.3   198  TYR198      0.1605
    100  C         29.0720   17.0470   31.2760 C.2   198  TYR198      0.2264
    101  O         28.7740   17.8880   30.4410 O.2   198  TYR198     -0.2867
    102  CB        31.2620   15.9500   30.8430 C.3   198  TYR198      0.0534
    103  CG        31.7860   16.7110   32.0310 C.ar  198  TYR198     -0.0201
    104  CD1       32.1590   16.0540   33.1960 C.ar  198  TYR198     -0.0009
    105  CD2       31.9020   18.0910   31.9920 C.ar  198  TYR198     -0.0009
    106  CE1       32.6370   16.7510   34.2850 C.ar  198  TYR198      0.0417
    107  CE2       32.3770   18.7980   33.0760 C.ar  198  TYR198      0.0417
    108  CZ        32.7440   18.1240   34.2200 C.ar  198  TYR198      0.1957
    109  OH        33.2160   18.8280   35.3050 O.3   198  TYR198     -0.2866
    110  N         28.8000   19.7780   35.0810 N.3   200  ASN200     -0.1240
    111  CA        29.0230   19.9290   36.5160 C.3   200  ASN200      0.1653
    112  C         28.1500   20.9890   37.1760 C.2   200  ASN200      0.2266
    113  O         28.0000   22.0890   36.6660 O.2   200  ASN200     -0.2867
    114  CB        30.5110   20.0970   36.8720 C.3   200  ASN200      0.1155
    115  CG        31.1410   21.3310   36.2620 C.2   200  ASN200      0.2627
    116  OD1       30.4880   22.3510   36.0710 O.2   200  ASN200     -0.2716
    117  ND2       32.4340   21.2390   35.9640 N.am  200  ASN200     -0.0877
@<TRIPOS>BOND
     1    43    42    2
     2    42    41    1
     3     7     5    1
     4     8     6    1
     5     5     6    1
     6     5     2    1
     7    41    40    1
     8    41    44    1
     9     1     2    1
    10    52    51    2
    11     2     3    1
    12    44    45    1
    13    51    50    1
    14    49    50    1
    15    45    46    1
    16     3     4    2
    17     3     9   am
    18    50    53    1
    19    71    72   ar
    20    71    69   ar
    21    47    46   ar
    22    46    48   ar
    23    72    70   ar
    24     9    10    1
    25    53    54    1
    26    69    66   ar
    27    98    99    1
    28    70    68   ar
    29    60    61    1
    30    60    59    1
    31    60    63    1
    32    61    62    2
    33    66    68   ar
    34    66    64   ar
    35    54    55   ar
    36    54    56   ar
    37    12    11    2
    38    10    11    1
    39    10    13    1
    40    55    57   ar
    41    68    67   ar
    42    15    17   ar
    43    15    14   ar
    44   101   100    2
    45    11    23   am
    46    17    18   ar
    47    64    63    1
    48    64    65   ar
    49   102    99    1
    50   102   103    1
    51    99   100    1
    52    56    58   ar
    53    13    14    1
    54    14    16   ar
    55    67    65   ar
    56    57    58   ar
    57    23    24    1
    58    18    16   ar
    59    18    20   ar
    60   105   103   ar
    61   105   107   ar
    62   103   104   ar
    63    16    19   ar
    64    24    27    1
    65    24    25    1
    66    20    22   ar
    67    27    28    1
    68    30    29   ar
    69   107   108   ar
    70   104   106   ar
    71    19    21   ar
    72    28    29    1
    73    32    25   am
    74    32    33    1
    75    25    26    2
    76    22    21   ar
    77    29    31   ar
    78    36    33    1
    79    36    37    1
    80    39    37    1
    81   108   106   ar
    82   108   109    1
    83    33    34    1
    84    37    38    1
    85   110   111    1
    86    34    35    2
    87   117   115   am
    88   116   115    2
    89   115   114    1
    90   111   114    1
    91   111   112    1
    92   113   112    2
    93    92    91    1
    94    92    93    2
    95    97    95   ar
    96    94    95    1
    97    94    91    1
    98    95    96   ar
    99    91    90    1
   100    81    80    1
   101    80    79    1
   102    87    86    1
   103    87    88    1
   104    84    85    2
   105    84    83    1
   106    79    78    1
   107    86    83    1
   108    83    82    1
   109    78    77    1
   110    88    89    1
   111    77    74    1
   112    73    74    1
   113    74    75    1
   114    76    75    2
