@<TRIPOS>MOLECULE
tmp/3hmyA00.pdb
 118 110 0 0 0
SMALL
GASTEIGER

@<TRIPOS>ATOM
      1  N         57.9030   35.6190   68.8990 N.3   270  LYS270     -0.1245
      2  CA        57.5290   36.9800   69.2810 C.3   270  LYS270      0.1561
      3  C         58.7960   37.8320   69.4280 C.2   270  LYS270      0.2260
      4  O         58.9280   38.8810   68.8000 O.2   270  LYS270     -0.2867
      5  CB        56.7580   36.9700   70.6070 C.3   270  LYS270      0.0271
      6  CG        56.5020   38.3590   71.2020 C.3   270  LYS270      0.0035
      7  CD        55.5000   39.1640   70.3820 C.3   270  LYS270      0.0206
      8  CE        55.3840   40.6060   70.8850 C.3   270  LYS270      0.1093
      9  NZ        55.0440   40.6790   72.3340 N.3   270  LYS270     -0.1314
     10  N         61.1210   35.6080   74.6390 N.3   274  ASP274     -0.1225
     11  CA        59.6640   35.5080   74.6630 C.3   274  ASP274      0.1805
     12  C         59.0580   34.2300   74.0760 C.2   274  ASP274      0.2597
     13  O         59.7530   33.2310   73.8620 O.2   274  ASP274     -0.2718
     14  CB        59.0340   36.7270   73.9880 C.3   274  ASP274      0.1424
     15  CG        57.8460   37.2740   74.7730 C.2   274  ASP274      0.3668
     16  OD1       57.2650   36.5190   75.5850 O.co2 274  ASP274     -0.2456
     17  OD2       57.4870   38.4520   74.5760 O.co2 274  ASP274     -0.2456
     18  N         57.7540   34.2830   73.8070 N.am  275  TYR275     -0.1976
     19  CA        57.0150   33.1290   73.3000 C.3   275  TYR275      0.1639
     20  C         56.9700   32.9080   71.7890 C.2   275  TYR275      0.2290
     21  O         57.3660   33.7600   70.9980 O.2   275  TYR275     -0.2864
     22  CB        55.5750   33.1600   73.8340 C.3   275  TYR275      0.0560
     23  CG        54.6920   34.2530   73.2510 C.ar  275  TYR275     -0.0198
     24  CD1       54.7110   35.5570   73.7640 C.ar  275  TYR275     -0.0009
     25  CD2       53.8260   33.9760   72.1960 C.ar  275  TYR275     -0.0009
     26  CE1       53.8760   36.5550   73.2380 C.ar  275  TYR275      0.0417
     27  CE2       52.9950   34.9600   71.6600 C.ar  275  TYR275      0.0417
     28  CZ        53.0210   36.2440   72.1840 C.ar  275  TYR275      0.1957
     29  OH        52.1870   37.1970   71.6500 O.3   275  TYR275     -0.2866
     30  N         60.8130   28.9820   85.7690 N.3   340  LYS340     -0.1231
     31  CA        60.0650   28.7840   87.0020 C.3   340  LYS340      0.1693
     32  C         59.0960   29.9410   87.1800 C.2   340  LYS340      0.2592
     33  O         59.4720   31.1030   87.0260 O.2   340  LYS340     -0.2718
     34  CB        61.0070   28.7160   88.2080 C.3   340  LYS340      0.0285
     35  CG        60.2770   28.4060   89.5110 C.3   340  LYS340      0.0035
     36  CD        61.2240   28.3680   90.6970 C.3   340  LYS340      0.0206
     37  CE        60.4810   27.9430   91.9520 C.3   340  LYS340      0.1093
     38  NZ        61.3740   27.8950   93.1350 N.3   340  LYS340     -0.1314
     39  N         57.8470   29.6090   87.4920 N.am  341  ASP341     -0.1960
     40  CA        56.7900   30.5990   87.6940 C.3   341  ASP341      0.1840
     41  C         56.4940   31.4290   86.4530 C.2   341  ASP341      0.2623
     42  O         55.8540   32.4780   86.5440 O.2   341  ASP341     -0.2715
     43  CB        57.1410   31.5400   88.8550 C.3   341  ASP341      0.1450
     44  CG        57.1850   30.8250   90.1900 C.2   341  ASP341      0.3671
     45  OD1       56.3020   29.9740   90.4320 O.co2 341  ASP341     -0.2456
     46  OD2       58.0910   31.1160   91.0010 O.co2 341  ASP341     -0.2456
     47  N         56.9570   30.9660   85.2950 N.am  342  GLY342     -0.1940
     48  CA        56.7060   31.7010   84.0670 C.3   342  GLY342      0.2014
     49  C         55.2200   31.7970   83.7660 C.2   342  GLY342      0.2638
     50  O         54.4300   30.9770   84.2390 O.2   342  GLY342     -0.2714
     51  N         54.8330   32.7970   82.9790 N.am  343  ASN343     -0.1972
     52  CA        53.4300   32.9780   82.6260 C.3   343  ASN343      0.1688
     53  C         52.8960   31.6790   82.0360 C.2   343  ASN343      0.2292
     54  O         53.5830   30.9970   81.2790 O.2   343  ASN343     -0.2864
     55  CB        53.2690   34.1120   81.6090 C.3   343  ASN343      0.1181
     56  CG        51.8080   34.4230   81.2980 C.2   343  ASN343      0.2629
     57  OD1       50.8920   33.9250   81.9620 O.2   343  ASN343     -0.2716
     58  ND2       51.5850   35.2420   80.2850 N.am  343  ASN343     -0.0877
     59  N         53.7120   28.4570   79.0890 N.3   351  ILE351     -0.1245
     60  CA        54.1450   29.1120   77.8650 C.3   351  ILE351      0.1561
     61  C         55.6510   28.9550   77.6610 C.2   351  ILE351      0.2260
     62  O         56.4560   29.3840   78.4900 O.2   351  ILE351     -0.2867
     63  CB        53.7440   30.6040   77.8900 C.3   351  ILE351      0.0252
     64  CG1       52.2120   30.7140   77.9410 C.3   351  ILE351      0.0019
     65  CG2       54.2920   31.3220   76.6580 C.3   351  ILE351      0.0019
     66  CD1       51.6800   32.0630   78.4720 C.3   351  ILE351      0.0001
     67  N         59.4080   29.4880   76.2290 N.3   353  ARG353     -0.1245
     68  CA        60.1910   30.7040   76.0070 C.3   353  ARG353      0.1563
     69  C         61.4660   30.3650   75.2430 C.2   353  ARG353      0.2260
     70  O         62.0420   29.2920   75.4340 O.2   353  ARG353     -0.2867
     71  CB        60.5310   31.3440   77.3550 C.3   353  ARG353      0.0307
     72  CG        59.3000   31.6830   78.1850 C.3   353  ARG353      0.0489
     73  CD        58.5130   32.8140   77.5560 C.3   353  ARG353      0.2205
     74  NE        58.9520   34.1290   78.0270 N.pl3 353  ARG353     -0.0865
     75  CZ        58.6260   34.6490   79.2090 C.cat 353  ARG353      0.5346
     76  NH1       57.8580   33.9670   80.0520 N.pl3 353  ARG353      0.1354
     77  NH2       59.0560   35.8600   79.5460 N.pl3 353  ARG353      0.1354
     78  N         65.2930   32.5220   77.0780 N.3   356  TYR356     -0.1241
     79  CA        64.9490   33.2180   78.3130 C.3   356  TYR356      0.1605
     80  C         66.2100   33.1940   79.1650 C.2   356  TYR356      0.2264
     81  O         66.8660   32.1600   79.2730 O.2   356  TYR356     -0.2867
     82  CB        63.8050   32.4910   79.0180 C.3   356  TYR356      0.0534
     83  CG        63.3300   33.1390   80.2990 C.ar  356  TYR356     -0.0201
     84  CD1       63.9330   32.8460   81.5210 C.ar  356  TYR356     -0.0009
     85  CD2       62.2510   34.0250   80.2930 C.ar  356  TYR356     -0.0009
     86  CE1       63.4660   33.4140   82.7070 C.ar  356  TYR356      0.0417
     87  CE2       61.7800   34.5970   81.4680 C.ar  356  TYR356      0.0417
     88  CZ        62.3840   34.2870   82.6700 C.ar  356  TYR356      0.1957
     89  OH        61.8890   34.8300   83.8330 O.3   356  TYR356     -0.2866
     90  N         66.5820   35.4200   82.4200 N.3   358  ALA358     -0.1245
     91  CA        66.4700   36.2570   83.6100 C.3   358  ALA358      0.1562
     92  C         67.3780   35.6550   84.6780 C.2   358  ALA358      0.2260
     93  O         67.2440   34.4840   85.0280 O.2   358  ALA358     -0.2867
     94  CB        65.0310   36.2850   84.0990 C.3   358  ALA358      0.0290
     95  N         66.6370   32.9680   87.8870 N.3   361  ILE361     -0.1245
     96  CA        65.3920   32.2470   87.6490 C.3   361  ILE361      0.1561
     97  C         65.6760   30.9590   86.8860 C.2   361  ILE361      0.2260
     98  O         66.0910   30.9890   85.7290 O.2   361  ILE361     -0.2867
     99  CB        64.3800   33.1010   86.8460 C.3   361  ILE361      0.0252
    100  CG1       64.0390   34.3730   87.6280 C.3   361  ILE361      0.0019
    101  CG2       63.1050   32.2930   86.5800 C.3   361  ILE361      0.0019
    102  CD1       62.9560   35.2150   86.9830 C.3   361  ILE361      0.0001
    103  N         48.5790   37.2050   75.2430 N.3   402  ILE402     -0.1245
    104  CA        49.5650   37.6470   76.2080 C.3   402  ILE402      0.1561
    105  C         49.5840   39.1700   76.1890 C.2   402  ILE402      0.2260
    106  O         49.8820   39.7800   75.1640 O.2   402  ILE402     -0.2867
    107  CB        50.9530   37.0890   75.8440 C.3   402  ILE402      0.0252
    108  CG1       50.9530   35.5710   76.0610 C.3   402  ILE402      0.0019
    109  CG2       52.0330   37.7880   76.6660 C.3   402  ILE402      0.0019
    110  CD1       52.2260   34.8750   75.6550 C.3   402  ILE402      0.0001
    111  N         48.7980   41.6500   73.0480 N.3   405  ASP405     -0.1239
    112  CA        49.0650   41.0270   71.7540 C.3   405  ASP405      0.1674
    113  C         47.7850   40.4110   71.1980 C.2   405  ASP405      0.2266
    114  O         46.8510   40.1210   71.9470 O.2   405  ASP405     -0.2867
    115  CB        50.1270   39.9260   71.8860 C.3   405  ASP405      0.1410
    116  CG        51.5220   40.4790   72.1090 C.2   405  ASP405      0.3668
    117  OD1       51.7280   41.6890   71.8700 O.co2 405  ASP405     -0.2456
    118  OD2       52.4140   39.6980   72.5070 O.co2 405  ASP405     -0.2456
@<TRIPOS>BOND
     1     4     3    2
     2     1     2    1
     3     2     3    1
     4     2     5    1
     5     7     8    1
     6     7     6    1
     7     5     6    1
     8     8     9    1
     9    21    20    2
    10   113   112    1
    11   113   114    2
    12    29    28    1
    13    27    28   ar
    14    27    25   ar
    15   112   115    1
    16   112   111    1
    17    20    19    1
    18   117   116   ar
    19   115   116    1
    20   116   118   ar
    21    28    26   ar
    22    25    23   ar
    23    26    24   ar
    24    23    24   ar
    25    23    22    1
    26    19    18    1
    27    19    22    1
    28    18    12   am
    29    13    12    2
    30    14    11    1
    31    14    15    1
    32    12    11    1
    33    17    15   ar
    34    10    11    1
    35    15    16   ar
    36   106   105    2
    37    69    70    2
    38    69    68    1
    39   103   104    1
    40   110   108    1
    41   107   108    1
    42   107   104    1
    43   107   109    1
    44    68    67    1
    45    68    71    1
    46   105   104    1
    47    65    63    1
    48    78    79    1
    49    71    72    1
    50    73    74    1
    51    73    72    1
    52    61    60    1
    53    61    62    2
    54    60    63    1
    55    60    59    1
    56    63    64    1
    57    64    66    1
    58    74    75    2
    59    79    82    1
    60    79    80    1
    61    82    83    1
    62    80    81    2
    63    75    77    1
    64    75    76    1
    65    58    56   am
    66    85    83   ar
    67    85    87   ar
    68    83    84   ar
    69    54    53    2
    70    56    55    1
    71    56    57    2
    72    87    88   ar
    73    84    86   ar
    74    55    52    1
    75    53    52    1
    76    90    91    1
    77    52    51    1
    78    88    86   ar
    79    88    89    1
    80    51    49   am
    81    91    94    1
    82    91    92    1
    83    49    48    1
    84    49    50    2
    85    48    47    1
    86    92    93    2
    87    47    41   am
    88    98    97    2
    89    30    31    1
    90    41    42    2
    91    41    40    1
    92   101    99    1
    93    99   100    1
    94    99    96    1
    95    97    96    1
    96   102   100    1
    97    31    32    1
    98    31    34    1
    99    33    32    2
   100    32    39   am
   101    39    40    1
   102    96    95    1
   103    40    43    1
   104    34    35    1
   105    43    44    1
   106    35    36    1
   107    44    45   ar
   108    44    46   ar
   109    36    37    1
   110    37    38    1
