@<TRIPOS>MOLECULE
tmp/3hmzA00.pdb
 186 181 0 0 0
SMALL
GASTEIGER

@<TRIPOS>ATOM
      1  N         52.1880   32.4660    7.4090 N.3    23  THR23      -0.1218
      2  CA        51.7140   33.0830    6.1880 C.3    23  THR23       0.1862
      3  C         50.3500   32.4270    5.9230 C.2    23  THR23       0.2287
      4  O         50.1720   31.2320    6.1560 O.2    23  THR23      -0.2866
      5  CB        52.7170   32.8600    5.0680 C.3    23  THR23       0.1770
      6  OG1       53.8950   33.6110    5.3980 O.3    23  THR23      -0.2211
      7  CG2       52.1730   33.2940    3.7550 C.3    23  THR23       0.0375
      8  N         38.0390   34.6880   -5.0120 N.3    35  ASN35      -0.1225
      9  CA        39.4410   34.8850   -5.1930 C.3    35  ASN35       0.1785
     10  C         40.2070   34.4710   -3.9420 C.2    35  ASN35       0.2597
     11  O         39.6440   34.3980   -2.8570 O.2    35  ASN35      -0.2718
     12  CB        39.8080   36.3240   -5.5370 C.3    35  ASN35       0.1169
     13  CG        41.1390   36.4360   -6.2360 C.2    35  ASN35       0.2627
     14  OD1       41.6580   35.4650   -6.7940 O.2    35  ASN35      -0.2716
     15  ND2       41.7010   37.6460   -6.2240 N.am   35  ASN35      -0.0877
     16  N         41.4710   34.1550   -4.1600 N.am   36  VAL36      -0.1980
     17  CA        42.4020   33.7820   -3.1020 C.3    36  VAL36       0.1595
     18  C         43.7590   34.4510   -3.4380 C.2    36  VAL36       0.2287
     19  O         44.2060   34.4070   -4.5710 O.2    36  VAL36      -0.2864
     20  CB        42.5930   32.2370   -3.0140 C.3    36  VAL36       0.0276
     21  CG1       43.5960   31.8560   -1.8650 C.3    36  VAL36       0.0022
     22  CG2       41.2430   31.4850   -2.9170 C.3    36  VAL36       0.0022
     23  N         47.8840   35.2110   -1.3200 N.3    37  ALA37      -0.1231
     24  CA        48.7570   34.9290   -0.1770 C.3    37  ALA37       0.1694
     25  C         48.9870   36.2280    0.6010 C.2    37  ALA37       0.2592
     26  O         49.1140   37.3190    0.0070 O.2    37  ALA37      -0.2718
     27  CB        50.0810   34.3420   -0.6060 C.3    37  ALA37       0.0304
     28  N         49.0110   36.1220    1.9270 N.am   38  ALA38      -0.1966
     29  CA        49.3680   37.2410    2.8010 C.3    38  ALA38       0.1728
     30  C         50.2760   36.7890    3.9370 C.2    38  ALA38       0.2616
     31  O         49.8710   35.9690    4.7720 O.2    38  ALA38      -0.2715
     32  CB        48.1380   37.9740    3.3790 C.3    38  ALA38       0.0334
     33  N         51.5170   37.2900    3.9470 N.am   39  ALA39      -0.1963
     34  CA        52.3690   37.1200    5.1180 C.3    39  ALA39       0.1728
     35  C         51.9870   38.0890    6.2380 C.2    39  ALA39       0.2616
     36  O         52.1990   37.7900    7.4190 O.2    39  ALA39      -0.2715
     37  CB        53.8310   37.3270    4.7630 C.3    39  ALA39       0.0334
     38  N         51.4260   39.2590    5.8770 N.am   40  TRP40      -0.1974
     39  CA        51.2130   40.3400    6.8580 C.3    40  TRP40       0.1640
     40  C         49.8260   40.3260    7.4620 C.2    40  TRP40       0.2290
     41  O         49.0680   41.2680    7.3480 O.2    40  TRP40      -0.2864
     42  CB        51.6030   41.6820    6.2600 C.3    40  TRP40       0.0576
     43  CG        53.0250   41.7660    5.8320 C.ar   40  TRP40       0.0006
     44  CD1       54.0260   40.8660    6.0720 C.ar   40  TRP40       0.0946
     45  CD2       53.6360   42.8480    5.1380 C.ar   40  TRP40       0.0152
     46  NE1       55.2300   41.2930    5.5130 N.ar   40  TRP40      -0.2442
     47  CE2       55.0130   42.5170    4.9490 C.ar   40  TRP40       0.0810
     48  CE3       53.1610   44.0800    4.6460 C.ar   40  TRP40       0.0012
     49  CZ2       55.8810   43.3580    4.2820 C.ar   40  TRP40       0.0191
     50  CZ3       54.0360   44.9020    3.9800 C.ar   40  TRP40       0.0001
     51  CH2       55.3770   44.5430    3.8060 C.ar   40  TRP40       0.0015
     52  N         47.3200   43.3140    5.9020 N.3    54  VAL54      -0.1231
     53  CA        47.7840   44.3600    5.0060 C.3    54  VAL54       0.1692
     54  C         47.4890   43.9000    3.5910 C.2    54  VAL54       0.2592
     55  O         47.9420   42.8290    3.1660 O.2    54  VAL54      -0.2718
     56  CB        49.2660   44.6600    5.2050 C.3    54  VAL54       0.0266
     57  CG1       49.6540   45.8360    4.3380 C.3    54  VAL54       0.0020
     58  CG2       49.5630   44.9400    6.6910 C.3    54  VAL54       0.0020
     59  N         46.7160   44.7010    2.8530 N.am   55  LEU55      -0.1966
     60  CA        46.2960   44.3560    1.4860 C.3    55  LEU55       0.1728
     61  C         46.6970   45.4710    0.5400 C.2    55  LEU55       0.2616
     62  O         46.1750   46.5790    0.6160 O.2    55  LEU55      -0.2715
     63  CB        44.8010   44.1340    1.4320 C.3    55  LEU55       0.0311
     64  CG        44.2080   43.1000    2.3970 C.3    55  LEU55       0.0022
     65  CD1       42.6580   43.1840    2.3970 C.3    55  LEU55       0.0001
     66  CD2       44.7140   41.7120    2.0910 C.3    55  LEU55       0.0001
     67  N         47.5890   45.1700   -0.3850 N.am   56  ASP56      -0.1971
     68  CA        48.0660   46.1750   -1.3300 C.3    56  ASP56       0.1709
     69  C         46.9120   46.6520   -2.2280 C.2    56  ASP56       0.2293
     70  O         46.0300   45.8820   -2.5960 O.2    56  ASP56      -0.2864
     71  CB        49.2000   45.6170   -2.1510 C.3    56  ASP56       0.1436
     72  CG        49.9170   46.6800   -2.9280 C.2    56  ASP56       0.3671
     73  OD1       49.4820   46.9640   -4.0660 O.co2  56  ASP56      -0.2456
     74  OD2       50.9200   47.2280   -2.4000 O.co2  56  ASP56      -0.2456
     75  N         45.7720   44.6980   -5.3950 N.3    58  THR58      -0.1203
     76  CA        45.1550   43.3670   -5.3550 C.3    58  THR58       0.1994
     77  C         43.6680   43.3150   -5.6330 C.2    58  THR58       0.2618
     78  O         42.9020   44.1560   -5.1540 O.2    58  THR58      -0.2717
     79  CB        45.4360   42.6260   -4.0310 C.3    58  THR58       0.1784
     80  OG1       44.7340   43.2220   -2.9400 O.3    58  THR58      -0.2211
     81  CG2       46.9050   42.5250   -3.7300 C.3    58  THR58       0.0376
     82  N         43.2650   42.3230   -6.4240 N.am   59  LYS59      -0.1965
     83  CA        41.8490   42.0990   -6.6980 C.3    59  LYS59       0.1728
     84  C         41.1390   41.6780   -5.4210 C.2    59  LYS59       0.2616
     85  O         40.0360   42.1050   -5.1500 O.2    59  LYS59      -0.2715
     86  CB        41.6370   41.0780   -7.8230 C.3    59  LYS59       0.0311
     87  CG        40.1670   40.8600   -8.2210 C.3    59  LYS59       0.0038
     88  CD        39.4590   42.1220   -8.7340 C.3    59  LYS59       0.0206
     89  CE        40.0040   42.6140  -10.0060 C.3    59  LYS59       0.1093
     90  NZ        39.0230   43.6910  -10.5450 N.3    59  LYS59      -0.1314
     91  N         41.8200   40.9010   -4.5800 N.am   60  THR60      -0.1951
     92  CA        41.2080   40.4780   -3.3120 C.3    60  THR60       0.1897
     93  C         40.8070   41.6680   -2.4300 C.2    60  THR60       0.2313
     94  O         39.7360   41.6600   -1.8370 O.2    60  THR60      -0.2863
     95  CB        42.1190   39.4810   -2.5490 C.3    60  THR60       0.1794
     96  OG1       42.4600   38.4110   -3.4160 O.3    60  THR60      -0.2208
     97  CG2       41.3830   38.9200   -1.3550 C.3    60  THR60       0.0378
     98  N         50.4540   28.2020   -2.5060 N.3    82  THR82      -0.1203
     99  CA        50.6190   29.4620   -1.7510 C.3    82  THR82       0.1994
    100  C         51.4360   30.4730   -2.5350 C.2    82  THR82       0.2617
    101  O         51.0370   31.6340   -2.6940 O.2    82  THR82      -0.2717
    102  CB        51.2110   29.1880   -0.3760 C.3    82  THR82       0.1784
    103  OG1       50.3360   28.3040    0.3450 O.3    82  THR82      -0.2211
    104  CG2       51.4180   30.4760    0.4210 C.3    82  THR82       0.0376
    105  N         52.5350   29.9980   -3.0930 N.am   83  HIS83      -0.1975
    106  CA        53.3680   30.8850   -3.8770 C.3    83  HIS83       0.1656
    107  C         52.6630   31.3540   -5.1490 C.2    83  HIS83       0.2291
    108  O         52.7380   32.5270   -5.5030 O.2    83  HIS83      -0.2864
    109  CB        54.6910   30.1970   -4.1960 C.3    83  HIS83       0.0771
    110  CG        55.7070   31.1390   -4.7510 C.ar   83  HIS83       0.0820
    111  ND1       55.9640   31.1710   -6.0890 N.ar   83  HIS83      -0.2267
    112  CD2       56.4040   32.1630   -4.1970 C.ar   83  HIS83       0.1154
    113  CE1       56.8650   32.1130   -6.3380 C.ar   83  HIS83       0.1986
    114  NE2       57.1590   32.7260   -5.2040 N.ar   83  HIS83      -0.2212
    115  N         49.2900   31.6300   -5.7980 N.3    85  VAL85      -0.1231
    116  CA        48.2120   32.6160   -5.5590 C.3    85  VAL85       0.1692
    117  C         48.7550   33.9780   -5.1340 C.2    85  VAL85       0.2593
    118  O         48.0480   34.9710   -5.2600 O.2    85  VAL85      -0.2718
    119  CB        47.1200   32.1570   -4.5690 C.3    85  VAL85       0.0266
    120  CG1       46.4180   30.8620   -5.1070 C.3    85  VAL85       0.0020
    121  CG2       47.6700   31.9400   -3.1710 C.3    85  VAL85       0.0020
    122  N         50.0010   33.9880   -4.6650 N.am   86  GLY86      -0.1942
    123  CA        50.6920   35.2130   -4.3340 C.3    86  GLY86       0.2014
    124  C         51.5660   35.7820   -5.4410 C.2    86  GLY86       0.2640
    125  O         52.2590   36.7790   -5.2150 O.2    86  GLY86      -0.2714
    126  N         51.5360   35.1500   -6.6190 N.am   87  SER87      -0.1935
    127  CA        52.3600   35.5530   -7.7590 C.3    87  SER87       0.2055
    128  C         51.5470   35.8220   -9.0300 C.2    87  SER87       0.2643
    129  O         52.1300   36.1380  -10.0760 O.2    87  SER87      -0.2714
    130  CB        53.3960   34.4680   -8.0260 C.3    87  SER87       0.2130
    131  OG        54.2170   34.2240   -6.9190 O.3    87  SER87      -0.2179
    132  N         50.2250   35.6960   -8.9380 N.am   88  GLN88      -0.1963
    133  CA        49.2830   35.8610  -10.0470 C.3    88  GLN88       0.1733
    134  C         48.0780   36.6310   -9.5550 C.2    88  GLN88       0.2617
    135  O         47.6150   36.3440   -8.4580 O.2    88  GLN88      -0.2715
    136  CB        48.8210   34.4530  -10.4810 C.3    88  GLN88       0.0408
    137  CG        49.9500   33.5610  -11.0010 C.3    88  GLN88       0.0908
    138  CD        49.5250   32.1400  -11.3220 C.2    88  GLN88       0.2608
    139  OE1       48.3960   31.8880  -11.7070 O.2    88  GLN88      -0.2717
    140  NE2       50.4480   31.1960  -11.1500 N.am   88  GLN88      -0.0878
    141  N         47.5360   37.5550  -10.3500 N.am   89  SER89      -0.1936
    142  CA        46.3280   38.2850   -9.9700 C.3    89  SER89       0.2055
    143  C         45.1540   37.8230  -10.7870 C.2    89  SER89       0.2642
    144  O         45.2750   37.5710  -12.0080 O.2    89  SER89      -0.2714
    145  CB        46.4770   39.8040  -10.1790 C.3    89  SER89       0.2130
    146  OG        45.2630   40.5120   -9.8320 O.3    89  SER89      -0.2179
    147  N         44.0100   37.7160  -10.1220 N.am   90  LEU90      -0.1977
    148  CA        42.7500   37.4010  -10.7830 C.3    90  LEU90       0.1596
    149  C         42.4210   38.4410  -11.8540 C.2    90  LEU90       0.2287
    150  O         41.7710   38.1100  -12.8310 O.2    90  LEU90      -0.2864
    151  CB        41.6080   37.3350   -9.7730 C.3    90  LEU90       0.0297
    152  CG        40.2290   36.8960  -10.2950 C.3    90  LEU90       0.0022
    153  CD1       40.2530   35.4710  -10.8200 C.3    90  LEU90       0.0001
    154  CD2       39.2280   37.0670   -9.1980 C.3    90  LEU90       0.0001
    155  N         42.3580   32.0960  -12.5850 N.3    96  LYS96      -0.1245
    156  CA        43.4180   32.0160  -11.5650 C.3    96  LYS96       0.1561
    157  C         43.3180   30.7840  -10.6660 C.2    96  LYS96       0.2260
    158  O         44.3140   30.0740  -10.4860 O.2    96  LYS96      -0.2867
    159  CB        43.4150   33.2830  -10.6940 C.3    96  LYS96       0.0271
    160  CG        44.4070   33.2300   -9.5650 C.3    96  LYS96       0.0035
    161  CD        44.4320   34.4780   -8.7430 C.3    96  LYS96       0.0206
    162  CE        45.4670   34.3310   -7.6000 C.3    96  LYS96       0.1093
    163  NZ        45.4610   35.5290   -6.6870 N.3    96  LYS96      -0.1314
    164  N         56.7360   32.6990    5.2840 N.3   171  TYR171     -0.1241
    165  CA        57.4520   33.2500    4.1330 C.3   171  TYR171      0.1605
    166  C         58.5750   34.1790    4.4700 C.2   171  TYR171      0.2264
    167  O         58.4690   34.9440    5.4140 O.2   171  TYR171     -0.2867
    168  CB        56.4640   34.0300    3.2810 C.3   171  TYR171      0.0534
    169  CG        56.9610   34.5340    1.9630 C.ar  171  TYR171     -0.0201
    170  CD1       57.4870   33.6590    1.0420 C.ar  171  TYR171     -0.0009
    171  CD2       56.7490   35.8650    1.5770 C.ar  171  TYR171     -0.0009
    172  CE1       57.8950   34.0970   -0.2260 C.ar  171  TYR171      0.0417
    173  CE2       57.1380   36.3040    0.2990 C.ar  171  TYR171      0.0417
    174  CZ        57.6870   35.4110   -0.5920 C.ar  171  TYR171      0.1957
    175  OH        58.0300   35.8610   -1.8600 O.3   171  TYR171     -0.2866
    176  N         60.3610   29.8260    1.9450 N.3   177  PHE177     -0.1241
    177  CA        59.5900   29.7550    3.1690 C.3   177  PHE177      0.1605
    178  C         60.2920   28.8420    4.1580 C.2   177  PHE177      0.2264
    179  O         61.1160   28.0110    3.7950 O.2   177  PHE177     -0.2867
    180  CB        58.2300   29.0800    2.9200 C.3   177  PHE177      0.0534
    181  CG        57.3180   29.7700    1.9180 C.ar  177  PHE177     -0.0203
    182  CD1       57.5460   29.6590    0.5350 C.ar  177  PHE177     -0.0042
    183  CD2       56.1610   30.4200    2.3380 C.ar  177  PHE177     -0.0042
    184  CE1       56.7080   30.2640   -0.3880 C.ar  177  PHE177     -0.0003
    185  CE2       55.2780   31.0130    1.3970 C.ar  177  PHE177     -0.0003
    186  CZ        55.5480   30.9110    0.0450 C.ar  177  PHE177     -0.0000
@<TRIPOS>BOND
     1   150   149    2
     2   155   156    1
     3   144   143    2
     4   149   148    1
     5   139   138    2
     6   156   159    1
     7   156   157    1
     8   138   140   am
     9   138   137    1
    10   137   136    1
    11   153   152    1
    12   143   147   am
    13   143   142    1
    14   148   147    1
    15   148   151    1
    16   159   160    1
    17   157   158    2
    18    90    89    1
    19   136   133    1
    20   141   142    1
    21   141   134   am
    22   152   151    1
    23   152   154    1
    24   145   142    1
    25   145   146    1
    26   129   128    2
    27   133   134    1
    28   133   132    1
    29    89    88    1
    30   160   161    1
    31   134   135    2
    32   128   132   am
    33   128   127    1
    34   161   162    1
    35    88    87    1
    36    87    86    1
    37   130   127    1
    38   130   131    1
    39    86    83    1
    40   127   126    1
    41   162   163    1
    42    14    13    2
    43    83    82    1
    44    83    84    1
    45   126   124   am
    46    82    77   am
    47   113   111   ar
    48   113   114   ar
    49    13    15   am
    50    13    12    1
    51   111   110   ar
    52   115   116    1
    53    77    76    1
    54    77    78    2
    55   116   117    1
    56   116   119    1
    57    12     9    1
    58   108   107    2
    59   124   125    2
    60   124   123    1
    61    84    85    2
    62    84    91   am
    63    75    76    1
    64    76    79    1
    65   118   117    2
    66   114   112   ar
    67     9     8    1
    68     9    10    1
    69   107   106    1
    70   117   122   am
    71   120   119    1
    72   110   112   ar
    73   110   109    1
    74   122   123    1
    75    91    92    1
    76    19    18    2
    77   119   121    1
    78   109   106    1
    79    16    10   am
    80    16    17    1
    81    73    72   ar
    82    79    81    1
    83    79    80    1
    84    10    11    2
    85   106   105    1
    86    18    17    1
    87    96    95    1
    88    92    95    1
    89    92    93    1
    90    17    20    1
    91   105   100   am
    92    20    22    1
    93    20    21    1
    94    72    74   ar
    95    72    71    1
    96   101   100    2
    97    70    69    2
    98    95    97    1
    99   100    99    1
   100    98    99    1
   101    93    94    2
   102    69    68    1
   103    71    68    1
   104   175   174    1
   105    99   102    1
   106    68    67    1
   107    23    24    1
   108    27    24    1
   109   174   172   ar
   110   174   173   ar
   111   184   186   ar
   112   184   182   ar
   113    67    61   am
   114   102   103    1
   115   102   104    1
   116   172   170   ar
   117    24    25    1
   118    26    25    2
   119   186   185   ar
   120   173   171   ar
   121   182   181   ar
   122    61    62    2
   123    61    60    1
   124    25    28   am
   125   170   169   ar
   126   185   183   ar
   127    63    60    1
   128    63    64    1
   129    60    59    1
   130   171   169   ar
   131   181   183   ar
   132   181   180    1
   133    28    29    1
   134   176   177    1
   135   169   168    1
   136    66    64    1
   137    65    64    1
   138    29    32    1
   139    29    30    1
   140    59    54   am
   141   180   177    1
   142    55    54    2
   143   177   178    1
   144   168   165    1
   145    54    53    1
   146     7     5    1
   147   179   178    2
   148    51    50   ar
   149    51    49   ar
   150    30    33   am
   151    30    31    2
   152    33    34    1
   153    50    48   ar
   154   165   166    1
   155   165   164    1
   156    49    47   ar
   157    57    56    1
   158   166   167    2
   159    48    45   ar
   160    37    34    1
   161    47    45   ar
   162    47    46   ar
   163    53    56    1
   164    53    52    1
   165     5     6    1
   166     5     2    1
   167    34    35    1
   168    45    43   ar
   169    56    58    1
   170    46    44   ar
   171    43    44   ar
   172    43    42    1
   173    38    35   am
   174    38    39    1
   175     3     4    2
   176     3     2    1
   177     2     1    1
   178    35    36    2
   179    42    39    1
   180    39    40    1
   181    41    40    2
