@<TRIPOS>MOLECULE
tmp/3hn1A00.pdb
 122 114 0 0 0
SMALL
GASTEIGER

@<TRIPOS>ATOM
      1  N         24.3710   35.5360   69.1200 N.3   270  LYS270     -0.1245
      2  CA        24.0100   36.9030   69.5000 C.3   270  LYS270      0.1561
      3  C         25.2970   37.7430   69.6330 C.2   270  LYS270      0.2260
      4  O         25.4300   38.8000   69.0130 O.2   270  LYS270     -0.2867
      5  CB        23.2650   36.8940   70.8390 C.3   270  LYS270      0.0271
      6  CG        22.9820   38.2860   71.4130 C.3   270  LYS270      0.0035
      7  CD        21.9360   39.0410   70.5930 C.3   270  LYS270      0.0206
      8  CE        21.7190   40.4630   71.1190 C.3   270  LYS270      0.1093
      9  NZ        21.3210   40.4880   72.5540 N.3   270  LYS270     -0.1314
     10  N         27.5700   35.5110   74.8770 N.3   274  ASP274     -0.1225
     11  CA        26.1140   35.4300   74.9000 C.3   274  ASP274      0.1805
     12  C         25.5180   34.1420   74.3210 C.2   274  ASP274      0.2597
     13  O         26.2230   33.1520   74.1120 O.2   274  ASP274     -0.2718
     14  CB        25.5010   36.6370   74.1920 C.3   274  ASP274      0.1424
     15  CG        24.3270   37.2190   74.9620 C.2   274  ASP274      0.3668
     16  OD1       23.6490   36.4620   75.6890 O.co2 274  ASP274     -0.2456
     17  OD2       24.0760   38.4320   74.8360 O.co2 274  ASP274     -0.2456
     18  N         24.2150   34.1820   74.0410 N.am  275  TYR275     -0.1976
     19  CA        23.4850   33.0150   73.5400 C.3   275  TYR275      0.1639
     20  C         23.4380   32.7900   72.0290 C.2   275  TYR275      0.2290
     21  O         23.8710   33.6250   71.2370 O.2   275  TYR275     -0.2864
     22  CB        22.0430   33.0340   74.0790 C.3   275  TYR275      0.0560
     23  CG        21.1520   34.1120   73.4820 C.ar  275  TYR275     -0.0198
     24  CD1       21.1960   35.4330   73.9420 C.ar  275  TYR275     -0.0009
     25  CD2       20.2550   33.8040   72.4650 C.ar  275  TYR275     -0.0009
     26  CE1       20.3560   36.4180   73.4020 C.ar  275  TYR275      0.0417
     27  CE2       19.4160   34.7760   71.9170 C.ar  275  TYR275      0.0417
     28  CZ        19.4700   36.0790   72.3910 C.ar  275  TYR275      0.1957
     29  OH        18.6170   37.0160   71.8510 O.3   275  TYR275     -0.2866
     30  N         27.2890   28.8800   85.9830 N.3   340  LYS340     -0.1231
     31  CA        26.5590   28.6470   87.2200 C.3   340  LYS340      0.1693
     32  C         25.5820   29.7950   87.4390 C.2   340  LYS340      0.2592
     33  O         25.9550   30.9650   87.3440 O.2   340  LYS340     -0.2718
     34  CB        27.5280   28.5480   88.4000 C.3   340  LYS340      0.0285
     35  CG        26.8460   28.2270   89.7250 C.3   340  LYS340      0.0035
     36  CD        27.8670   27.9370   90.8070 C.3   340  LYS340      0.0206
     37  CE        27.1960   27.5430   92.1110 C.3   340  LYS340      0.1093
     38  NZ        26.4130   28.6710   92.6700 N.3   340  LYS340     -0.1314
     39  N         24.3280   29.4480   87.7090 N.am  341  ASP341     -0.1960
     40  CA        23.2720   30.4370   87.9290 C.3   341  ASP341      0.1840
     41  C         22.9550   31.2650   86.6890 C.2   341  ASP341      0.2623
     42  O         22.3350   32.3230   86.7910 O.2   341  ASP341     -0.2715
     43  CB        23.6380   31.3790   89.0860 C.3   341  ASP341      0.1450
     44  CG        23.6360   30.6750   90.4290 C.2   341  ASP341      0.3671
     45  OD1       22.7040   29.8780   90.6620 O.co2 341  ASP341     -0.2456
     46  OD2       24.5530   30.9190   91.2500 O.co2 341  ASP341     -0.2456
     47  N         23.3710   30.7850   85.5210 N.am  342  GLY342     -0.1940
     48  CA        23.1040   31.5170   84.2920 C.3   342  GLY342      0.2014
     49  C         21.6230   31.6360   83.9730 C.2   342  GLY342      0.2638
     50  O         20.8110   30.8440   84.4480 O.2   342  GLY342     -0.2714
     51  N         21.2660   32.6250   83.1630 N.am  343  ASN343     -0.1972
     52  CA        19.8730   32.8260   82.7920 C.3   343  ASN343      0.1688
     53  C         19.3110   31.5180   82.2460 C.2   343  ASN343      0.2292
     54  O         19.9490   30.8480   81.4290 O.2   343  ASN343     -0.2864
     55  CB        19.7510   33.9260   81.7330 C.3   343  ASN343      0.1181
     56  CG        18.3120   34.3530   81.4950 C.2   343  ASN343      0.2629
     57  OD1       17.3950   33.9260   82.2050 O.2   343  ASN343     -0.2716
     58  ND2       18.1070   35.1980   80.4960 N.am  343  ASN343     -0.0877
     59  N         20.1340   28.4200   79.3650 N.3   351  ILE351     -0.1245
     60  CA        20.5610   29.0740   78.1370 C.3   351  ILE351      0.1561
     61  C         22.0690   28.9210   77.9100 C.2   351  ILE351      0.2260
     62  O         22.8860   29.3480   78.7370 O.2   351  ILE351     -0.2867
     63  CB        20.1500   30.5590   78.1480 C.3   351  ILE351      0.0252
     64  CG1       18.6200   30.6490   78.2160 C.3   351  ILE351      0.0019
     65  CG2       20.6610   31.2570   76.8880 C.3   351  ILE351      0.0019
     66  CD1       18.0770   32.0220   78.5760 C.3   351  ILE351      0.0001
     67  N         25.8160   29.4420   76.4410 N.3   353  ARG353     -0.1245
     68  CA        26.6000   30.6490   76.2070 C.3   353  ARG353      0.1563
     69  C         27.8670   30.2920   75.4450 C.2   353  ARG353      0.2260
     70  O         28.4230   29.2110   75.6320 O.2   353  ARG353     -0.2867
     71  CB        26.9510   31.3010   77.5490 C.3   353  ARG353      0.0307
     72  CG        25.7330   31.5760   78.4170 C.3   353  ARG353      0.0489
     73  CD        24.8910   32.7050   77.8520 C.3   353  ARG353      0.2205
     74  NE        25.3630   34.0130   78.2950 N.pl3 353  ARG353     -0.0865
     75  CZ        25.0160   34.5810   79.4500 C.cat 353  ARG353      0.5346
     76  NH1       24.1920   33.9580   80.2830 N.pl3 353  ARG353      0.1354
     77  NH2       25.4880   35.7740   79.7730 N.pl3 353  ARG353      0.1354
     78  N         31.7630   32.4460   77.2550 N.3   356  TYR356     -0.1241
     79  CA        31.4400   33.1150   78.5100 C.3   356  TYR356      0.1605
     80  C         32.6990   33.0660   79.3510 C.2   356  TYR356      0.2264
     81  O         33.3300   32.0210   79.4500 O.2   356  TYR356     -0.2867
     82  CB        30.2990   32.3820   79.2120 C.3   356  TYR356      0.0534
     83  CG        29.8400   33.0030   80.5110 C.ar  356  TYR356     -0.0201
     84  CD1       30.4350   32.6570   81.7180 C.ar  356  TYR356     -0.0009
     85  CD2       28.7720   33.9030   80.5380 C.ar  356  TYR356     -0.0009
     86  CE1       29.9770   33.1800   82.9230 C.ar  356  TYR356      0.0417
     87  CE2       28.3050   34.4330   81.7400 C.ar  356  TYR356      0.0417
     88  CZ        28.9110   34.0640   82.9260 C.ar  356  TYR356      0.1957
     89  OH        28.4520   34.5660   84.1190 O.3   356  TYR356     -0.2866
     90  N         33.0470   35.2860   82.6120 N.3   358  ALA358     -0.1245
     91  CA        32.9250   36.1190   83.8050 C.3   358  ALA358      0.1562
     92  C         33.8260   35.5340   84.8820 C.2   358  ALA358      0.2260
     93  O         33.7770   34.3360   85.1590 O.2   358  ALA358     -0.2867
     94  CB        31.4780   36.1430   84.2860 C.3   358  ALA358      0.0290
     95  N         33.0210   32.7860   88.1610 N.3   361  ILE361     -0.1245
     96  CA        31.7660   32.0840   87.9310 C.3   361  ILE361      0.1561
     97  C         32.0670   30.8040   87.1550 C.2   361  ILE361      0.2260
     98  O         32.4670   30.8550   85.9930 O.2   361  ILE361     -0.2867
     99  CB        30.7680   32.9590   87.1230 C.3   361  ILE361      0.0252
    100  CG1       30.4800   34.2600   87.8810 C.3   361  ILE361      0.0019
    101  CG2       29.4760   32.1890   86.8780 C.3   361  ILE361      0.0019
    102  CD1       29.4650   35.1690   87.2050 C.3   361  ILE361      0.0001
    103  N         15.0510   37.1220   75.5220 N.3   402  ILE402     -0.1231
    104  CA        16.0230   37.5680   76.5030 C.3   402  ILE402      0.1692
    105  C         16.0770   39.0940   76.4420 C.2   402  ILE402      0.2592
    106  O         16.3510   39.6760   75.3880 O.2   402  ILE402     -0.2718
    107  CB        17.4140   36.9780   76.1880 C.3   402  ILE402      0.0266
    108  CG1       17.3410   35.4490   76.2710 C.3   402  ILE402      0.0019
    109  CG2       18.4570   37.5280   77.1610 C.3   402  ILE402      0.0020
    110  CD1       18.6110   34.7450   75.8990 C.3   402  ILE402      0.0001
    111  N         15.7970   39.7390   77.5710 N.am  403  GLY403     -0.1957
    112  CA        15.8080   41.1900   77.6030 C.3   403  GLY403      0.1869
    113  C         14.8280   41.7490   76.5920 C.2   403  GLY403      0.2309
    114  O         13.6730   41.3310   76.5460 O.2   403  GLY403     -0.2863
    115  N         15.3960   41.6140   73.2650 N.3   405  ASP405     -0.1239
    116  CA        15.6150   40.9610   71.9800 C.3   405  ASP405      0.1674
    117  C         14.3050   40.3710   71.4730 C.2   405  ASP405      0.2266
    118  O         13.3960   40.1040   72.2560 O.2   405  ASP405     -0.2867
    119  CB        16.6520   39.8360   72.1080 C.3   405  ASP405      0.1410
    120  CG        18.0270   40.3500   72.4720 C.2   405  ASP405      0.3668
    121  OD1       18.2530   41.5700   72.3340 O.co2 405  ASP405     -0.2456
    122  OD2       18.8830   39.5360   72.8810 O.co2 405  ASP405     -0.2456
@<TRIPOS>BOND
     1     4     3    2
     2     1     2    1
     3     2     3    1
     4     2     5    1
     5     7     8    1
     6     7     6    1
     7     5     6    1
     8     8     9    1
     9    21    20    2
    10   117   116    1
    11   117   118    2
    12    29    28    1
    13    27    28   ar
    14    27    25   ar
    15   116   119    1
    16   116   115    1
    17    20    19    1
    18   119   120    1
    19   121   120   ar
    20    28    26   ar
    21    25    23   ar
    22   120   122   ar
    23    26    24   ar
    24    23    24   ar
    25    23    22    1
    26    19    18    1
    27    19    22    1
    28    18    12   am
    29    13    12    2
    30    14    11    1
    31    14    15    1
    32    12    11    1
    33    17    15   ar
    34    10    11    1
    35    15    16   ar
    36   106   105    2
    37    69    70    2
    38    69    68    1
    39   103   104    1
    40   110   108    1
    41   107   108    1
    42   107   104    1
    43   107   109    1
    44    68    67    1
    45    68    71    1
    46   105   104    1
    47   105   111   am
    48   114   113    2
    49   113   112    1
    50    65    63    1
    51    78    79    1
    52    71    72    1
    53   111   112    1
    54    73    74    1
    55    73    72    1
    56    61    60    1
    57    61    62    2
    58    60    63    1
    59    60    59    1
    60    63    64    1
    61    64    66    1
    62    74    75    2
    63    79    82    1
    64    79    80    1
    65    82    83    1
    66    80    81    2
    67    75    77    1
    68    75    76    1
    69    58    56   am
    70    83    85   ar
    71    83    84   ar
    72    85    87   ar
    73    54    53    2
    74    56    55    1
    75    56    57    2
    76    84    86   ar
    77    55    52    1
    78    87    88   ar
    79    53    52    1
    80    90    91    1
    81    52    51    1
    82    86    88   ar
    83    88    89    1
    84    51    49   am
    85    91    94    1
    86    91    92    1
    87    49    48    1
    88    49    50    2
    89    48    47    1
    90    92    93    2
    91    47    41   am
    92    30    31    1
    93    98    97    2
    94    41    42    2
    95    41    40    1
    96   101    99    1
    97    99   100    1
    98    99    96    1
    99    97    96    1
   100   102   100    1
   101    31    32    1
   102    31    34    1
   103    33    32    2
   104    32    39   am
   105    39    40    1
   106    40    43    1
   107    96    95    1
   108    34    35    1
   109    43    44    1
   110    35    36    1
   111    44    45   ar
   112    44    46   ar
   113    36    37    1
   114    37    38    1
