@<TRIPOS>MOLECULE
tmp/3hn3B00.pdb
 107 106 0 0 0
SMALL
GASTEIGER

@<TRIPOS>ATOM
      1  N         84.4510   33.3210   86.4990 N.3   459  SER459     -0.1202
      2  CA        83.9470   32.2520   87.3730 C.3   459  SER459      0.2020
      3  C         83.7080   32.6990   88.8190 C.2   459  SER459      0.2619
      4  O         84.5120   33.4550   89.3930 O.2   459  SER459     -0.2717
      5  CB        84.9390   31.0780   87.3690 C.3   459  SER459      0.2103
      6  OG        84.4450   29.9860   88.1210 O.3   459  SER459     -0.2182
      7  N         82.6170   32.2100   89.4130 N.am  460  ASN460     -0.1960
      8  CA        82.4410   32.2750   90.8680 C.3   460  ASN460      0.1819
      9  C         82.4280   30.8940   91.5260 C.2   460  ASN460      0.2622
     10  O         81.9760   30.7420   92.6620 O.2   460  ASN460     -0.2715
     11  CB        81.1970   33.0920   91.2480 C.3   460  ASN460      0.1195
     12  CG        79.8950   32.4330   90.8350 C.2   460  ASN460      0.2630
     13  OD1       79.8820   31.4460   90.0910 O.2   460  ASN460     -0.2716
     14  ND2       78.7800   32.9770   91.3250 N.am  460  ASN460     -0.0877
     15  N         82.9290   29.8900   90.8060 N.am  461  SER461     -0.1936
     16  CA        82.9550   28.5140   91.3110 C.3   461  SER461      0.2055
     17  C         84.0350   28.2720   92.3630 C.2   461  SER461      0.2643
     18  O         84.9590   29.0710   92.5310 O.2   461  SER461     -0.2714
     19  CB        83.1790   27.5400   90.1540 C.3   461  SER461      0.2130
     20  OG        82.1790   27.6670   89.1590 O.3   461  SER461     -0.2179
     21  N         83.9100   27.1430   93.0570 N.am  462  ASN462     -0.1957
     22  CA        84.9730   26.6640   93.9330 C.3   462  ASN462      0.1819
     23  C         86.1100   26.1230   93.0810 C.2   462  ASN462      0.2621
     24  O         85.8710   25.3980   92.1190 O.2   462  ASN462     -0.2715
     25  CB        84.4640   25.5750   94.8790 C.3   462  ASN462      0.1195
     26  CG        85.5480   25.0720   95.8110 C.2   462  ASN462      0.2630
     27  OD1       86.3110   24.1680   95.4710 O.2   462  ASN462     -0.2716
     28  ND2       85.6260   25.6670   96.9940 N.am  462  ASN462     -0.0877
     29  N         87.3440   26.4630   93.4410 N.am  463  TYR463     -0.1974
     30  CA        88.5120   26.1090   92.6190 C.3   463  TYR463      0.1639
     31  C         88.6070   24.6120   92.3150 C.2   463  TYR463      0.2290
     32  O         89.0210   24.2190   91.2260 O.2   463  TYR463     -0.2864
     33  CB        89.8010   26.5670   93.2890 C.3   463  TYR463      0.0560
     34  CG        90.2720   25.6520   94.3990 C.ar  463  TYR463     -0.0198
     35  CD1       89.7300   25.7320   95.6750 C.ar  463  TYR463     -0.0009
     36  CD2       91.2710   24.7180   94.1690 C.ar  463  TYR463     -0.0009
     37  CE1       90.1570   24.8850   96.6920 C.ar  463  TYR463      0.0417
     38  CE2       91.7120   23.8750   95.1710 C.ar  463  TYR463      0.0417
     39  CZ        91.1500   23.9620   96.4310 C.ar  463  TYR463      0.1957
     40  OH        91.5890   23.1320   97.4270 O.3   463  TYR463     -0.2866
     41  N         88.3070   35.4760   88.3680 N.3   477  LEU477     -0.1231
     42  CA        87.5840   35.1370   89.5980 C.3   477  LEU477      0.1693
     43  C         86.7550   36.2990   90.1420 C.2   477  LEU477      0.2592
     44  O         87.2580   37.4130   90.2600 O.2   477  LEU477     -0.2718
     45  CB        88.5920   34.7310   90.6680 C.3   477  LEU477      0.0284
     46  CG        89.5350   33.5950   90.2420 C.3   477  LEU477      0.0019
     47  CD1       90.5480   33.3330   91.3430 C.3   477  LEU477      0.0001
     48  CD2       88.7480   32.3320   89.8920 C.3   477  LEU477      0.0001
     49  N         85.5070   36.0000   90.4970 N.am  478  ASN478     -0.1960
     50  CA        84.6200   36.9350   91.2000 C.3   478  ASN478      0.1819
     51  C         84.5080   36.5540   92.6620 C.2   478  ASN478      0.2622
     52  O         84.1720   35.4040   92.9680 O.2   478  ASN478     -0.2715
     53  CB        83.2080   36.8900   90.6110 C.3   478  ASN478      0.1195
     54  CG        83.1390   37.3930   89.1840 C.2   478  ASN478      0.2630
     55  OD1       84.0990   37.9570   88.6550 O.2   478  ASN478     -0.2716
     56  ND2       81.9770   37.1880   88.5500 N.am  478  ASN478     -0.0877
     57  N         84.7650   37.4970   93.5630 N.am  479  SER479     -0.1950
     58  CA        84.5210   37.2560   94.9780 C.3   479  SER479      0.1924
     59  C         84.1840   38.5380   95.7340 C.2   479  SER479      0.2314
     60  O         84.6430   39.6170   95.3940 O.2   479  SER479     -0.2863
     61  CB        85.6890   36.5180   95.6320 C.3   479  SER479      0.2116
     62  OG        86.8540   37.3140   95.7030 O.3   479  SER479     -0.2180
     63  N         84.1150   38.9240   99.5500 N.3   481  TYR481     -0.1241
     64  CA        84.2550   38.5080  100.9440 C.3   481  TYR481      0.1605
     65  C         83.7710   39.6450  101.8490 C.2   481  TYR481      0.2264
     66  O         83.9910   40.8250  101.5500 O.2   481  TYR481     -0.2867
     67  CB        85.7040   38.1280  101.2420 C.3   481  TYR481      0.0534
     68  CG        86.1950   37.0420  100.3200 C.ar  481  TYR481     -0.0201
     69  CD1       85.5180   35.8230  100.2360 C.ar  481  TYR481     -0.0009
     70  CD2       87.3140   37.2260   99.5250 C.ar  481  TYR481     -0.0009
     71  CE1       85.9440   34.8100   99.3840 C.ar  481  TYR481      0.0417
     72  CE2       87.7580   36.2070   98.6590 C.ar  481  TYR481      0.0417
     73  CZ        87.0700   35.0040   98.6120 C.ar  481  TYR481      0.1957
     74  OH        87.4720   33.9950   97.7700 O.3   481  TYR481     -0.2866
     75  N         78.9840   36.9610  101.9570 N.3   485  HIS485     -0.1241
     76  CA        79.1060   36.0410  103.0960 C.3   485  HIS485      0.1621
     77  C         79.8830   36.7080  104.2270 C.2   485  HIS485      0.2264
     78  O         80.6080   37.6680  103.9840 O.2   485  HIS485     -0.2867
     79  CB        79.7880   34.7400  102.6650 C.3   485  HIS485      0.0745
     80  CG        80.4420   34.8230  101.3240 C.ar  485  HIS485      0.0817
     81  ND1       81.6830   35.3890  101.1340 N.ar  485  HIS485     -0.2268
     82  CD2       80.0140   34.4370  100.0980 C.ar  485  HIS485      0.1154
     83  CE1       81.9940   35.3440   99.8510 C.ar  485  HIS485      0.1986
     84  NE2       80.9990   34.7710   99.2000 N.ar  485  HIS485     -0.2212
     85  N         92.1990   32.1250   98.4390 N.3   500  GLN500     -0.1245
     86  CA        91.6730   32.0900   97.0690 C.3   500  GLN500      0.1566
     87  C         92.7880   31.9990   96.0360 C.2   500  GLN500      0.2260
     88  O         92.7960   31.0940   95.2050 O.2   500  GLN500     -0.2867
     89  CB        90.8490   33.3400   96.7850 C.3   500  GLN500      0.0367
     90  CG        90.3890   33.5100   95.3450 C.3   500  GLN500      0.0905
     91  CD        89.7190   34.8480   95.1460 C.2   500  GLN500      0.2608
     92  OE1       88.7120   35.1360   95.7910 O.2   500  GLN500     -0.2717
     93  NE2       90.2680   35.6790   94.2550 N.am  500  GLN500     -0.0878
     94  N         93.7040   28.5340   93.7820 N.3   504  TRP504     -0.1241
     95  CA        93.5370   28.5730   92.3400 C.3   504  TRP504      0.1605
     96  C         94.8730   28.4530   91.6190 C.2   504  TRP504      0.2264
     97  O         94.9720   27.7090   90.6590 O.2   504  TRP504     -0.2867
     98  CB        92.8270   29.8620   91.9000 C.3   504  TRP504      0.0550
     99  CG        91.3360   29.8140   92.0790 C.ar  504  TRP504      0.0003
    100  CD1       90.6350   30.1910   93.1730 C.ar  504  TRP504      0.0946
    101  CD2       90.3660   29.3600   91.1180 C.ar  504  TRP504      0.0152
    102  NE1       89.2880   30.0080   92.9630 N.ar  504  TRP504     -0.2442
    103  CE2       89.0990   29.5040   91.7050 C.ar  504  TRP504      0.0810
    104  CE3       90.4510   28.8520   89.8170 C.ar  504  TRP504      0.0012
    105  CZ2       87.9180   29.1640   91.0360 C.ar  504  TRP504      0.0191
    106  CZ3       89.2840   28.5240   89.1520 C.ar  504  TRP504      0.0001
    107  CH2       88.0340   28.6690   89.7710 C.ar  504  TRP504      0.0015
@<TRIPOS>BOND
     1     1     2    1
     2     5     2    1
     3     5     6    1
     4     2     3    1
     5    41    42    1
     6    56    54   am
     7    55    54    2
     8     3     4    2
     9     3     7   am
    10   106   107   ar
    11   106   104   ar
    12    20    19    1
    13    54    53    1
    14     7     8    1
    15    42    43    1
    16    42    45    1
    17   107   105   ar
    18   104   101   ar
    19    48    46    1
    20    13    12    2
    21    43    44    2
    22    43    49   am
    23    19    16    1
    24    46    45    1
    25    46    47    1
    26    49    50    1
    27    53    50    1
    28    97    96    2
    29    15    16    1
    30    15     9   am
    31    12    11    1
    32    12    14   am
    33     8    11    1
    34     8     9    1
    35   105   103   ar
    36   101   103   ar
    37   101    99   ar
    38    50    51    1
    39    32    31    2
    40    16    17    1
    41     9    10    2
    42    96    95    1
    43   103   102   ar
    44    98    99    1
    45    98    95    1
    46    99   100   ar
    47    24    23    2
    48    31    30    1
    49    95    94    1
    50    17    18    2
    51    17    21   am
    52    30    33    1
    53    30    29    1
    54    51    52    2
    55    51    57   am
    56   102   100   ar
    57    21    22    1
    58    23    29   am
    59    23    22    1
    60    33    34    1
    61    57    58    1
    62    22    25    1
    63    36    34   ar
    64    36    38   ar
    65    93    91   am
    66    34    35   ar
    67    25    26    1
    68    58    61    1
    69    58    59    1
    70    91    90    1
    71    91    92    2
    72    38    39   ar
    73    88    87    2
    74    90    89    1
    75    60    59    2
    76    27    26    2
    77    61    62    1
    78    35    37   ar
    79    26    28   am
    80    87    86    1
    81    39    37   ar
    82    39    40    1
    83    89    86    1
    84    86    85    1
    85    74    73    1
    86    73    72   ar
    87    73    71   ar
    88    72    70   ar
    89    84    83   ar
    90    84    82   ar
    91    71    69   ar
    92    70    68   ar
    93    63    64    1
    94    83    81   ar
    95    82    80   ar
    96    69    68   ar
    97    68    67    1
    98    64    67    1
    99    64    65    1
   100    81    80   ar
   101    80    79    1
   102    66    65    2
   103    75    76    1
   104    79    76    1
   105    76    77    1
   106    78    77    2
