@<TRIPOS>MOLECULE
tmp/3hnaA01.pdb
 178 181 0 0 0
SMALL
GASTEIGER

@<TRIPOS>ATOM
      1  N         45.8510    8.8380   -0.2120 N.3   150  MET150     -0.1230
      2  CA        45.2910    7.9910    0.8250 C.3   150  MET150      0.1702
      3  C         43.9160    7.4360    0.4430 C.2   150  MET150      0.2593
      4  O         43.0290    7.2980    1.2920 O.2   150  MET150     -0.2718
      5  CB        45.1880    8.8040    2.1140 C.3   150  MET150      0.0401
      6  CG        45.3600    7.9940    3.3600 C.3   150  MET150      0.0596
      7  SD        45.4270    9.0490    4.8180 S.3   150  MET150     -0.1393
      8  CE        47.0200    9.8280    4.6660 C.3   150  MET150      0.0692
      9  N         43.7360    7.1190   -0.8360 N.am  151  GLY151     -0.1942
     10  CA        42.4630    6.6040   -1.3280 C.3   151  GLY151      0.2014
     11  C         41.3520    7.6070   -1.1030 C.2   151  GLY151      0.2638
     12  O         41.5320    8.8160   -1.2900 O.2   151  GLY151     -0.2714
     13  N         40.2010    7.1160   -0.6620 N.am  152  TRP152     -0.1973
     14  CA        39.0700    8.0060   -0.3850 C.3   152  TRP152      0.1640
     15  C         39.1190    8.4390    1.0770 C.2   152  TRP152      0.2290
     16  O         39.6380    7.7180    1.9340 O.2   152  TRP152     -0.2864
     17  CB        37.7400    7.3180   -0.7270 C.3   152  TRP152      0.0576
     18  CG        37.6520    6.9940   -2.1840 C.ar  152  TRP152      0.0006
     19  CD1       38.1750    5.8950   -2.8130 C.ar  152  TRP152      0.0946
     20  CD2       37.0310    7.7850   -3.2050 C.ar  152  TRP152      0.0152
     21  NE1       37.9140    5.9520   -4.1680 N.ar  152  TRP152     -0.2442
     22  CE2       37.2150    7.1020   -4.4350 C.ar  152  TRP152      0.0810
     23  CE3       36.3380    9.0030   -3.2050 C.ar  152  TRP152      0.0012
     24  CZ2       36.7200    7.5940   -5.6480 C.ar  152  TRP152      0.0191
     25  CZ3       35.8470    9.4960   -4.4260 C.ar  152  TRP152      0.0001
     26  CH2       36.0460    8.7880   -5.6230 C.ar  152  TRP152      0.0015
     27  N         40.4010   -4.3770    7.2090 N.3   186  SER186     -0.1202
     28  CA        40.6210   -2.9130    7.2340 C.3   186  SER186      0.2020
     29  C         39.4930   -2.0880    7.8420 C.2   186  SER186      0.2618
     30  O         39.7030   -0.9240    8.1720 O.2   186  SER186     -0.2717
     31  CB        40.9350   -2.3560    5.8450 C.3   186  SER186      0.2103
     32  OG        42.1250   -2.9420    5.3320 O.3   186  SER186     -0.2182
     33  N         38.3120   -2.6950    7.9920 N.am  187  TYR187     -0.1975
     34  CA        37.1220   -1.9520    8.4440 C.3   187  TYR187      0.1639
     35  C         36.5770   -2.4380    9.7820 C.2   187  TYR187      0.2290
     36  O         35.4920   -2.0530   10.1710 O.2   187  TYR187     -0.2864
     37  CB        36.0320   -2.0110    7.3660 C.3   187  TYR187      0.0560
     38  CG        36.4690   -1.4240    6.0430 C.ar  187  TYR187     -0.0198
     39  CD1       36.4000   -0.0430    5.8100 C.ar  187  TYR187     -0.0009
     40  CD2       36.9700   -2.2430    5.0240 C.ar  187  TYR187     -0.0009
     41  CE1       36.8000    0.5150    4.5920 C.ar  187  TYR187      0.0417
     42  CE2       37.3760   -1.6950    3.8140 C.ar  187  TYR187      0.0417
     43  CZ        37.2940   -0.3220    3.6050 C.ar  187  TYR187      0.1957
     44  OH        37.7030    0.2070    2.3990 O.3   187  TYR187     -0.2866
     45  N         33.1750    4.5380    7.3880 N.3   211  ARG211     -0.1231
     46  CA        34.1070    3.5170    6.8810 C.3   211  ARG211      0.1694
     47  C         35.2330    4.1280    6.0520 C.2   211  ARG211      0.2592
     48  O         36.2660    3.4930    5.8660 O.2   211  ARG211     -0.2718
     49  CB        33.3740    2.4340    6.0690 C.3   211  ARG211      0.0321
     50  CG        32.9860    2.8790    4.6800 C.3   211  ARG211      0.0489
     51  CD        32.0080    1.9390    4.0290 C.3   211  ARG211      0.2205
     52  NE        32.5480    0.5920    3.8150 N.pl3 211  ARG211     -0.0865
     53  CZ        33.3720    0.2500    2.8240 C.cat 211  ARG211      0.5346
     54  NH1       33.8530    1.1560    1.9790 N.pl3 211  ARG211      0.1354
     55  NH2       33.7510   -1.0140    2.6810 N.pl3 211  ARG211      0.1354
     56  N         35.0210    5.3470    5.5540 N.am  212  PHE212     -0.1962
     57  CA        36.0400    6.0520    4.7500 C.3   212  PHE212      0.1771
     58  C         36.8810    7.0590    5.5210 C.2   212  PHE212      0.2619
     59  O         37.7430    7.7150    4.9240 O.2   212  PHE212     -0.2715
     60  CB        35.3870    6.7630    3.5660 C.3   212  PHE212      0.0574
     61  CG        34.7050    5.8300    2.6100 C.ar  212  PHE212     -0.0200
     62  CD1       35.4560    5.0400    1.7400 C.ar  212  PHE212     -0.0042
     63  CD2       33.3080    5.7480    2.5790 C.ar  212  PHE212     -0.0042
     64  CE1       34.8310    4.1960    0.8320 C.ar  212  PHE212     -0.0003
     65  CE2       32.6600    4.8930    1.6720 C.ar  212  PHE212     -0.0003
     66  CZ        33.4270    4.1160    0.8050 C.ar  212  PHE212     -0.0000
     67  N         36.6430    7.2000    6.8270 N.am  213  ILE213     -0.1963
     68  CA        37.4620    8.1340    7.6170 C.3   213  ILE213      0.1727
     69  C         38.8640    7.5580    7.8070 C.2   213  ILE213      0.2616
     70  O         39.0390    6.4610    8.3370 O.2   213  ILE213     -0.2715
     71  CB        36.8050    8.5070    8.9720 C.3   213  ILE213      0.0290
     72  CG1       35.4580    9.1970    8.7350 C.3   213  ILE213      0.0022
     73  CG2       37.7530    9.4060    9.8110 C.3   213  ILE213      0.0023
     74  CD1       34.6350    9.3810   10.0100 C.3   213  ILE213      0.0001
     75  N         39.8570    8.3080    7.3360 N.am  214  ASN214     -0.1958
     76  CA        41.2480    7.9000    7.4720 C.3   214  ASN214      0.1819
     77  C         41.8070    8.0980    8.8870 C.2   214  ASN214      0.2621
     78  O         41.2450    8.8430    9.7090 O.2   214  ASN214     -0.2715
     79  CB        42.1160    8.6250    6.4280 C.3   214  ASN214      0.1195
     80  CG        41.8650    8.1380    5.0090 C.2   214  ASN214      0.2630
     81  OD1       41.7300    8.9400    4.0610 O.2   214  ASN214     -0.2716
     82  ND2       41.7800    6.8390    4.8500 N.am  214  ASN214     -0.0877
     83  N         42.9130    7.4130    9.1610 N.am  215  HIS215     -0.1973
     84  CA        43.6090    7.5310   10.4440 C.3   215  HIS215      0.1656
     85  C         44.4350    8.8000   10.4780 C.2   215  HIS215      0.2291
     86  O         45.0730    9.1450    9.4880 O.2   215  HIS215     -0.2864
     87  CB        44.5580    6.3530   10.6320 C.3   215  HIS215      0.0771
     88  CG        45.4550    6.5180   11.8130 C.ar  215  HIS215      0.0820
     89  ND1       46.7100    7.0870   11.7330 N.ar  215  HIS215     -0.2267
     90  CD2       45.2410    6.2590   13.1220 C.ar  215  HIS215      0.1154
     91  CE1       47.2400    7.1400   12.9410 C.ar  215  HIS215      0.1986
     92  NE2       46.3720    6.6380   13.8030 N.ar  215  HIS215     -0.2212
     93  N         43.0620    5.3070   14.8250 N.3   256  TYR256     -0.1241
     94  CA        42.6380    3.9110   14.7130 C.3   256  TYR256      0.1605
     95  C         43.0940    3.0740   15.9050 C.2   256  TYR256      0.2264
     96  O         42.4470    2.0870   16.2530 O.2   256  TYR256     -0.2867
     97  CB        43.1870    3.2660   13.4390 C.3   256  TYR256      0.0534
     98  CG        42.5480    3.6810   12.1150 C.ar  256  TYR256     -0.0201
     99  CD1       41.6210    4.7240   12.0250 C.ar  256  TYR256     -0.0009
    100  CD2       42.9130    3.0200   10.9530 C.ar  256  TYR256     -0.0009
    101  CE1       41.0640    5.0670   10.7730 C.ar  256  TYR256      0.0417
    102  CE2       42.3860    3.3510    9.7210 C.ar  256  TYR256      0.0417
    103  CZ        41.4580    4.3710    9.6290 C.ar  256  TYR256      0.1957
    104  OH        40.9660    4.6490    8.3720 O.3   256  TYR256     -0.2866
    105  N         45.1180   -1.7070   15.5350 N.3   260  PHE260     -0.1227
    106  CA        45.1570   -1.6070   14.0880 C.3   260  PHE260      0.1736
    107  C         46.6080   -1.6070   13.5780 C.2   260  PHE260      0.2595
    108  O         46.9920   -2.4200   12.7300 O.2   260  PHE260     -0.2718
    109  CB        44.4240   -0.3360   13.6290 C.3   260  PHE260      0.0547
    110  CG        44.3730   -0.1600   12.1290 C.ar  260  PHE260     -0.0202
    111  CD1       43.2850   -0.6290   11.3940 C.ar  260  PHE260     -0.0042
    112  CD2       45.4030    0.5050   11.4500 C.ar  260  PHE260     -0.0042
    113  CE1       43.2180   -0.4680   10.0160 C.ar  260  PHE260     -0.0003
    114  CE2       45.3470    0.6630   10.0570 C.ar  260  PHE260     -0.0003
    115  CZ        44.2580    0.1790    9.3430 C.ar  260  PHE260     -0.0000
    116  N         47.3950   -0.6660   14.0960 N.am  261  TRP261     -0.1976
    117  CA        48.7420   -0.4500   13.5910 C.3   261  TRP261      0.1640
    118  C         49.7270   -1.5590   13.9410 C.2   261  TRP261      0.2290
    119  O         50.6720   -1.7770   13.1910 O.2   261  TRP261     -0.2864
    120  CB        49.2630    0.9340   13.9860 C.3   261  TRP261      0.0576
    121  CG        48.5850    2.0020   13.1810 C.ar  261  TRP261      0.0006
    122  CD1       47.6160    2.8680   13.6120 C.ar  261  TRP261      0.0946
    123  CD2       48.8000    2.2950   11.7930 C.ar  261  TRP261      0.0152
    124  NE1       47.2110    3.6820   12.5760 N.ar  261  TRP261     -0.2442
    125  CE2       47.9230    3.3540   11.4500 C.ar  261  TRP261      0.0810
    126  CE3       49.6440    1.7610   10.8030 C.ar  261  TRP261      0.0012
    127  CZ2       47.8820    3.8990   10.1680 C.ar  261  TRP261      0.0191
    128  CZ3       49.5990    2.3030    9.5200 C.ar  261  TRP261      0.0001
    129  CH2       48.7190    3.3580    9.2160 C.ar  261  TRP261      0.0015
    130  N         48.8530   -3.6390   10.8060 N.3   264  LYS264     -0.1245
    131  CA        48.9940   -2.9890    9.5050 C.3   264  LYS264      0.1561
    132  C         50.3410   -2.2980    9.2870 C.2   264  LYS264      0.2260
    133  O         50.7920   -2.1530    8.1410 O.2   264  LYS264     -0.2867
    134  CB        47.8450   -2.0000    9.2800 C.3   264  LYS264      0.0271
    135  CG        46.4760   -2.6880    9.1130 C.3   264  LYS264      0.0035
    136  CD        46.4180   -3.5190    7.8400 C.3   264  LYS264      0.0206
    137  CE        45.0240   -4.0700    7.6320 C.3   264  LYS264      0.1093
    138  NZ        45.0480   -5.1520    6.6150 N.3   264  LYS264     -0.1314
    139  N         52.4630   -1.3230    5.8170 N.3   268  PHE268     -0.1227
    140  CA        52.6070    0.0520    5.3310 C.3   268  PHE268      0.1736
    141  C         52.6420    1.0210    6.5000 C.2   268  PHE268      0.2596
    142  O         52.1910    0.6970    7.6070 O.2   268  PHE268     -0.2718
    143  CB        51.4830    0.4330    4.3490 C.3   268  PHE268      0.0547
    144  CG        50.0960    0.2720    4.9160 C.ar  268  PHE268     -0.0202
    145  CD1       49.5070    1.2920    5.6580 C.ar  268  PHE268     -0.0042
    146  CD2       49.3870   -0.9050    4.7140 C.ar  268  PHE268     -0.0042
    147  CE1       48.2170    1.1360    6.1990 C.ar  268  PHE268     -0.0003
    148  CE2       48.1150   -1.0660    5.2320 C.ar  268  PHE268     -0.0003
    149  CZ        47.5300   -0.0480    5.9760 C.ar  268  PHE268     -0.0000
    150  N         53.1660    2.2140    6.2410 N.am  269  SER269     -0.1938
    151  CA        53.3140    3.2260    7.2700 C.3   269  SER269      0.2055
    152  C         52.2070    4.2620    7.1960 C.2   269  SER269      0.2643
    153  O         51.5690    4.4380    6.1580 O.2   269  SER269     -0.2714
    154  CB        54.6660    3.9210    7.1380 C.3   269  SER269      0.2130
    155  OG        55.7100    2.9880    7.3050 O.3   269  SER269     -0.2179
    156  N         51.9840    4.9330    8.3170 N.am  270  CYS270     -0.1953
    157  CA        51.0640    6.0580    8.3630 C.3   270  CYS270      0.1843
    158  C         51.5730    7.2210    7.5210 C.2   270  CYS270      0.2625
    159  O         52.7500    7.6020    7.6030 O.2   270  CYS270     -0.2714
    160  CB        50.8600    6.5160    9.7990 C.3   270  CYS270      0.0997
    161  SG        49.6750    7.8430    9.9360 S.3   270  CYS270     -0.0797
    162  N         50.6850    7.7950    6.7230 N.am  271  ARG271     -0.1963
    163  CA        51.0270    8.9830    5.9490 C.3   271  ARG271      0.1729
    164  C         50.1510   10.1820    6.3250 C.2   271  ARG271      0.2616
    165  O         49.8680   11.0530    5.5010 O.2   271  ARG271     -0.2715
    166  CB        51.0200    8.6500    4.4550 C.3   271  ARG271      0.0348
    167  CG        52.1910    7.7220    4.0840 C.3   271  ARG271      0.0492
    168  CD        52.1940    7.3000    2.6330 C.3   271  ARG271      0.2205
    169  NE        51.0600    6.4320    2.3320 N.pl3 271  ARG271     -0.0865
    170  CZ        49.9660    6.8450    1.7140 C.cat 271  ARG271      0.5346
    171  NH1       48.9670    6.0010    1.4780 N.pl3 271  ARG271      0.1354
    172  NH2       49.8790    8.1080    1.3220 N.pl3 271  ARG271      0.1354
    173  N         49.7670   10.2460    7.6040 N.am  272  CYS272     -0.1968
    174  CA        48.9200   11.3430    8.0840 C.3   272  CYS272      0.1712
    175  C         49.6050   12.7060    7.9730 C.2   272  CYS272      0.2296
    176  O         48.9330   13.7210    7.8640 O.2   272  CYS272     -0.2864
    177  CB        48.4010   11.0910    9.5110 C.3   272  CYS272      0.0983
    178  SG        49.5830   11.4390   10.8610 S.3   272  CYS272     -0.0798
@<TRIPOS>BOND
     1    24    26   ar
     2    24    22   ar
     3    26    25   ar
     4    22    21   ar
     5    22    20   ar
     6    25    23   ar
     7    21    19   ar
     8    23    20   ar
     9    20    18   ar
    10    19    18   ar
    11    18    17    1
    12    10    11    1
    13    10     9    1
    14    12    11    2
    15    11    13   am
    16     9     3   am
    17    17    14    1
    18    13    14    1
    19    14    15    1
    20     1     2    1
    21     3     2    1
    22     3     4    2
    23    66    64   ar
    24    66    65   ar
    25     2     5    1
    26    64    62   ar
    27    15    16    2
    28   172   170    1
    29   171   170    1
    30    65    63   ar
    31   170   169    2
    32    62    61   ar
    33    54    53    1
    34     5     6    1
    35   169   168    1
    36    44    43    1
    37    63    61   ar
    38    61    60    1
    39   168   167    1
    40    55    53    1
    41    53    52    2
    42     6     7    1
    43    60    57    1
    44    43    42   ar
    45    43    41   ar
    46    42    40   ar
    47    52    51    1
    48    51    50    1
    49    81    80    2
    50   167   166    1
    51   143   144    1
    52   143   140    1
    53   166   163    1
    54    41    39   ar
    55     8     7    1
    56    50    49    1
    57   146   144   ar
    58   146   148   ar
    59    57    58    1
    60    57    56    1
    61    82    80   am
    62   144   145   ar
    63    59    58    2
    64    80    79    1
    65    40    38   ar
    66   148   149   ar
    67   140   139    1
    68   140   141    1
    69    32    31    1
    70   165   164    2
    71    58    67   am
    72    56    47   am
    73   145   147   ar
    74    39    38   ar
    75    31    28    1
    76    48    47    2
    77   163   164    1
    78   163   162    1
    79   149   147   ar
    80    38    37    1
    81    47    46    1
    82    49    46    1
    83   153   152    2
    84   150   141   am
    85   150   151    1
    86   164   173   am
    87    79    76    1
    88   141   142    2
    89   138   137    1
    90   162   158   am
    91    67    68    1
    92    46    45    1
    93   154   151    1
    94   154   155    1
    95   152   151    1
    96   152   156   am
    97    27    28    1
    98    28    29    1
    99    75    76    1
   100    75    69   am
   101    37    34    1
   102    76    77    1
   103   158   159    2
   104   158   157    1
   105   173   174    1
   106    68    69    1
   107    68    71    1
   108   137   136    1
   109    69    70    2
   110   136   135    1
   111    29    33   am
   112    29    30    2
   113   176   175    2
   114   175   174    1
   115    33    34    1
   116   174   177    1
   117   133   132    2
   118   156   157    1
   119   157   160    1
   120   104   103    1
   121    34    35    1
   122    72    71    1
   123    72    74    1
   124    77    83   am
   125    77    78    2
   126    71    73    1
   127   135   134    1
   128    83    84    1
   129   129   128   ar
   130   129   127   ar
   131   134   131    1
   132   132   131    1
   133   115   113   ar
   134   115   114   ar
   135    86    85    2
   136   131   130    1
   137   177   178    1
   138   128   126   ar
   139   103   102   ar
   140   103   101   ar
   141   102   100   ar
   142    35    36    2
   143   160   161    1
   144   113   111   ar
   145   114   112   ar
   146   127   125   ar
   147    84    85    1
   148    84    87    1
   149    87    88    1
   150   101    99   ar
   151   126   123   ar
   152   100    98   ar
   153   111   110   ar
   154   125   123   ar
   155   125   124   ar
   156   112   110   ar
   157    89    88   ar
   158    89    91   ar
   159   123   121   ar
   160    88    90   ar
   161    99    98   ar
   162    98    97    1
   163   110   109    1
   164   124   122   ar
   165   108   107    2
   166    91    92   ar
   167    90    92   ar
   168   121   122   ar
   169   121   120    1
   170   119   118    2
   171    97    94    1
   172   107   106    1
   173   107   116   am
   174   117   118    1
   175   117   120    1
   176   117   116    1
   177   109   106    1
   178   106   105    1
   179    94    93    1
   180    94    95    1
   181    95    96    2
