@<TRIPOS>MOLECULE
tmp/3hndB02.pdb
 142 135 0 0 0
SMALL
GASTEIGER

@<TRIPOS>ATOM
      1  N        -19.2470   25.3820   27.9900 N.3   198  ALA198     -0.1231
      2  CA       -19.8820   24.0720   28.1620 C.3   198  ALA198      0.1694
      3  C        -19.4480   23.3870   29.4710 C.2   198  ALA198      0.2593
      4  O        -18.4120   23.7340   30.0630 O.2   198  ALA198     -0.2718
      5  CB       -19.6280   23.1670   26.9510 C.3   198  ALA198      0.0304
      6  N        -20.2490   22.4170   29.9060 N.am  199  SER199     -0.1939
      7  CA       -20.0370   21.7040   31.1660 C.3   199  SER199      0.2040
      8  C        -18.6010   21.3230   31.5450 C.2   199  SER199      0.2485
      9  O        -18.1340   21.7250   32.6130 O.2   199  SER199     -0.2729
     10  CB       -20.9360   20.4850   31.2170 C.3   199  SER199      0.2129
     11  OG       -22.2730   20.9270   31.1450 O.3   199  SER199     -0.2179
     12  N        -17.8920   20.5730   30.6790 N.am  200  PRO200     -0.2726
     13  CA       -16.5300   20.1640   31.0240 C.3   200  PRO200      0.1402
     14  C        -15.6470   21.3410   31.5000 C.2   200  PRO200      0.2269
     15  O        -14.9200   21.2180   32.5000 O.2   200  PRO200     -0.2865
     16  CB       -15.9930   19.6130   29.7060 C.3   200  PRO200      0.0296
     17  CG       -17.1720   19.1640   29.0000 C.3   200  PRO200      0.0237
     18  CD       -18.2660   20.1030   29.3360 C.3   200  PRO200      0.0939
     19  N        -15.4260   18.6370   25.4630 N.3   214  SER214     -0.1202
     20  CA       -16.4720   17.5970   25.4270 C.3   214  SER214      0.2020
     21  C        -16.5100   16.7230   24.1410 C.2   214  SER214      0.2619
     22  O        -16.7570   15.5160   24.2320 O.2   214  SER214     -0.2717
     23  CB       -17.8770   18.1520   25.8100 C.3   214  SER214      0.2103
     24  OG       -18.0230   19.5530   25.5640 O.3   214  SER214     -0.2182
     25  N        -16.2590   17.3220   22.9710 N.am  215  CYS215     -0.1969
     26  CA       -16.3310   16.6090   21.6870 C.3   215  CYS215      0.1712
     27  C        -15.0680   15.9120   21.3220 C.2   215  CYS215      0.2296
     28  O        -13.9870   16.4770   21.4260 O.2   215  CYS215     -0.2864
     29  CB       -16.5620   17.5750   20.5430 C.3   215  CYS215      0.0983
     30  SG       -18.1060   18.3880   20.6040 S.3   215  CYS215     -0.0798
     31  N        -14.6380   11.4150   30.2690 N.3   242  ALA242     -0.1231
     32  CA       -15.9370   12.0780   30.0190 C.3   242  ALA242      0.1694
     33  C        -16.3140   12.2720   28.5400 C.2   242  ALA242      0.2593
     34  O        -17.4830   12.4390   28.2100 O.2   242  ALA242     -0.2718
     35  CB       -16.0420   13.4360   30.7850 C.3   242  ALA242      0.0304
     36  N        -15.3330   12.2530   27.6520 N.am  243  GLY243     -0.1942
     37  CA       -15.5800   12.5920   26.2450 C.3   243  GLY243      0.2014
     38  C        -16.6390   11.7940   25.4850 C.2   243  GLY243      0.2639
     39  O        -16.6770   10.5570   25.5770 O.2   243  GLY243     -0.2714
     40  N        -17.5020   12.5180   24.7620 N.am  244  GLY244     -0.1954
     41  CA       -18.4380   11.9390   23.8040 C.3   244  GLY244      0.1869
     42  C        -17.7410   11.8530   22.4610 C.2   244  GLY244      0.2309
     43  O        -16.9040   12.7150   22.1310 O.2   244  GLY244     -0.2863
     44  N        -25.1670    6.6890   32.6150 N.3   290  ARG290     -0.1245
     45  CA       -25.2360    6.3720   31.1910 C.3   290  ARG290      0.1563
     46  C        -23.8730    6.0000   30.5980 C.2   290  ARG290      0.2260
     47  O        -22.8870    6.7340   30.7790 O.2   290  ARG290     -0.2867
     48  CB       -25.9030    7.5300   30.4300 C.3   290  ARG290      0.0307
     49  CG       -25.3890    8.9080   30.8430 C.3   290  ARG290      0.0489
     50  CD       -26.5080    9.9380   30.9960 C.3   290  ARG290      0.2205
     51  NE       -26.1590   11.2060   30.3520 N.pl3 290  ARG290     -0.0865
     52  CZ       -25.0860   11.9450   30.6420 C.cat 290  ARG290      0.5346
     53  NH1      -24.2180   11.5600   31.5800 N.pl3 290  ARG290      0.1354
     54  NH2      -24.8710   13.0770   29.9810 N.pl3 290  ARG290      0.1354
     55  N        -20.6920    5.4850   28.3010 N.3   292  GLY292     -0.1210
     56  CA       -19.9570    6.4440   27.4820 C.3   292  GLY292      0.1956
     57  C        -20.6380    6.5570   26.1330 C.2   292  GLY292      0.2611
     58  O        -21.1230    5.5540   25.5840 O.2   292  GLY292     -0.2717
     59  N        -20.7120    7.7620   25.5880 N.am  293  ALA293     -0.1979
     60  CA       -21.4260    7.9170   24.3250 C.3   293  ALA293      0.1597
     61  C        -20.5090    7.8180   23.1010 C.2   293  ALA293      0.2287
     62  O        -19.5490    8.5980   22.9720 O.2   293  ALA293     -0.2864
     63  CB       -22.2020    9.1980   24.3140 C.3   293  ALA293      0.0319
     64  N        -19.7590   14.3730   14.9680 N.3   424  ASN424     -0.1225
     65  CA       -19.5610   14.0690   16.3800 C.3   424  ASN424      0.1785
     66  C        -20.8120   13.4520   16.9340 C.2   424  ASN424      0.2597
     67  O        -21.7270   13.1820   16.1890 O.2   424  ASN424     -0.2718
     68  CB       -19.1820   15.3210   17.1760 C.3   424  ASN424      0.1169
     69  CG       -20.3270   16.2500   17.3400 C.2   424  ASN424      0.2627
     70  OD1      -20.8080   16.8250   16.3720 O.2   424  ASN424     -0.2716
     71  ND2      -20.7980   16.3860   18.5590 N.am  424  ASN424     -0.0877
     72  N        -20.8420   13.2360   18.2400 N.am  425  LEU425     -0.1966
     73  CA       -21.9660   12.5970   18.8700 C.3   425  LEU425      0.1728
     74  C        -23.2780   13.3480   18.6330 C.2   425  LEU425      0.2616
     75  O        -24.3300   12.7250   18.4670 O.2   425  LEU425     -0.2715
     76  CB       -21.6970   12.4440   20.3660 C.3   425  LEU425      0.0311
     77  CG       -22.8410   11.8290   21.1660 C.3   425  LEU425      0.0022
     78  CD1      -22.8970   10.3010   20.9920 C.3   425  LEU425      0.0001
     79  CD2      -22.7060   12.2280   22.6000 C.3   425  LEU425      0.0001
     80  N        -23.2270   14.6740   18.6030 N.am  426  CYS426     -0.1968
     81  CA       -24.4600   15.4440   18.5010 C.3   426  CYS426      0.1712
     82  C        -24.6510   16.1040   17.1550 C.2   426  CYS426      0.2296
     83  O        -25.5870   16.8600   16.9610 O.2   426  CYS426     -0.2864
     84  CB       -24.5590   16.4640   19.6250 C.3   426  CYS426      0.0983
     85  SG       -24.3930   15.7150   21.2720 S.3   426  CYS426     -0.0798
     86  N        -23.0950   18.3220   15.4030 N.3   428  GLU428     -0.1245
     87  CA       -22.8100   19.7220   15.1120 C.3   428  GLU428      0.1567
     88  C        -21.4140   19.9110   14.5790 C.2   428  GLU428      0.2260
     89  O        -21.1810   20.8240   13.8000 O.2   428  GLU428     -0.2867
     90  CB       -23.0630   20.6400   16.3190 C.3   428  GLU428      0.0388
     91  CG       -21.9590   20.6870   17.3720 C.3   428  GLU428      0.1160
     92  CD       -22.0360   19.5390   18.3750 C.2   428  GLU428      0.3649
     93  OE1      -22.9210   18.6530   18.2430 O.co2 428  GLU428     -0.2457
     94  OE2      -21.2090   19.5310   19.3120 O.co2 428  GLU428     -0.2457
     95  N        -16.4970   24.0560   23.6180 N.3   443  LEU443     -0.1245
     96  CA       -17.7520   24.7720   23.4240 C.3   443  LEU443      0.1561
     97  C        -18.0840   25.8630   24.4500 C.2   443  LEU443      0.2260
     98  O        -17.6520   25.8410   25.6200 O.2   443  LEU443     -0.2867
     99  CB       -18.9190   23.7850   23.2690 C.3   443  LEU443      0.0270
    100  CG       -18.7530   22.5380   22.3800 C.3   443  LEU443      0.0019
    101  CD1      -20.0400   21.7270   22.3700 C.3   443  LEU443      0.0001
    102  CD2      -18.3040   22.8510   20.9530 C.3   443  LEU443      0.0001
    103  N        -24.4270   23.5450   19.0840 N.3   599  MET599     -0.1231
    104  CA       -24.6620   22.2750   19.7750 C.3   599  MET599      0.1687
    105  C        -25.9560   22.3740   20.5410 C.2   599  MET599      0.2434
    106  O        -26.4560   23.4780   20.7280 O.2   599  MET599     -0.2733
    107  CB       -23.5180   21.9820   20.7560 C.3   599  MET599      0.0400
    108  CG       -23.3610   22.9620   21.9610 C.3   599  MET599      0.0596
    109  SD       -22.7690   24.6510   21.6250 S.3   599  MET599     -0.1393
    110  CE       -24.3410   25.5190   21.6890 C.3   599  MET599      0.0692
    111  N        -26.4950   21.2260   21.0020 N.am  600  PRO600     -0.2718
    112  CA       -27.6450   21.3180   21.8830 C.3   600  PRO600      0.1535
    113  C        -27.0710   21.9810   23.1110 C.2   600  PRO600      0.2599
    114  O        -25.8440   22.0890   23.2150 O.2   600  PRO600     -0.2715
    115  CB       -28.1190   19.8680   22.0120 C.3   600  PRO600      0.0310
    116  CG       -26.9620   19.0590   21.7440 C.3   600  PRO600      0.0237
    117  CD       -26.0850   19.8260   20.7980 C.3   600  PRO600      0.0939
    118  N        -27.9130   22.4450   24.0200 N.am  601  THR601     -0.1937
    119  CA       -27.4050   22.9590   25.2740 C.3   601  THR601      0.2028
    120  C        -28.1780   22.2990   26.4170 C.2   601  THR601      0.2642
    121  O        -28.7400   22.9720   27.2870 O.2   601  THR601     -0.2714
    122  CB       -27.5330   24.4470   25.2610 C.3   601  THR601      0.1808
    123  OG1      -28.6000   24.7670   24.3770 O.3   601  THR601     -0.2208
    124  CG2      -26.2780   25.0710   24.6980 C.3   601  THR601      0.0379
    125  N        -28.2020   20.9610   26.3880 N.am  602  ALA602     -0.1963
    126  CA       -29.0300   20.1260   27.2710 C.3   602  ALA602      0.1728
    127  C        -29.0780   20.6430   28.6970 C.2   602  ALA602      0.2617
    128  O        -30.1350   21.0630   29.1680 O.2   602  ALA602     -0.2715
    129  CB       -28.5250   18.7020   27.2500 C.3   602  ALA602      0.0334
    130  N        -27.9160   20.6360   29.3550 N.am  603  SER603     -0.1936
    131  CA       -27.7670   21.0720   30.7510 C.3   603  SER603      0.2055
    132  C        -27.6100   22.5820   30.9490 C.2   603  SER603      0.2643
    133  O        -28.3320   23.1870   31.7320 O.2   603  SER603     -0.2714
    134  CB       -26.5910   20.3440   31.4060 C.3   603  SER603      0.2130
    135  OG       -27.0200   19.1690   32.0770 O.3   603  SER603     -0.2179
    136  N        -26.6710   23.1850   30.2320 N.am  604  THR604     -0.1950
    137  CA       -26.3820   24.6150   30.3690 C.3   604  THR604      0.1897
    138  C        -27.5120   25.6080   29.9970 C.2   604  THR604      0.2313
    139  O        -27.4120   26.7970   30.3070 O.2   604  THR604     -0.2863
    140  CB       -25.1090   25.0040   29.6050 C.3   604  THR604      0.1794
    141  OG1      -25.2140   24.5490   28.2590 O.3   604  THR604     -0.2208
    142  CG2      -23.8900   24.3780   30.2540 C.3   604  THR604      0.0378
@<TRIPOS>BOND
     1    89    88    2
     2    88    87    1
     3    64    65    1
     4    87    86    1
     5    87    90    1
     6    67    66    2
     7    90    91    1
     8    70    69    2
     9    65    66    1
    10    65    68    1
    11    66    72   am
    12    83    82    2
    13    82    81    1
    14    68    69    1
    15    69    71   am
    16    91    92    1
    17    72    73    1
    18    93    92   ar
    19    92    94   ar
    20    75    74    2
    21    81    80    1
    22    81    84    1
    23    80    74   am
    24    74    73    1
    25    73    76    1
    26   103   104    1
    27    84    85    1
    28   104   105    1
    29   104   107    1
    30    76    77    1
    31   105   106    2
    32   105   111   am
    33    29    30    1
    34    29    26    1
    35   107   108    1
    36   117   111    1
    37   117   116    1
    38   102   100    1
    39    78    77    1
    40   111   112    1
    41    77    79    1
    42    27    28    2
    43    27    26    1
    44   109   110    1
    45   109   108    1
    46    26    25    1
    47   116   115    1
    48   112   115    1
    49   112   113    1
    50    43    42    2
    51   101   100    1
    52   100    99    1
    53    42    41    1
    54    25    21   am
    55    62    61    2
    56    61    60    1
    57   113   114    2
    58   113   118   am
    59    99    96    1
    60    96    95    1
    61    96    97    1
    62    41    40    1
    63   118   119    1
    64    21    22    2
    65    21    20    1
    66    63    60    1
    67    60    59    1
    68   123   122    1
    69    97    98    2
    70   124   122    1
    71    40    38   am
    72   122   119    1
    73   119   120    1
    74    20    19    1
    75    20    23    1
    76    38    39    2
    77    38    37    1
    78    24    23    1
    79    58    57    2
    80    59    57   am
    81    57    56    1
    82    37    36    1
    83   125   120   am
    84   125   126    1
    85   120   121    2
    86     5     2    1
    87   129   126    1
    88   126   127    1
    89    56    55    1
    90    36    33   am
    91     1     2    1
    92     2     3    1
    93    34    33    2
    94   141   140    1
    95    33    32    1
    96   127   128    2
    97   127   130   am
    98    17    18    1
    99    17    16    1
   100    18    12    1
   101   130   131    1
   102     3     6   am
   103     3     4    2
   104   140   142    1
   105   140   137    1
   106    16    13    1
   107     6     7    1
   108    54    52    1
   109   138   139    2
   110   138   137    1
   111    32    31    1
   112    32    35    1
   113   136   137    1
   114   136   132   am
   115    51    52    2
   116    51    50    1
   117    48    49    1
   118    48    45    1
   119    46    47    2
   120    46    45    1
   121    52    53    1
   122    12    13    1
   123    12     8   am
   124   131   132    1
   125   131   134    1
   126    49    50    1
   127   132   133    2
   128    13    14    1
   129    11    10    1
   130     7    10    1
   131     7     8    1
   132    45    44    1
   133   134   135    1
   134    14    15    2
   135     8     9    2
