@<TRIPOS>MOLECULE
tmp/3hnfB01.pdb
 103 97 0 0 0
SMALL
GASTEIGER

@<TRIPOS>ATOM
      1  N         -5.9240    1.3610   -8.9500 N.3   226  ASP226     -0.1225
      2  CA        -6.2800    2.7420   -8.8140 C.3   226  ASP226      0.1805
      3  C         -5.2210    3.6190   -9.4700 C.2   226  ASP226      0.2598
      4  O         -4.3420    4.1750   -8.8110 O.2   226  ASP226     -0.2718
      5  CB        -6.4370    3.0800   -7.3480 C.3   226  ASP226      0.1424
      6  CG        -7.6320    3.9400   -7.0910 C.2   226  ASP226      0.3668
      7  OD1       -7.8030    4.3480   -5.9190 O.co2 226  ASP226     -0.2456
      8  OD2       -8.3990    4.2070   -8.0510 O.co2 226  ASP226     -0.2456
      9  N         -5.2920    3.7030  -10.7890 N.am  227  SER227     -0.1938
     10  CA        -4.4690    4.6320  -11.5300 C.3   227  SER227      0.2055
     11  C         -5.0120    4.8770  -12.9320 C.2   227  SER227      0.2642
     12  O         -5.5300    3.9770  -13.5740 O.2   227  SER227     -0.2714
     13  CB        -3.0200    4.1500  -11.5930 C.3   227  SER227      0.2130
     14  OG        -2.9440    2.8780  -12.1850 O.3   227  SER227     -0.2179
     15  N         -4.8960    6.1150  -13.3880 N.am  228  ILE228     -0.1977
     16  CA        -5.0910    6.4260  -14.7810 C.3   228  ILE228      0.1596
     17  C         -4.3030    5.4260  -15.6210 C.2   228  ILE228      0.2287
     18  O         -4.8370    4.8870  -16.5850 O.2   228  ILE228     -0.2864
     19  CB        -4.7050    7.8980  -15.0910 C.3   228  ILE228      0.0276
     20  CG1       -5.8320    8.8540  -14.6620 C.3   228  ILE228      0.0022
     21  CG2       -4.3230    8.0980  -16.5680 C.3   228  ILE228      0.0022
     22  CD1       -7.2130    8.5510  -15.2310 C.3   228  ILE228      0.0001
     23  N         -6.0360    1.8250  -15.2970 N.3   231  ILE231     -0.1245
     24  CA        -7.2940    1.8850  -16.0250 C.3   231  ILE231      0.1561
     25  C         -7.0870    1.6720  -17.5160 C.2   231  ILE231      0.2260
     26  O         -7.7640    0.8470  -18.1430 O.2   231  ILE231     -0.2867
     27  CB        -8.0210    3.2100  -15.7720 C.3   231  ILE231      0.0252
     28  CG1       -8.5790    3.2240  -14.3490 C.3   231  ILE231      0.0019
     29  CG2       -9.1420    3.3900  -16.7530 C.3   231  ILE231      0.0019
     30  CD1       -8.7380    4.6160  -13.7640 C.3   231  ILE231      0.0001
     31  N        -11.4050    0.5480   -7.7990 N.3   255  ILE255     -0.1231
     32  CA       -11.3910    1.9290   -8.2780 C.3   255  ILE255      0.1692
     33  C        -11.9540    2.8910   -7.2280 C.2   255  ILE255      0.2591
     34  O        -12.9660    2.5900   -6.6020 O.2   255  ILE255     -0.2718
     35  CB       -12.1480    2.0400   -9.6460 C.3   255  ILE255      0.0266
     36  CG1      -11.4440    1.2110  -10.7230 C.3   255  ILE255      0.0019
     37  CG2      -12.3210    3.4900  -10.1190 C.3   255  ILE255      0.0020
     38  CD1       -9.9540    1.4670  -10.8530 C.3   255  ILE255      0.0001
     39  N        -11.2830    4.0300   -7.0400 N.am  256  ARG256     -0.1980
     40  CA       -11.7180    5.0740   -6.0940 C.3   256  ARG256      0.1597
     41  C        -13.1710    5.4790   -6.2820 C.2   256  ARG256      0.2287
     42  O        -13.6860    5.4800   -7.4090 O.2   256  ARG256     -0.2864
     43  CB       -10.8860    6.3500   -6.2510 C.3   256  ARG256      0.0334
     44  CG        -9.6700    6.5030   -5.3880 C.3   256  ARG256      0.0492
     45  CD        -8.6320    6.9800   -6.3160 C.3   256  ARG256      0.2205
     46  NE        -7.7310    8.0030   -5.8260 N.pl3 256  ARG256     -0.0865
     47  CZ        -6.4330    7.8160   -5.6290 C.cat 256  ARG256      0.5346
     48  NH1       -5.8900    6.6190   -5.8390 N.pl3 256  ARG256      0.1354
     49  NH2       -5.6850    8.8310   -5.2060 N.pl3 256  ARG256      0.1354
     50  N         -7.4170   12.6670   -4.6190 N.3   262  ILE262     -0.1231
     51  CA        -6.3940   12.2540   -5.5650 C.3   262  ILE262      0.1692
     52  C         -5.1610   13.0580   -5.2550 C.2   262  ILE262      0.2592
     53  O         -5.1270   14.2460   -5.5500 O.2   262  ILE262     -0.2718
     54  CB        -6.7870   12.5350   -7.0380 C.3   262  ILE262      0.0266
     55  CG1       -8.1630   11.9630   -7.3830 C.3   262  ILE262      0.0019
     56  CG2       -5.7370   11.9620   -8.0030 C.3   262  ILE262      0.0020
     57  CD1       -8.5970   12.3300   -8.8070 C.3   262  ILE262      0.0001
     58  N         -4.1510   12.4060   -4.6820 N.am  263  ALA263     -0.1966
     59  CA        -2.9230   13.0810   -4.2090 C.3   263  ALA263      0.1728
     60  C         -2.2020   13.9800   -5.2320 C.2   263  ALA263      0.2617
     61  O         -2.1660   15.2050   -5.0710 O.2   263  ALA263     -0.2715
     62  CB        -1.9430   12.0620   -3.5930 C.3   263  ALA263      0.0334
     63  N         -1.6440   13.3710   -6.2770 N.am  264  GLY264     -0.1940
     64  CA        -0.8090   14.0710   -7.2560 C.3   264  GLY264      0.2014
     65  C         -1.3730   15.3230   -7.9100 C.2   264  GLY264      0.2639
     66  O         -0.6160   16.1260   -8.4640 O.2   264  GLY264     -0.2714
     67  N         -2.6920   15.4940   -7.8410 N.am  265  THR265     -0.1950
     68  CA        -3.3820   16.5940   -8.5340 C.3   265  THR265      0.1897
     69  C         -4.2350   17.5000   -7.6070 C.2   265  THR265      0.2313
     70  O         -4.7580   18.5430   -8.0430 O.2   265  THR265     -0.2863
     71  CB        -4.2160   16.0690   -9.7580 C.3   265  THR265      0.1794
     72  OG1       -5.4690   16.7680   -9.8510 O.3   265  THR265     -0.2208
     73  CG2       -4.4880   14.5770   -9.6320 C.3   265  THR265      0.0378
     74  N        -10.1830   15.6340   -7.2960 N.3   268  ASN268     -0.1225
     75  CA       -10.9670   14.5580   -6.6730 C.3   268  ASN268      0.1785
     76  C        -11.5350   13.5480   -7.6440 C.2   268  ASN268      0.2598
     77  O        -11.8400   13.8850   -8.7750 O.2   268  ASN268     -0.2718
     78  CB       -12.0690   15.1450   -5.7950 C.3   268  ASN268      0.1169
     79  CG       -11.5020   15.9190   -4.6100 C.2   268  ASN268      0.2627
     80  OD1      -11.3650   15.3760   -3.5030 O.2   268  ASN268     -0.2716
     81  ND2      -11.1130   17.1780   -4.8510 N.am  268  ASN268     -0.0877
     82  N        -11.6730   12.3050   -7.1960 N.am  269  SER269     -0.1938
     83  CA       -12.0570   11.1950   -8.0850 C.3   269  SER269      0.2055
     84  C        -13.5110   11.2330   -8.5090 C.2   269  SER269      0.2643
     85  O        -14.4050   11.2730   -7.6730 O.2   269  SER269     -0.2714
     86  CB       -11.7440    9.8240   -7.4520 C.3   269  SER269      0.2130
     87  OG       -11.6590    8.8030   -8.4450 O.3   269  SER269     -0.2179
     88  N        -13.7300   11.1740   -9.8180 N.am  270  ASN270     -0.1971
     89  CA       -15.0790   11.1480  -10.3730 C.3   270  ASN270      0.1688
     90  C        -15.8590    9.8040  -10.2810 C.2   270  ASN270      0.2292
     91  O        -17.0170    9.7200  -10.6950 O.2   270  ASN270     -0.2864
     92  CB       -15.0440   11.7090  -11.7960 C.3   270  ASN270      0.1181
     93  CG       -15.1050   13.2280  -11.8190 C.2   270  ASN270      0.2629
     94  OD1      -15.4490   13.8580  -10.8260 O.2   270  ASN270     -0.2716
     95  ND2      -14.7880   13.8160  -12.9580 N.am  270  ASN270     -0.0877
     96  N         -9.8480    3.1900   -1.5580 N.3   351  ASN351     -0.1240
     97  CA        -8.6520    3.9890   -1.2840 C.3   351  ASN351      0.1653
     98  C         -8.4090    4.2600    0.1880 C.2   351  ASN351      0.2266
     99  O         -7.3060    4.0680    0.6870 O.2   351  ASN351     -0.2867
    100  CB        -8.6770    5.3070   -2.0250 C.3   351  ASN351      0.1155
    101  CG        -7.3010    5.7620   -2.4010 C.2   351  ASN351      0.2627
    102  OD1       -6.5210    4.9910   -2.9580 O.2   351  ASN351     -0.2716
    103  ND2       -6.9800    7.0140   -2.0940 N.am  351  ASN351     -0.0877
@<TRIPOS>BOND
     1    26    25    2
     2    25    24    1
     3    29    27    1
     4    18    17    2
     5    21    19    1
     6    24    27    1
     7    24    23    1
     8    27    28    1
     9    17    16    1
    10    22    20    1
    11    19    16    1
    12    19    20    1
    13    16    15    1
    14    28    30    1
    15    12    11    2
    16    15    11   am
    17    95    93   am
    18    11    10    1
    19    14    13    1
    20    93    92    1
    21    93    94    2
    22    92    89    1
    23    13    10    1
    24    10     9    1
    25    38    36    1
    26     9     3   am
    27    36    35    1
    28    91    90    2
    29    89    90    1
    30    89    88    1
    31    37    35    1
    32    72    71    1
    33    88    84   am
    34    71    73    1
    35    71    68    1
    36    35    32    1
    37     3     2    1
    38     3     4    2
    39     1     2    1
    40     2     5    1
    41    57    55    1
    42    77    76    2
    43    68    67    1
    44    68    69    1
    45    84    83    1
    46    84    85    2
    47    66    65    2
    48    87    86    1
    49    32    31    1
    50    32    33    1
    51    83    86    1
    52    83    82    1
    53     8     6   ar
    54    70    69    2
    55    56    54    1
    56    65    67   am
    57    65    64    1
    58    76    82   am
    59    76    75    1
    60    42    41    2
    61    55    54    1
    62     5     6    1
    63    74    75    1
    64    64    63    1
    65    33    39   am
    66    33    34    2
    67     6     7   ar
    68    39    40    1
    69    54    51    1
    70    75    78    1
    71    45    46    1
    72    45    44    1
    73    41    40    1
    74    63    60   am
    75    43    40    1
    76    43    44    1
    77    48    47    1
    78    46    47    2
    79    78    79    1
    80    47    49    1
    81    51    52    1
    82    51    50    1
    83    53    52    2
    84    52    58   am
    85    60    61    2
    86    60    59    1
    87    81    79   am
    88    58    59    1
    89    79    80    2
    90    59    62    1
    91   102   101    2
    92   101   103   am
    93   101   100    1
    94   100    97    1
    95    96    97    1
    96    97    98    1
    97    98    99    2
