@<TRIPOS>MOLECULE
tmp/3hngA00.pdb
 189 178 0 0 0
SMALL
GASTEIGER

@<TRIPOS>ATOM
      1  N          6.2360    7.0700   37.2880 N.3    30  LEU30      -0.1245
      2  CA         5.6110    7.3690   36.0330 C.3    30  LEU30       0.1561
      3  C          6.6580    7.6420   34.9790 C.2    30  LEU30       0.2260
      4  O          6.3150    7.8200   33.8080 O.2    30  LEU30      -0.2867
      5  CB         4.7370    8.6130   36.1570 C.3    30  LEU30       0.0270
      6  CG         3.4550    8.5530   36.9850 C.3    30  LEU30       0.0019
      7  CD1        2.9070    9.9530   37.1650 C.3    30  LEU30       0.0001
      8  CD2        2.4050    7.7010   36.3470 C.3    30  LEU30       0.0001
      9  N          9.5070   11.1510   37.6970 N.3    38  VAL38      -0.1245
     10  CA         8.1780   11.6170   38.0160 C.3    38  VAL38       0.1561
     11  C          7.4780   10.5000   38.7210 C.2    38  VAL38       0.2260
     12  O          7.5010    9.3850   38.2340 O.2    38  VAL38      -0.2867
     13  CB         7.3540   11.9250   36.7630 C.3    38  VAL38       0.0252
     14  CG1        5.9440   12.2760   37.1680 C.3    38  VAL38       0.0019
     15  CG2        7.9940   13.0660   35.9310 C.3    38  VAL38       0.0019
     16  N          0.8750   14.5180   39.9600 N.3    56  ALA56      -0.1231
     17  CA         2.1090   13.9650   39.5010 C.3    56  ALA56       0.1694
     18  C          3.1860   14.8730   40.0430 C.2    56  ALA56       0.2592
     19  O          3.0340   16.1040   40.0570 O.2    56  ALA56      -0.2718
     20  CB         2.1540   13.9360   38.0030 C.3    56  ALA56       0.0304
     21  N          4.2830   14.2490   40.4730 N.am   57  VAL57      -0.1966
     22  CA         5.3540   14.9320   41.1570 C.3    57  VAL57       0.1727
     23  C          6.7050   14.6650   40.4950 C.2    57  VAL57       0.2616
     24  O          7.1670   13.5240   40.4230 O.2    57  VAL57      -0.2715
     25  CB         5.4210   14.4770   42.6350 C.3    57  VAL57       0.0290
     26  CG1        6.4440   15.3170   43.4030 C.3    57  VAL57       0.0023
     27  CG2        4.1030   14.6120   43.2750 C.3    57  VAL57       0.0023
     28  N          7.3710   15.7230   40.0550 N.am   58  LYS58      -0.1977
     29  CA         8.6860   15.5770   39.4620 C.3    58  LYS58       0.1596
     30  C          9.7260   16.0560   40.4630 C.2    58  LYS58       0.2287
     31  O          9.5090   17.0280   41.1820 O.2    58  LYS58      -0.2864
     32  CB         8.7620   16.3010   38.1150 C.3    58  LYS58       0.0298
     33  CG        10.1290   16.8110   37.7600 C.3    58  LYS58       0.0038
     34  CD        10.4890   16.7250   36.2620 C.3    58  LYS58       0.0206
     35  CE         9.3070   16.9490   35.2900 C.3    58  LYS58       0.1093
     36  NZ         9.7700   17.7230   34.1050 N.3    58  LYS58      -0.1314
     37  N         12.3860   24.9100   35.6010 N.3    75  GLU75      -0.1245
     38  CA        11.1170   24.4200   35.1130 C.3    75  GLU75       0.1567
     39  C          9.9800   24.9430   35.9870 C.2    75  GLU75       0.2260
     40  O          8.9270   25.3450   35.4830 O.2    75  GLU75      -0.2867
     41  CB        11.0770   22.8990   35.0570 C.3    75  GLU75       0.0388
     42  CG         9.7190   22.3930   34.6160 C.3    75  GLU75       0.1160
     43  CD         9.7200   20.9070   34.4140 C.2    75  GLU75       0.3649
     44  OE1       10.8360   20.3650   34.2070 O.co2  75  GLU75      -0.2457
     45  OE2        8.6320   20.2770   34.4970 O.co2  75  GLU75      -0.2457
     46  N          9.1870   28.6300   35.3990 N.3    78  ILE78      -0.1231
     47  CA         8.4660   28.7230   34.1400 C.3    78  ILE78       0.1692
     48  C          7.0100   28.3580   34.3450 C.2    78  ILE78       0.2591
     49  O          6.1190   29.1110   33.9480 O.2    78  ILE78      -0.2718
     50  CB         9.1030   27.7770   33.1150 C.3    78  ILE78       0.0266
     51  CG1       10.2340   28.4970   32.3890 C.3    78  ILE78       0.0019
     52  CG2        8.1010   27.2450   32.1140 C.3    78  ILE78       0.0020
     53  CD1       11.0210   27.5880   31.4830 C.3    78  ILE78       0.0001
     54  N          6.7600   27.2100   34.9740 N.am   79  LEU79      -0.1980
     55  CA         5.3900   26.7530   35.1850 C.3    79  LEU79       0.1596
     56  C          4.5990   27.7150   36.0650 C.2    79  LEU79       0.2287
     57  O          3.3690   27.6870   36.0420 O.2    79  LEU79      -0.2864
     58  CB         5.3550   25.3790   35.8250 C.3    79  LEU79       0.0297
     59  CG         5.7210   24.2220   34.9240 C.3    79  LEU79       0.0022
     60  CD1        5.7340   22.9300   35.7220 C.3    79  LEU79       0.0001
     61  CD2        4.7430   24.1210   33.7830 C.3    79  LEU79       0.0001
     62  N          3.2600   31.1580   33.9120 N.3    82  ILE82      -0.1245
     63  CA         2.7620   30.7250   32.6310 C.3    82  ILE82       0.1561
     64  C          1.2920   31.1460   32.5780 C.2    82  ILE82       0.2260
     65  O          0.9170   31.9730   31.7510 O.2    82  ILE82      -0.2867
     66  CB         2.9930   29.1750   32.4170 C.3    82  ILE82       0.0252
     67  CG1        3.6270   28.8710   31.0810 C.3    82  ILE82       0.0019
     68  CG2        1.7200   28.3510   32.4150 C.3    82  ILE82       0.0019
     69  CD1        3.6690   27.3830   30.8400 C.3    82  ILE82       0.0001
     70  N         -2.4570   22.7100   28.6600 N.3    88  VAL88      -0.1231
     71  CA        -1.1000   22.5560   29.1500 C.3    88  VAL88       0.1692
     72  C         -1.2050   21.9100   30.5100 C.2    88  VAL88       0.2591
     73  O         -2.1640   22.1770   31.2290 O.2    88  VAL88      -0.2718
     74  CB        -0.3650   23.9140   29.2790 C.3    88  VAL88       0.0266
     75  CG1        1.0220   23.7120   29.8650 C.3    88  VAL88       0.0020
     76  CG2       -0.2970   24.6340   27.9250 C.3    88  VAL88       0.0020
     77  N         -0.2470   21.0480   30.8640 N.am   89  VAL89      -0.1980
     78  CA        -0.2050   20.4700   32.2180 C.3    89  VAL89       0.1595
     79  C         -0.0700   21.5770   33.2660 C.2    89  VAL89       0.2287
     80  O          0.8780   22.3370   33.2490 O.2    89  VAL89      -0.2864
     81  CB         0.9420   19.4650   32.3470 C.3    89  VAL89       0.0276
     82  CG1        1.3280   19.2680   33.7920 C.3    89  VAL89       0.0022
     83  CG2        0.5260   18.1370   31.7710 C.3    89  VAL89       0.0022
     84  N          8.1150   19.4010   42.1040 N.3   104  VAL104     -0.1245
     85  CA         7.1850   20.1420   41.2950 C.3   104  VAL104      0.1561
     86  C          5.9020   19.3300   41.1230 C.2   104  VAL104      0.2260
     87  O          5.9080   18.2210   40.6070 O.2   104  VAL104     -0.2867
     88  CB         7.8370   20.4110   39.9530 C.3   104  VAL104      0.0252
     89  CG1        6.9860   21.3400   39.0930 C.3   104  VAL104      0.0019
     90  CG2        9.1870   20.9910   40.1860 C.3   104  VAL104      0.0019
     91  N          2.0990   18.8740   39.6820 N.3   106  VAL106     -0.1231
     92  CA         1.2080   19.2730   38.6170 C.3   106  VAL106      0.1692
     93  C          0.0630   18.3350   38.5670 C.2   106  VAL106      0.2592
     94  O          0.0030   17.3500   39.3000 O.2   106  VAL106     -0.2718
     95  CB         1.8790   19.2670   37.2650 C.3   106  VAL106      0.0266
     96  CG1        3.0400   20.2170   37.2760 C.3   106  VAL106      0.0020
     97  CG2        2.3540   17.8860   36.9140 C.3   106  VAL106      0.0020
     98  N         -0.8740   18.6480   37.6990 N.am  107  GLU107     -0.1966
     99  CA        -2.0540   17.8120   37.5750 C.3   107  GLU107      0.1733
    100  C         -1.7470   16.4910   36.8610 C.2   107  GLU107      0.2616
    101  O         -0.9060   16.4000   35.9750 O.2   107  GLU107     -0.2715
    102  CB        -3.1720   18.5580   36.8650 C.3   107  GLU107      0.0429
    103  CG        -2.8260   18.9770   35.4860 C.3   107  GLU107      0.1163
    104  CD        -3.9220   19.8560   34.9140 C.2   107  GLU107      0.3649
    105  OE1       -5.1200   19.4820   35.1030 O.co2 107  GLU107     -0.2457
    106  OE2       -3.5990   20.9080   34.2890 O.co2 107  GLU107     -0.2457
    107  N         -2.4450   15.4640   37.3060 N.am  108  TYR108     -0.1960
    108  CA        -2.2070   14.1250   36.8650 C.3   108  TYR108      0.1771
    109  C         -3.0100   13.8120   35.6170 C.2   108  TYR108      0.2619
    110  O         -4.2140   14.0550   35.5880 O.2   108  TYR108     -0.2715
    111  CB        -2.6600   13.1900   37.9650 C.3   108  TYR108      0.0574
    112  CG        -2.4640   11.7620   37.5890 C.ar  108  TYR108     -0.0198
    113  CD1       -1.2560   11.3450   37.0650 C.ar  108  TYR108     -0.0009
    114  CD2       -3.4760   10.8230   37.7520 C.ar  108  TYR108     -0.0009
    115  CE1       -1.0510   10.0480   36.7320 C.ar  108  TYR108      0.0417
    116  CE2       -3.2710    9.5080   37.4200 C.ar  108  TYR108      0.0417
    117  CZ        -2.0590    9.1330   36.9120 C.ar  108  TYR108      0.1957
    118  OH        -1.8190    7.8420   36.5500 O.3   108  TYR108     -0.2866
    119  N         -2.3740   13.2440   34.6020 N.am  109  CYS109     -0.1968
    120  CA        -3.1200   12.8590   33.3990 C.3   109  CYS109      0.1712
    121  C         -3.2730   11.3650   33.2970 C.2   109  CYS109      0.2296
    122  O         -2.3370   10.6790   32.9480 O.2   109  CYS109     -0.2864
    123  CB        -2.4080   13.3710   32.1640 C.3   109  CYS109      0.0983
    124  SG        -2.2460   15.1360   32.2320 S.3   109  CYS109     -0.0798
    125  N          1.6200   28.9180   24.8580 N.3   145  LEU145     -0.1245
    126  CA         3.0360   28.8570   25.2320 C.3   145  LEU145      0.1561
    127  C          3.8490   29.8740   24.4670 C.2   145  LEU145      0.2260
    128  O          4.5900   30.6220   25.0740 O.2   145  LEU145     -0.2867
    129  CB         3.6360   27.4610   25.0290 C.3   145  LEU145      0.0270
    130  CG         3.0740   26.3660   25.9500 C.3   145  LEU145      0.0019
    131  CD1        3.8870   25.1070   25.8790 C.3   145  LEU145      0.0001
    132  CD2        2.9960   26.8210   27.3740 C.3   145  LEU145      0.0001
    133  N          7.6340   31.1440   25.2200 N.3   150  CYS150     -0.1235
    134  CA         8.1230   29.8970   25.6650 C.3   150  CYS150      0.1677
    135  C          8.2090   28.9040   24.5180 C.2   150  CYS150      0.2270
    136  O          7.2320   28.5480   23.8810 O.2   150  CYS150     -0.2867
    137  CB         7.2510   29.4140   26.8140 C.3   150  CYS150      0.0956
    138  SG         7.4780   27.6920   27.2040 S.3   150  CYS150     -0.0801
    139  N          9.1860   25.1760   23.3050 N.3   152  HIS152     -0.1241
    140  CA         9.0720   23.8740   23.9650 C.3   152  HIS152      0.1621
    141  C         10.2850   22.9800   23.7550 C.2   152  HIS152      0.2264
    142  O         10.7930   22.3680   24.6880 O.2   152  HIS152     -0.2867
    143  CB         7.8470   23.1350   23.4520 C.3   152  HIS152      0.0745
    144  CG         7.5100   21.9290   24.2650 C.ar  152  HIS152      0.0817
    145  ND1        8.2280   20.7530   24.1800 N.ar  152  HIS152     -0.2268
    146  CD2        6.5540   21.7230   25.2030 C.ar  152  HIS152      0.1154
    147  CE1        7.7330   19.8780   25.0370 C.ar  152  HIS152      0.1986
    148  NE2        6.7080   20.4360   25.6590 N.ar  152  HIS152     -0.2212
    149  N         -0.2390   14.4790   26.7250 N.3   161  LEU161     -0.1245
    150  CA        -0.8330   13.5970   27.6750 C.3   161  LEU161      0.1561
    151  C         -2.3510   13.7580   27.6760 C.2   161  LEU161      0.2260
    152  O         -2.8880   14.8550   27.4660 O.2   161  LEU161     -0.2867
    153  CB        -0.2680   13.9300   29.0450 C.3   161  LEU161      0.0270
    154  CG         0.9100   13.1140   29.6030 C.3   161  LEU161      0.0019
    155  CD1        2.0090   12.8590   28.6280 C.3   161  LEU161      0.0001
    156  CD2        1.4750   13.8150   30.8310 C.3   161  LEU161      0.0001
    157  N         -0.3280   19.3830   26.9250 N.3   170  ILE170     -0.1231
    158  CA         1.1190   19.4790   26.6870 C.3   170  ILE170      0.1692
    159  C          1.9520   19.3900   27.9700 C.2   170  ILE170      0.2592
    160  O          1.7660   20.1190   28.9390 O.2   170  ILE170     -0.2718
    161  CB         1.4710   20.8000   26.0490 C.3   170  ILE170      0.0266
    162  CG1        0.7360   20.9520   24.7280 C.3   170  ILE170      0.0019
    163  CG2        2.9690   20.8630   25.8370 C.3   170  ILE170      0.0020
    164  CD1        0.7080   22.3810   24.2220 C.3   170  ILE170      0.0001
    165  N          2.8900   18.4720   27.9560 N.am  171  CYS171     -0.1956
    166  CA         3.7510   18.3020   29.0840 C.3   171  CYS171      0.1843
    167  C          5.1890   18.2440   28.5660 C.2   171  CYS171      0.2625
    168  O          5.4130   18.3390   27.3410 O.2   171  CYS171     -0.2714
    169  CB         3.3640   17.0200   29.8250 C.3   171  CYS171      0.0997
    170  SG         4.0450   15.5280   29.0650 S.3   171  CYS171     -0.0797
    171  N          6.1340   18.1030   29.5060 N.am  172  ASP172     -0.1957
    172  CA         7.5580   17.8070   29.2110 C.3   172  ASP172      0.1840
    173  C          8.1330   17.0290   30.4180 C.2   172  ASP172      0.2622
    174  O          8.2070   17.5610   31.4990 O.2   172  ASP172     -0.2715
    175  CB         8.3450   19.1080   28.9240 C.3   172  ASP172      0.1450
    176  CG         9.7930   18.8520   28.4560 C.2   172  ASP172      0.3671
    177  OD1       10.5450   19.8220   28.1680 O.co2 172  ASP172     -0.2456
    178  OD2       10.1970   17.6780   28.3690 O.co2 172  ASP172     -0.2456
    179  N          8.4750   15.7600   30.2430 N.am  173  PHE173     -0.1974
    180  CA         9.0250   14.9490   31.3160 C.3   173  PHE173      0.1639
    181  C         10.4050   15.4420   31.7100 C.2   173  PHE173      0.2290
    182  O         10.8040   15.3720   32.8930 O.2   173  PHE173     -0.2864
    183  CB         9.1290   13.5020   30.8880 C.3   173  PHE173      0.0560
    184  CG         7.8770   12.7080   31.0940 C.ar  173  PHE173     -0.0200
    185  CD1        7.7050   11.9470   32.2410 C.ar  173  PHE173     -0.0042
    186  CD2        6.8840   12.6920   30.1390 C.ar  173  PHE173     -0.0042
    187  CE1        6.5580   11.1950   32.4310 C.ar  173  PHE173     -0.0003
    188  CE2        5.7310   11.9480   30.3320 C.ar  173  PHE173     -0.0003
    189  CZ         5.5760   11.1970   31.4750 C.ar  173  PHE173     -0.0000
@<TRIPOS>BOND
     1   139   140    1
     2   143   140    1
     3   143   144    1
     4   141   140    1
     5   141   142    2
     6   136   135    2
     7   145   144   ar
     8   145   147   ar
     9   164   162    1
    10   144   146   ar
    11   127   128    2
    12   127   126    1
    13   135   134    1
    14   162   161    1
    15   125   126    1
    16   129   126    1
    17   129   130    1
    18   147   148   ar
    19   146   148   ar
    20   133   134    1
    21   134   137    1
    22   163   161    1
    23   131   130    1
    24   130   132    1
    25   161   158    1
    26   158   157    1
    27   158   159    1
    28   149   150    1
    29   137   138    1
    30   168   167    2
    31   152   151    2
    32   150   151    1
    33   150   153    1
    34    76    74    1
    35   165   159   am
    36   165   166    1
    37   159   160    2
    38   177   176   ar
    39   178   176   ar
    40   176   175    1
    41   167   166    1
    42   167   171   am
    43   155   154    1
    44    70    71    1
    45   175   172    1
    46   153   154    1
    47   170   169    1
    48   166   169    1
    49    71    74    1
    50    71    72    1
    51   172   171    1
    52   172   173    1
    53    74    75    1
    54   154   156    1
    55   186   188   ar
    56   186   184   ar
    57   179   173   am
    58   179   180    1
    59   188   189   ar
    60   173   174    2
    61    72    77   am
    62    72    73    2
    63    69    67    1
    64    77    78    1
    65   183   184    1
    66   183   180    1
    67    67    66    1
    68   184   185   ar
    69   180   181    1
    70   189   187   ar
    71    53    51    1
    72   181   182    2
    73    65    64    2
    74    83    81    1
    75    52    50    1
    76   123   124    1
    77   123   120    1
    78    78    81    1
    79    78    79    1
    80   185   187   ar
    81    81    82    1
    82    51    50    1
    83    68    66    1
    84    66    63    1
    85    64    63    1
    86    63    62    1
    87   122   121    2
    88    50    47    1
    89    80    79    2
    90   121   120    1
    91   120   119    1
    92    61    59    1
    93     4     3    2
    94    49    48    2
    95    36    35    1
    96    47    48    1
    97    47    46    1
    98    44    43   ar
    99   106   104   ar
   100    48    54   am
   101    43    45   ar
   102    43    42    1
   103   119   109   am
   104    42    41    1
   105   104   105   ar
   106   104   103    1
   107    59    60    1
   108    59    58    1
   109    54    55    1
   110     3     2    1
   111    41    38    1
   112    38    37    1
   113    38    39    1
   114    55    58    1
   115    55    56    1
   116    35    34    1
   117    40    39    2
   118   103   102    1
   119   110   109    2
   120   109   108    1
   121    15    13    1
   122   101   100    2
   123     2     5    1
   124     2     1    1
   125    57    56    2
   126     5     6    1
   127    34    33    1
   128     8     6    1
   129   118   117    1
   130   115   117   ar
   131   115   113   ar
   132    13    14    1
   133    13    10    1
   134   100   107   am
   135   100    99    1
   136   102    99    1
   137   108   107    1
   138   108   111    1
   139   117   116   ar
   140    97    95    1
   141     6     7    1
   142   113   112   ar
   143    95    96    1
   144    95    92    1
   145   116   114   ar
   146    99    98    1
   147   112   114   ar
   148   112   111    1
   149     9    10    1
   150    98    93   am
   151    33    32    1
   152    20    17    1
   153    10    11    1
   154    32    29    1
   155    12    11    2
   156    93    92    1
   157    93    94    2
   158    92    91    1
   159    89    88    1
   160    29    28    1
   161    29    30    1
   162    17    16    1
   163    17    18    1
   164    88    90    1
   165    88    85    1
   166    18    19    2
   167    18    21   am
   168    28    23   am
   169    24    23    2
   170    30    31    2
   171    21    22    1
   172    23    22    1
   173    87    86    2
   174    86    85    1
   175    22    25    1
   176    85    84    1
   177    25    27    1
   178    25    26    1
