@<TRIPOS>MOLECULE
tmp/3hnsA00.pdb
 121 122 0 0 0
SMALL
GASTEIGER

@<TRIPOS>ATOM
      1  N          4.6560   28.1350    3.3410 N.3    31  ASN31      -0.1240
      2  CA         4.7120   29.5200    2.8410 C.3    31  ASN31       0.1653
      3  C          6.1080   30.0430    2.4720 C.2    31  ASN31       0.2266
      4  O          6.2750   31.2360    2.2070 O.2    31  ASN31      -0.2867
      5  CB         4.0180   30.4700    3.8240 C.3    31  ASN31       0.1155
      6  CG         2.5130   30.2710    3.8660 C.2    31  ASN31       0.2627
      7  OD1        2.0150   29.7670    4.9870 O.2    31  ASN31      -0.2716
      8  ND2        1.8050   30.5820    2.9060 N.am   31  ASN31      -0.0877
      9  N          9.9090   28.9270    0.2050 N.3    33  TRP33      -0.1241
     10  CA        10.7220   28.0250   -0.6270 C.3    33  TRP33       0.1605
     11  C         11.8330   27.3920    0.2080 C.2    33  TRP33       0.2264
     12  O         12.5200   28.0890    0.9680 O.2    33  TRP33      -0.2867
     13  CB        11.3610   28.7630   -1.8100 C.3    33  TRP33       0.0550
     14  CG        10.4030   29.1870   -2.8920 C.ar   33  TRP33       0.0003
     15  CD1        9.6330   30.3170   -2.9090 C.ar   33  TRP33       0.0946
     16  CD2       10.1380   28.5010   -4.1250 C.ar   33  TRP33       0.0152
     17  NE1        8.8940   30.3720   -4.0720 N.ar   33  TRP33      -0.2442
     18  CE2        9.1830   29.2700   -4.8350 C.ar   33  TRP33       0.0810
     19  CE3       10.6170   27.3120   -4.7010 C.ar   33  TRP33       0.0012
     20  CZ2        8.6870   28.8830   -6.0890 C.ar   33  TRP33       0.0191
     21  CZ3       10.1240   26.9280   -5.9510 C.ar   33  TRP33       0.0001
     22  CH2        9.1670   27.7120   -6.6270 C.ar   33  TRP33       0.0015
     23  N         15.3580   25.4180   -0.2220 N.3    35  HIS35      -0.1241
     24  CA        16.4330   25.1800   -1.1750 C.3    35  HIS35       0.1621
     25  C         17.4200   24.1410   -0.6570 C.2    35  HIS35       0.2264
     26  O         17.5280   23.9200    0.5510 O.2    35  HIS35      -0.2867
     27  CB        17.1830   26.4850   -1.4670 C.3    35  HIS35       0.0745
     28  CG        16.3540   27.5210   -2.1620 C.ar   35  HIS35       0.0817
     29  ND1       16.6820   28.0320   -3.4020 N.ar   35  HIS35      -0.2268
     30  CD2       15.2060   28.1410   -1.7930 C.ar   35  HIS35       0.1154
     31  CE1       15.7750   28.9220   -3.7640 C.ar   35  HIS35       0.1986
     32  NE2       14.8710   29.0090   -2.8050 N.ar   35  HIS35      -0.2212
     33  N         24.2840   25.2510   -5.8500 N.3    47  TRP47      -0.1241
     34  CA        22.8290   25.2210   -5.7350 C.3    47  TRP47       0.1605
     35  C         22.2720   24.0430   -6.5330 C.2    47  TRP47       0.2264
     36  O         22.6300   23.8510   -7.7000 O.2    47  TRP47      -0.2867
     37  CB        22.2530   26.5420   -6.2430 C.3    47  TRP47       0.0550
     38  CG        20.7720   26.6900   -6.0770 C.ar   47  TRP47       0.0003
     39  CD1       20.1000   26.9790   -4.9250 C.ar   47  TRP47       0.0946
     40  CD2       19.7800   26.5800   -7.1070 C.ar   47  TRP47       0.0152
     41  NE1       18.7470   27.0500   -5.1720 N.ar   47  TRP47      -0.2442
     42  CE2       18.5240   26.8100   -6.5020 C.ar   47  TRP47       0.0810
     43  CE3       19.8320   26.3090   -8.4830 C.ar   47  TRP47       0.0012
     44  CZ2       17.3250   26.7760   -7.2240 C.ar   47  TRP47       0.0191
     45  CZ3       18.6380   26.2760   -9.2030 C.ar   47  TRP47       0.0001
     46  CH2       17.4020   26.5060   -8.5670 C.ar   47  TRP47       0.0015
     47  N         15.0760   24.0620   -5.5770 N.3    50  SER50      -0.1217
     48  CA        14.1710   24.4690   -4.5140 C.3    50  SER50       0.1889
     49  C         12.7580   23.9360   -4.7280 C.2    50  SER50       0.2288
     50  O         12.3960   23.5030   -5.8330 O.2    50  SER50      -0.2866
     51  CB        14.1480   25.9940   -4.3640 C.3    50  SER50       0.2089
     52  OG        13.6520   26.6440   -5.5300 O.3    50  SER50      -0.2183
     53  N          8.5310   24.7370   -3.3410 N.3    52  TYR52      -0.1241
     54  CA         7.5270   25.4780   -2.5780 C.3    52  TYR52       0.1605
     55  C          6.4680   24.4880   -2.0970 C.2    52  TYR52       0.2264
     56  O          5.6290   24.0530   -2.8860 O.2    52  TYR52      -0.2867
     57  CB         6.8940   26.5830   -3.4250 C.3    52  TYR52       0.0534
     58  CG         6.0790   27.5700   -2.6220 C.ar   52  TYR52      -0.0201
     59  CD1        6.7010   28.5520   -1.8470 C.ar   52  TYR52      -0.0009
     60  CD2        4.6830   27.5220   -2.6330 C.ar   52  TYR52      -0.0009
     61  CE1        5.9540   29.4660   -1.1060 C.ar   52  TYR52       0.0417
     62  CE2        3.9270   28.4350   -1.8920 C.ar   52  TYR52       0.0417
     63  CZ         4.5720   29.3960   -1.1310 C.ar   52  TYR52       0.1957
     64  OH         3.8350   30.3040   -0.4080 O.3    52  TYR52      -0.2866
     65  N         12.0170   23.8270   -8.7760 N.3    59  ASN59      -0.1240
     66  CA        12.9710   24.1420   -9.8240 C.3    59  ASN59       0.1653
     67  C         14.3220   23.5080   -9.5240 C.2    59  ASN59       0.2266
     68  O         14.5830   23.0820   -8.3990 O.2    59  ASN59      -0.2867
     69  CB        13.0670   25.6510  -10.0870 C.3    59  ASN59       0.1155
     70  CG        13.3020   26.4490   -8.8290 C.2    59  ASN59       0.2627
     71  OD1       14.1240   26.0740   -7.9890 O.2    59  ASN59      -0.2716
     72  ND2       12.5810   27.5670   -8.6910 N.am   59  ASN59      -0.0877
     73  N         14.4800   30.2700    2.0180 N.3    99  PHE99      -0.1227
     74  CA        14.5600   31.5480    1.3190 C.3    99  PHE99       0.1736
     75  C         13.3940   32.4340    1.7410 C.2    99  PHE99       0.2596
     76  O         12.2980   31.9380    1.9840 O.2    99  PHE99      -0.2718
     77  CB        14.5190   31.3000   -0.1950 C.3    99  PHE99       0.0547
     78  CG        14.7750   32.5300   -1.0380 C.ar   99  PHE99      -0.0202
     79  CD1       16.0740   32.8870   -1.3970 C.ar   99  PHE99      -0.0042
     80  CD2       13.7150   33.3090   -1.4970 C.ar   99  PHE99      -0.0042
     81  CE1       16.3120   34.0190   -2.1870 C.ar   99  PHE99      -0.0003
     82  CE2       13.9380   34.4430   -2.2780 C.ar   99  PHE99      -0.0003
     83  CZ        15.2420   34.7960   -2.6260 C.ar   99  PHE99      -0.0000
     84  N         13.6370   33.7400    1.8330 N.am  100  GLY100     -0.1942
     85  CA        12.5620   34.7200    2.0540 C.3   100  GLY100      0.2014
     86  C         12.2750   35.0240    3.5160 C.2   100  GLY100      0.2639
     87  O         12.8070   34.3570    4.4000 O.2   100  GLY100     -0.2714
     88  N         11.4530   36.0380    3.7860 N.am  101  ASN101     -0.1958
     89  CA        10.9290   36.9560    2.7730 C.3   101  ASN101      0.1819
     90  C         11.7160   38.2570    2.7970 C.2   101  ASN101      0.2621
     91  O         12.0020   38.7810    3.8740 O.2   101  ASN101     -0.2715
     92  CB         9.4470   37.2720    3.0280 C.3   101  ASN101      0.1195
     93  CG         8.5330   36.0950    2.7370 C.2   101  ASN101      0.2630
     94  OD1        8.8170   35.2660    1.8690 O.2   101  ASN101     -0.2716
     95  ND2        7.4200   36.0230    3.4580 N.am  101  ASN101     -0.0877
     96  N         12.0390   38.7790    1.6110 N.am  102  TYR102     -0.1960
     97  CA        12.8600   39.9960    1.4490 C.3   102  TYR102      0.1771
     98  C         14.2570   39.8500    2.0700 C.2   102  TYR102      0.2619
     99  O         14.9430   40.8360    2.3370 O.2   102  TYR102     -0.2715
    100  CB        12.1280   41.2570    1.9280 C.3   102  TYR102      0.0574
    101  CG        10.8440   41.5110    1.1680 C.ar  102  TYR102     -0.0198
    102  CD1       10.8620   42.1120   -0.0910 C.ar  102  TYR102     -0.0009
    103  CD2        9.6140   41.1270    1.6990 C.ar  102  TYR102     -0.0009
    104  CE1        9.6840   42.3340   -0.8010 C.ar  102  TYR102      0.0417
    105  CE2        8.4290   41.3440    1.0000 C.ar  102  TYR102      0.0417
    106  CZ         8.4720   41.9460   -0.2470 C.ar  102  TYR102      0.1957
    107  OH         7.3010   42.1640   -0.9350 O.3   102  TYR102     -0.2866
    108  N         14.6440   38.5930    2.2870 N.am  103  VAL103     -0.1964
    109  CA        16.0040   38.1760    2.6220 C.3   103  VAL103      0.1712
    110  C         16.2660   36.8910    1.8250 C.2   103  VAL103      0.2458
    111  O         15.3130   36.2260    1.4120 O.2   103  VAL103     -0.2730
    112  CB        16.1950   37.8920    4.1440 C.3   103  VAL103      0.0289
    113  CG1       16.1380   39.1780    4.9540 C.3   103  VAL103      0.0023
    114  CG2       15.1740   36.8570    4.6580 C.3   103  VAL103      0.0023
    115  N         17.5460   36.5470    1.5820 N.am  104  PRO104     -0.2727
    116  CA        17.8590   35.2910    0.8910 C.3   104  PRO104      0.1402
    117  C         17.8730   34.0660    1.8240 C.2   104  PRO104      0.2269
    118  O         16.8580   33.7750    2.4480 O.2   104  PRO104     -0.2865
    119  CB        19.2360   35.5710    0.2970 C.3   104  PRO104      0.0296
    120  CG        19.8860   36.4600    1.3380 C.3   104  PRO104      0.0237
    121  CD        18.7640   37.3330    1.8620 C.3   104  PRO104      0.0939
@<TRIPOS>BOND
     1    69    66    1
     2    69    70    1
     3    66    67    1
     4    66    65    1
     5    67    68    2
     6    45    46   ar
     7    45    43   ar
     8    70    72   am
     9    70    71    2
    10    46    44   ar
    11    43    40   ar
    12    36    35    2
    13    44    42   ar
    14    40    42   ar
    15    40    38   ar
    16    22    20   ar
    17    22    21   ar
    18    35    34    1
    19    42    41   ar
    20    37    38    1
    21    37    34    1
    22    20    18   ar
    23    38    39   ar
    24    21    19   ar
    25    33    34    1
    26    50    49    2
    27    47    48    1
    28    52    51    1
    29    41    39   ar
    30    18    16   ar
    31    18    17   ar
    32    49    48    1
    33    19    16   ar
    34    48    51    1
    35    16    14   ar
    36    17    15   ar
    37    31    29   ar
    38    31    32   ar
    39    57    58    1
    40    57    54    1
    41    29    28   ar
    42    53    54    1
    43    15    14   ar
    44    14    13    1
    45    56    55    2
    46    32    30   ar
    47    60    58   ar
    48    60    62   ar
    49    83    82   ar
    50    83    81   ar
    51    58    59   ar
    52    54    55    1
    53    82    80   ar
    54    81    79   ar
    55    28    30   ar
    56    28    27    1
    57    62    63   ar
    58    59    61   ar
    59    13    10    1
    60    80    78   ar
    61    27    24    1
    62    79    78   ar
    63    24    25    1
    64    24    23    1
    65    63    61   ar
    66    63    64    1
    67    78    77    1
    68   107   106    1
    69   104   106   ar
    70   104   102   ar
    71    25    26    2
    72    10     9    1
    73    10    11    1
    74   106   105   ar
    75    77    74    1
    76   102   101   ar
    77    11    12    2
    78   119   116    1
    79   119   120    1
    80   116   115    1
    81   116   117    1
    82   105   103   ar
    83   101   103   ar
    84   101   100    1
    85    74    75    1
    86    74    73    1
    87   120   121    1
    88   111   110    2
    89    97    96    1
    90    97   100    1
    91    97    98    1
    92   115   110   am
    93   115   121    1
    94    96    90   am
    95    75    84   am
    96    75    76    2
    97   117   118    2
    98   110   109    1
    99    84    85    1
   100    94    93    2
   101    85    86    1
   102    98   108   am
   103    98    99    2
   104     4     3    2
   105   108   109    1
   106     3     2    1
   107   109   112    1
   108    93    92    1
   109    93    95   am
   110    89    90    1
   111    89    92    1
   112    89    88    1
   113    90    91    2
   114     2     1    1
   115     2     5    1
   116     8     6   am
   117    86    88   am
   118    86    87    2
   119     5     6    1
   120     6     7    2
   121   112   114    1
   122   112   113    1
