@<TRIPOS>MOLECULE
tmp/3hntA00.pdb
 113 115 0 0 0
SMALL
GASTEIGER

@<TRIPOS>ATOM
      1  N          9.9450   28.8650    0.1040 N.3    33  TRP33      -0.1241
      2  CA        10.7460   27.9430   -0.7030 C.3    33  TRP33       0.1605
      3  C         11.8740   27.3330    0.1210 C.2    33  TRP33       0.2264
      4  O         12.5720   28.0380    0.8590 O.2    33  TRP33      -0.2867
      5  CB        11.3720   28.6490   -1.9070 C.3    33  TRP33       0.0550
      6  CG        10.4190   29.0960   -2.9580 C.ar   33  TRP33       0.0003
      7  CD1        9.6590   30.2320   -2.9550 C.ar   33  TRP33       0.0946
      8  CD2       10.1600   28.4390   -4.2010 C.ar   33  TRP33       0.0152
      9  NE1        8.9210   30.3090   -4.1170 N.ar   33  TRP33      -0.2442
     10  CE2        9.2160   29.2230   -4.9000 C.ar   33  TRP33       0.0810
     11  CE3       10.6330   27.2570   -4.7920 C.ar   33  TRP33       0.0012
     12  CZ2        8.7310   28.8610   -6.1620 C.ar   33  TRP33       0.0191
     13  CZ3       10.1600   26.9040   -6.0460 C.ar   33  TRP33       0.0001
     14  CH2        9.2120   27.6990   -6.7150 C.ar   33  TRP33       0.0015
     15  N         15.4190   25.3360   -0.2960 N.3    35  HIS35      -0.1241
     16  CA        16.4720   25.1150   -1.2760 C.3    35  HIS35       0.1621
     17  C         17.4550   24.0780   -0.7670 C.2    35  HIS35       0.2264
     18  O         17.5550   23.8350    0.4420 O.2    35  HIS35      -0.2867
     19  CB        17.2260   26.4160   -1.5670 C.3    35  HIS35       0.0745
     20  CG        16.3960   27.4610   -2.2390 C.ar   35  HIS35       0.0817
     21  ND1       16.7460   28.0290   -3.4450 N.ar   35  HIS35      -0.2268
     22  CD2       15.2270   28.0410   -1.8750 C.ar   35  HIS35       0.1154
     23  CE1       15.8270   28.9080   -3.7970 C.ar   35  HIS35       0.1986
     24  NE2       14.9000   28.9400   -2.8560 N.ar   35  HIS35      -0.2212
     25  N         24.3270   25.1370   -5.9380 N.3    47  TRP47      -0.1241
     26  CA        22.8710   25.1450   -5.7930 C.3    47  TRP47       0.1605
     27  C         22.2820   23.9800   -6.5710 C.2    47  TRP47       0.2264
     28  O         22.6190   23.7840   -7.7410 O.2    47  TRP47      -0.2867
     29  CB        22.3130   26.4710   -6.3000 C.3    47  TRP47       0.0550
     30  CG        20.8360   26.6300   -6.1250 C.ar   47  TRP47       0.0003
     31  CD1       20.1720   26.9050   -4.9620 C.ar   47  TRP47       0.0946
     32  CD2       19.8410   26.5370   -7.1460 C.ar   47  TRP47       0.0152
     33  NE1       18.8230   26.9850   -5.2000 N.ar   47  TRP47      -0.2442
     34  CE2       18.5910   26.7640   -6.5320 C.ar   47  TRP47       0.0810
     35  CE3       19.8860   26.2840   -8.5290 C.ar   47  TRP47       0.0012
     36  CZ2       17.3850   26.7450   -7.2520 C.ar   47  TRP47       0.0191
     37  CZ3       18.6930   26.2660   -9.2430 C.ar   47  TRP47       0.0001
     38  CH2       17.4560   26.4910   -8.6000 C.ar   47  TRP47       0.0015
     39  N         15.0670   23.9730   -5.6690 N.3    50  SER50      -0.1217
     40  CA        14.1800   24.4160   -4.6100 C.3    50  SER50       0.1889
     41  C         12.7480   23.9280   -4.8270 C.2    50  SER50       0.2288
     42  O         12.3470   23.5700   -5.9420 O.2    50  SER50      -0.2866
     43  CB        14.2150   25.9440   -4.4630 C.3    50  SER50       0.2089
     44  OG        13.6870   26.6030   -5.5980 O.3    50  SER50      -0.2183
     45  N          8.5110   24.6460   -3.4250 N.3    52  TYR52      -0.1241
     46  CA         7.5260   25.4170   -2.6740 C.3    52  TYR52       0.1605
     47  C          6.4660   24.4400   -2.1700 C.2    52  TYR52       0.2264
     48  O          5.5990   24.0190   -2.9340 O.2    52  TYR52      -0.2867
     49  CB         6.8980   26.5130   -3.5480 C.3    52  TYR52       0.0534
     50  CG         6.0410   27.5030   -2.7780 C.ar   52  TYR52      -0.0201
     51  CD1        6.6220   28.5080   -2.0070 C.ar   52  TYR52      -0.0009
     52  CD2        4.6470   27.4320   -2.8210 C.ar   52  TYR52      -0.0009
     53  CE1        5.8450   29.4140   -1.2890 C.ar   52  TYR52       0.0417
     54  CE2        3.8610   28.3420   -2.1120 C.ar   52  TYR52       0.0417
     55  CZ         4.4650   29.3270   -1.3560 C.ar   52  TYR52       0.1957
     56  OH         3.6870   30.2240   -0.6580 O.3    52  TYR52      -0.2866
     57  N         12.0490   23.8050   -8.9130 N.3    59  ASN59      -0.1240
     58  CA        13.0100   24.1050   -9.9670 C.3    59  ASN59       0.1653
     59  C         14.3530   23.4710   -9.6400 C.2    59  ASN59       0.2266
     60  O         14.5970   23.0880   -8.5020 O.2    59  ASN59      -0.2867
     61  CB        13.1500   25.6090  -10.2040 C.3    59  ASN59       0.1155
     62  CG        13.3140   26.3870   -8.9250 C.2    59  ASN59       0.2627
     63  OD1       14.1330   26.0450   -8.0660 O.2    59  ASN59      -0.2716
     64  ND2       12.5350   27.4500   -8.7880 N.am   59  ASN59      -0.0877
     65  N         14.4310   30.2510    1.9290 N.3    99  PHE99      -0.1227
     66  CA        14.5620   31.5080    1.2020 C.3    99  PHE99       0.1736
     67  C         13.4270   32.4480    1.5730 C.2    99  PHE99       0.2596
     68  O         12.2820   32.0140    1.6970 O.2    99  PHE99      -0.2718
     69  CB        14.5410   31.2360   -0.3100 C.3    99  PHE99       0.0547
     70  CG        14.8150   32.4550   -1.1570 C.ar   99  PHE99      -0.0202
     71  CD1       16.1230   32.8140   -1.4780 C.ar   99  PHE99      -0.0042
     72  CD2       13.7680   33.2490   -1.6230 C.ar   99  PHE99      -0.0042
     73  CE1       16.3830   33.9470   -2.2660 C.ar   99  PHE99      -0.0003
     74  CE2       14.0160   34.3770   -2.4080 C.ar   99  PHE99      -0.0003
     75  CZ        15.3260   34.7260   -2.7280 C.ar   99  PHE99      -0.0000
     76  N         13.7390   33.7330    1.7490 N.am  100  GLY100     -0.1942
     77  CA        12.7060   34.7630    1.9330 C.3   100  GLY100      0.2014
     78  C         12.3390   35.0110    3.3890 C.2   100  GLY100      0.2639
     79  O         12.8570   34.3270    4.2760 O.2   100  GLY100     -0.2714
     80  N         11.4680   35.9930    3.6570 N.am  101  ASN101     -0.1958
     81  CA        10.9590   36.9290    2.6480 C.3   101  ASN101      0.1819
     82  C         11.7430   38.2380    2.6830 C.2   101  ASN101      0.2621
     83  O         11.9710   38.8060    3.7570 O.2   101  ASN101     -0.2715
     84  CB         9.4710   37.2570    2.8710 C.3   101  ASN101      0.1195
     85  CG         8.5390   36.0730    2.6300 C.2   101  ASN101      0.2630
     86  OD1        7.4990   35.9550    3.2920 O.2   101  ASN101     -0.2716
     87  ND2        8.8730   35.2250    1.6640 N.am  101  ASN101     -0.0877
     88  N         12.1200   38.7270    1.5010 N.am  102  TYR102     -0.1960
     89  CA        12.9220   39.9570    1.3430 C.3   102  TYR102      0.1771
     90  C         14.3170   39.8090    1.9270 C.2   102  TYR102      0.2619
     91  O         15.0110   40.7970    2.1800 O.2   102  TYR102     -0.2715
     92  CB        12.2050   41.1950    1.8820 C.3   102  TYR102      0.0574
     93  CG        10.9480   41.4730    1.1210 C.ar  102  TYR102     -0.0198
     94  CD1       10.9950   42.0380   -0.1550 C.ar  102  TYR102     -0.0009
     95  CD2        9.7110   41.1310    1.6500 C.ar  102  TYR102     -0.0009
     96  CE1        9.8300   42.2750   -0.8750 C.ar  102  TYR102      0.0417
     97  CE2        8.5460   41.3610    0.9440 C.ar  102  TYR102      0.0417
     98  CZ         8.6120   41.9320   -0.3160 C.ar  102  TYR102      0.1957
     99  OH         7.4480   42.1630   -1.0140 O.3   102  TYR102     -0.2866
    100  N         14.6850   38.5530    2.1490 N.am  103  VAL103     -0.1964
    101  CA        16.0460   38.1280    2.4750 C.3   103  VAL103      0.1712
    102  C         16.2920   36.8760    1.6420 C.2   103  VAL103      0.2458
    103  O         15.3330   36.2510    1.1780 O.2   103  VAL103     -0.2730
    104  CB        16.2310   37.7890    3.9820 C.3   103  VAL103      0.0289
    105  CG1       16.2410   39.0560    4.8280 C.3   103  VAL103      0.0023
    106  CG2       15.1630   36.8130    4.4750 C.3   103  VAL103      0.0023
    107  N         17.5650   36.5140    1.4260 N.am  104  PRO104     -0.2727
    108  CA        17.8730   35.2640    0.7300 C.3   104  PRO104      0.1402
    109  C         17.8340   34.0560    1.6850 C.2   104  PRO104      0.2269
    110  O         16.7920   33.8090    2.3020 O.2   104  PRO104     -0.2865
    111  CB        19.2720   35.5230    0.1720 C.3   104  PRO104      0.0296
    112  CG        19.8980   36.4510    1.1700 C.3   104  PRO104      0.0237
    113  CD        18.7840   37.2750    1.7620 C.3   104  PRO104      0.0939
@<TRIPOS>BOND
     1    61    58    1
     2    61    62    1
     3    58    59    1
     4    58    57    1
     5    59    60    2
     6    37    38   ar
     7    37    35   ar
     8    62    64   am
     9    62    63    2
    10    38    36   ar
    11    35    32   ar
    12    28    27    2
    13    36    34   ar
    14    32    34   ar
    15    32    30   ar
    16    14    12   ar
    17    14    13   ar
    18    27    26    1
    19    34    33   ar
    20    29    30    1
    21    29    26    1
    22    12    10   ar
    23    30    31   ar
    24    13    11   ar
    25    42    41    2
    26    25    26    1
    27    39    40    1
    28    44    43    1
    29    33    31   ar
    30    10     8   ar
    31    10     9   ar
    32    41    40    1
    33    11     8   ar
    34    40    43    1
    35     8     6   ar
    36     9     7   ar
    37    23    21   ar
    38    23    24   ar
    39    49    50    1
    40    49    46    1
    41    21    20   ar
    42    45    46    1
    43     6     7   ar
    44     6     5    1
    45    48    47    2
    46    24    22   ar
    47    52    50   ar
    48    52    54   ar
    49    50    51   ar
    50    75    74   ar
    51    75    73   ar
    52    46    47    1
    53    74    72   ar
    54    73    71   ar
    55    20    22   ar
    56    20    19    1
    57    54    55   ar
    58    51    53   ar
    59     5     2    1
    60    72    70   ar
    61    19    16    1
    62    71    70   ar
    63    55    53   ar
    64    55    56    1
    65    16    17    1
    66    16    15    1
    67    70    69    1
    68    99    98    1
    69    96    98   ar
    70    96    94   ar
    71    17    18    2
    72     2     1    1
    73     2     3    1
    74    98    97   ar
    75    69    66    1
    76    94    93   ar
    77     3     4    2
    78   111   108    1
    79   111   112    1
    80   108   107    1
    81   108   109    1
    82    97    95   ar
    83    93    95   ar
    84    93    92    1
    85   112   113    1
    86   103   102    2
    87    66    67    1
    88    66    65    1
    89    89    88    1
    90    89    92    1
    91    89    90    1
    92   107   102   am
    93   107   113    1
    94    88    82   am
    95    67    68    2
    96    67    76   am
    97   102   101    1
    98    87    85   am
    99   109   110    2
   100    76    77    1
   101    90   100   am
   102    90    91    2
   103    77    78    1
   104   100   101    1
   105   101   104    1
   106    85    84    1
   107    85    86    2
   108    81    82    1
   109    81    84    1
   110    81    80    1
   111    82    83    2
   112    78    80   am
   113    78    79    2
   114   104   106    1
   115   104   105    1
