@<TRIPOS>MOLECULE
tmp/3ho0A00.pdb
 205 196 0 0 0
SMALL
GASTEIGER

@<TRIPOS>ATOM
      1  N         26.4680   71.4890   11.0810 N.3    73  ILE73      -0.1245
      2  CA        25.7190   72.1040   12.1740 C.3    73  ILE73       0.1561
      3  C         24.2680   72.3280   11.7690 C.2    73  ILE73       0.2260
      4  O         23.3610   72.1330   12.5730 O.2    73  ILE73      -0.2867
      5  CB        26.3210   73.4690   12.5700 C.3    73  ILE73       0.0252
      6  CG1       27.8040   73.3100   12.9100 C.3    73  ILE73       0.0019
      7  CG2       25.5650   74.0470   13.7660 C.3    73  ILE73       0.0019
      8  CD1       28.0700   72.5200   14.1710 C.3    73  ILE73       0.0001
      9  N         22.3400   68.9600   11.9280 N.3    76  PHE76      -0.1227
     10  CA        22.0760   68.4950   13.2890 C.3    76  PHE76       0.1736
     11  C         21.2000   69.3210   14.2240 C.2    76  PHE76       0.2595
     12  O         20.7170   68.8000   15.2280 O.2    76  PHE76      -0.2718
     13  CB        23.3940   68.1470   13.9670 C.3    76  PHE76       0.0547
     14  CG        24.0370   66.9240   13.3940 C.ar   76  PHE76      -0.0202
     15  CD1       24.7340   66.9900   12.1930 C.ar   76  PHE76      -0.0042
     16  CD2       23.8820   65.6900   14.0120 C.ar   76  PHE76      -0.0042
     17  CE1       25.2650   65.8460   11.6150 C.ar   76  PHE76      -0.0003
     18  CE2       24.4090   64.5350   13.4390 C.ar   76  PHE76      -0.0003
     19  CZ        25.1020   64.6140   12.2370 C.ar   76  PHE76      -0.0000
     20  N         20.9860   70.5950   13.9170 N.am   77  GLN77      -0.1979
     21  CA        20.1200   71.3980   14.7600 C.3    77  GLN77       0.1601
     22  C         18.6810   71.1060   14.3480 C.2    77  GLN77       0.2287
     23  O         17.7390   71.3250   15.1120 O.2    77  GLN77      -0.2864
     24  CB        20.4460   72.8810   14.6130 C.3    77  GLN77       0.0394
     25  CG        21.7860   73.2210   15.2000 C.3    77  GLN77       0.0908
     26  CD        21.8020   74.5590   15.9190 C.2    77  GLN77       0.2608
     27  OE1       21.8130   75.6050   15.2920 O.2    77  GLN77      -0.2717
     28  NE2       21.7950   74.5240   17.2410 N.am   77  GLN77      -0.0878
     29  N         17.9120   68.0340   13.2100 N.3    79  CYS79      -0.1221
     30  CA        17.8160   66.6810   13.7290 C.3    79  CYS79       0.1808
     31  C         17.3530   66.7820   15.1790 C.2    79  CYS79       0.2601
     32  O         16.5210   65.9910   15.6520 O.2    79  CYS79      -0.2717
     33  CB        19.2000   66.0240   13.6560 C.3    79  CYS79       0.0970
     34  SG        19.3230   64.3890   14.4050 S.3    79  CYS79      -0.0800
     35  N         17.8950   67.7760   15.8780 N.am   80  GLN80      -0.1979
     36  CA        17.5690   68.0090   17.2730 C.3    80  GLN80       0.1601
     37  C         16.0900   68.3140   17.4360 C.2    80  GLN80       0.2287
     38  O         15.4700   67.8990   18.4170 O.2    80  GLN80      -0.2864
     39  CB        18.4200   69.1540   17.8120 C.3    80  GLN80       0.0394
     40  CG        18.1390   69.5240   19.2540 C.3    80  GLN80       0.0908
     41  CD        19.2410   70.3730   19.8480 C.2    80  GLN80       0.2608
     42  OE1       19.6270   71.3950   19.2760 O.2    80  GLN80      -0.2717
     43  NE2       19.7570   69.9550   21.0020 N.am   80  GLN80      -0.0878
     44  N         13.7020   67.1790   15.5220 N.3    82  ARG82      -0.1231
     45  CA        12.9720   65.9350   15.3010 C.3    82  ARG82       0.1694
     46  C         12.9410   65.0430   16.5390 C.2    82  ARG82       0.2592
     47  O         11.9290   64.3990   16.8080 O.2    82  ARG82      -0.2718
     48  CB        13.5670   65.1490   14.1230 C.3    82  ARG82       0.0321
     49  CG        13.2600   65.7210   12.7460 C.3    82  ARG82       0.0489
     50  CD        11.7590   65.7070   12.4310 C.3    82  ARG82       0.2205
     51  NE        11.4510   66.3440   11.1420 N.pl3  82  ARG82      -0.0865
     52  CZ        10.2190   66.6120   10.7050 C.cat  82  ARG82       0.5346
     53  NH1        9.1550   66.2980   11.4430 N.pl3  82  ARG82       0.1354
     54  NH2       10.0510   67.2190    9.5370 N.pl3  82  ARG82       0.1354
     55  N         14.0400   65.0100   17.2920 N.am   83  SER83      -0.1952
     56  CA        14.1190   64.1800   18.4960 C.3    83  SER83       0.1924
     57  C         13.1230   64.5920   19.5720 C.2    83  SER83       0.2314
     58  O         12.3930   63.7520   20.1140 O.2    83  SER83      -0.2863
     59  CB        15.5250   64.2290   19.0880 C.3    83  SER83       0.2116
     60  OG        16.4880   63.8420   18.1280 O.3    83  SER83      -0.2180
     61  N         15.2590   57.1470   23.7770 N.3   117  HIS117     -0.1241
     62  CA        16.1640   57.0450   22.6450 C.3   117  HIS117      0.1621
     63  C         16.1750   55.6520   22.0330 C.2   117  HIS117      0.2264
     64  O         16.3020   55.4960   20.8100 O.2   117  HIS117     -0.2867
     65  CB        17.5590   57.4960   23.0360 C.3   117  HIS117      0.0745
     66  CG        17.6550   58.9720   23.2390 C.ar  117  HIS117      0.0817
     67  ND1       17.6420   59.5550   24.4880 N.ar  117  HIS117     -0.2268
     68  CD2       17.6760   59.9910   22.3480 C.ar  117  HIS117      0.1154
     69  CE1       17.6490   60.8700   24.3560 C.ar  117  HIS117      0.1986
     70  NE2       17.6680   61.1600   23.0680 N.ar  117  HIS117     -0.2212
     71  N         13.3990   55.8060   19.6250 N.3   120  ILE120     -0.1231
     72  CA        13.7240   56.6140   18.4640 C.3   120  ILE120      0.1692
     73  C         14.5800   55.8210   17.4650 C.2   120  ILE120      0.2592
     74  O         14.3090   55.8210   16.2610 O.2   120  ILE120     -0.2718
     75  CB        14.4520   57.9240   18.9160 C.3   120  ILE120      0.0266
     76  CG1       13.4200   58.8590   19.5690 C.3   120  ILE120      0.0019
     77  CG2       15.1960   58.5760   17.7520 C.3   120  ILE120      0.0020
     78  CD1       13.9760   60.1780   20.0590 C.3   120  ILE120      0.0001
     79  N         15.6020   55.1230   17.9470 N.am  121  TYR121     -0.1976
     80  CA        16.4290   54.3590   17.0180 C.3   121  TYR121      0.1639
     81  C         15.6890   53.1550   16.4330 C.2   121  TYR121      0.2290
     82  O         16.0020   52.7030   15.3490 O.2   121  TYR121     -0.2864
     83  CB        17.7210   53.9280   17.7010 C.3   121  TYR121      0.0560
     84  CG        18.4580   55.0980   18.2950 C.ar  121  TYR121     -0.0198
     85  CD1       18.6800   56.2580   17.5430 C.ar  121  TYR121     -0.0009
     86  CD2       18.9020   55.0710   19.6180 C.ar  121  TYR121     -0.0009
     87  CE1       19.3180   57.3610   18.0940 C.ar  121  TYR121      0.0417
     88  CE2       19.5460   56.1750   20.1800 C.ar  121  TYR121      0.0417
     89  CZ        19.7510   57.3130   19.4110 C.ar  121  TYR121      0.1957
     90  OH        20.3980   58.3970   19.9580 O.3   121  TYR121     -0.2866
     91  N         13.4070   54.8840   13.8680 N.3   124  LEU124     -0.1245
     92  CA        14.2110   55.5260   12.8390 C.3   124  LEU124      0.1561
     93  C         14.6070   54.5310   11.7570 C.2   124  LEU124      0.2260
     94  O         14.9050   54.9240   10.6260 O.2   124  LEU124     -0.2867
     95  CB        15.4620   56.1350   13.4590 C.3   124  LEU124      0.0270
     96  CG        16.3570   56.9270   12.5050 C.3   124  LEU124      0.0019
     97  CD1       15.5500   58.0670   11.8770 C.3   124  LEU124      0.0001
     98  CD2       17.5670   57.4710   13.2630 C.3   124  LEU124      0.0001
     99  N         30.6280   65.0490   13.7620 N.3   154  PHE154     -0.1241
    100  CA        29.2780   64.8300   13.2390 C.3   154  PHE154      0.1605
    101  C         29.1160   63.6440   12.2810 C.2   154  PHE154      0.2264
    102  O         28.0490   63.0260   12.2330 O.2   154  PHE154     -0.2867
    103  CB        28.7660   66.0960   12.5450 C.3   154  PHE154      0.0534
    104  CG        28.7690   67.3140   13.4220 C.ar  154  PHE154     -0.0203
    105  CD1       29.9220   68.0820   13.5670 C.ar  154  PHE154     -0.0042
    106  CD2       27.6230   67.6870   14.1240 C.ar  154  PHE154     -0.0042
    107  CE1       29.9340   69.2030   14.3980 C.ar  154  PHE154     -0.0003
    108  CE2       27.6260   68.8080   14.9560 C.ar  154  PHE154     -0.0003
    109  CZ        28.7850   69.5640   15.0920 C.ar  154  PHE154     -0.0000
    110  N         27.7480   60.1620   13.8320 N.3   157  PHE157     -0.1227
    111  CA        26.4660   60.0410   14.5010 C.3   157  PHE157      0.1736
    112  C         25.5050   59.0250   13.9130 C.2   157  PHE157      0.2595
    113  O         24.9200   58.2380   14.6470 O.2   157  PHE157     -0.2718
    114  CB        25.7680   61.4020   14.5650 C.3   157  PHE157      0.0547
    115  CG        26.1540   62.2150   15.7610 C.ar  157  PHE157     -0.0202
    116  CD1       25.7580   61.8260   17.0380 C.ar  157  PHE157     -0.0042
    117  CD2       26.9500   63.3460   15.6220 C.ar  157  PHE157     -0.0042
    118  CE1       26.1500   62.5500   18.1630 C.ar  157  PHE157     -0.0003
    119  CE2       27.3500   64.0780   16.7420 C.ar  157  PHE157     -0.0003
    120  CZ        26.9490   63.6790   18.0150 C.ar  157  PHE157     -0.0000
    121  N         25.3540   59.0270   12.5950 N.am  158  MET158     -0.1979
    122  CA        24.4050   58.1270   11.9500 C.3   158  MET158      0.1605
    123  C         24.8440   56.7160   11.5200 C.2   158  MET158      0.2287
    124  O         24.0370   55.7840   11.5710 O.2   158  MET158     -0.2864
    125  CB        23.7610   58.8540   10.7650 C.3   158  MET158      0.0413
    126  CG        22.8870   60.0350   11.1790 C.3   158  MET158      0.0598
    127  SD        21.5360   59.5950   12.3280 S.3   158  MET158     -0.1393
    128  CE        20.3870   58.8180   11.1730 C.3   158  MET158      0.0692
    129  N         23.7090   53.7950   13.4350 N.3   161  LYS161     -0.1245
    130  CA        22.2570   53.6160   13.3310 C.3   161  LYS161      0.1561
    131  C         21.8660   52.8860   12.0430 C.2   161  LYS161      0.2260
    132  O         20.9150   52.0960   12.0250 O.2   161  LYS161     -0.2867
    133  CB        21.5320   54.9650   13.3910 C.3   161  LYS161      0.0271
    134  CG        21.3360   55.5710   14.7890 C.3   161  LYS161      0.0035
    135  CD        22.5980   56.2270   15.3150 C.3   161  LYS161      0.0206
    136  CE        22.2930   57.0610   16.5510 C.3   161  LYS161      0.1093
    137  NZ        23.4800   57.8150   17.0630 N.3   161  LYS161     -0.1314
    138  N         26.3240   56.9620   21.5470 N.3   243  HIS243     -0.1241
    139  CA        25.6970   58.2470   21.2620 C.3   243  HIS243      0.1621
    140  C         25.9860   59.2610   22.3580 C.2   243  HIS243      0.2264
    141  O         26.3810   60.3930   22.0770 O.2   243  HIS243     -0.2867
    142  CB        24.1760   58.1050   21.1120 C.3   243  HIS243      0.0745
    143  CG        23.5200   59.3150   20.5190 C.ar  243  HIS243      0.0817
    144  ND1       23.5070   59.5660   19.1620 N.ar  243  HIS243     -0.2268
    145  CD2       22.9020   60.3720   21.1020 C.ar  243  HIS243      0.1154
    146  CE1       22.9080   60.7220   18.9360 C.ar  243  HIS243      0.1986
    147  NE2       22.5340   61.2310   20.0960 N.ar  243  HIS243     -0.2212
    148  N         27.9600   62.7830   22.0560 N.3   247  LEU247     -0.1245
    149  CA        27.2590   64.0000   22.4100 C.3   247  LEU247      0.1561
    150  C         28.1770   64.8720   23.2660 C.2   247  LEU247      0.2260
    151  O         28.2800   66.0810   23.0500 O.2   247  LEU247     -0.2867
    152  CB        25.9830   63.6390   23.1690 C.3   247  LEU247      0.0270
    153  CG        24.6620   64.2350   22.6750 C.3   247  LEU247      0.0019
    154  CD1       24.5560   64.1490   21.1570 C.3   247  LEU247      0.0001
    155  CD2       23.5130   63.4870   23.3370 C.3   247  LEU247      0.0001
    156  N         30.8680   66.9580   21.3850 N.3   250  ILE250     -0.1245
    157  CA        30.3590   68.1680   20.7560 C.3   250  ILE250      0.1561
    158  C         30.2160   69.2750   21.7860 C.2   250  ILE250      0.2260
    159  O         30.5140   70.4350   21.5060 O.2   250  ILE250     -0.2867
    160  CB        28.9870   67.9540   20.1140 C.3   250  ILE250      0.0252
    161  CG1       29.1010   67.0370   18.8980 C.3   250  ILE250      0.0019
    162  CG2       28.4340   69.2810   19.6820 C.3   250  ILE250      0.0019
    163  CD1       27.7990   66.8790   18.1510 C.3   250  ILE250      0.0001
    164  N         27.1460   75.5670   20.3970 N.3   257  MET257     -0.1230
    165  CA        25.9980   74.6780   20.2400 C.3   257  MET257      0.1702
    166  C         25.3270   74.4210   21.5780 C.2   257  MET257      0.2593
    167  O         25.9990   74.3290   22.6040 O.2   257  MET257     -0.2718
    168  CB        26.4390   73.3560   19.6240 C.3   257  MET257      0.0401
    169  CG        26.9620   73.4790   18.2070 C.3   257  MET257      0.0596
    170  SD        27.2460   71.8680   17.4380 S.3   257  MET257     -0.1393
    171  CE        26.2480   70.7810   18.4860 C.3   257  MET257      0.0692
    172  N         24.0040   74.2920   21.5610 N.am  258  SER258     -0.1938
    173  CA        23.2460   74.0780   22.7910 C.3   258  SER258      0.2055
    174  C         22.2000   72.9630   22.7250 C.2   258  SER258      0.2642
    175  O         21.2190   73.0620   21.9850 O.2   258  SER258     -0.2714
    176  CB        22.5750   75.3950   23.1980 C.3   258  SER258      0.2130
    177  OG        21.9660   76.0320   22.0830 O.3   258  SER258     -0.2179
    178  N         22.4120   71.9090   23.5120 N.am  259  LEU259     -0.1977
    179  CA        21.4900   70.7810   23.5520 C.3   259  LEU259      0.1596
    180  C         20.1670   71.1960   24.1970 C.2   259  LEU259      0.2287
    181  O         20.1430   71.6230   25.3500 O.2   259  LEU259     -0.2864
    182  CB        22.1130   69.6270   24.3340 C.3   259  LEU259      0.0297
    183  CG        21.3450   68.3020   24.3390 C.3   259  LEU259      0.0022
    184  CD1       21.1540   67.8070   22.9080 C.3   259  LEU259      0.0001
    185  CD2       22.1160   67.2710   25.1500 C.3   259  LEU259      0.0001
    186  N         16.0510   67.5700   26.1870 N.3   263  LEU263     -0.1245
    187  CA        17.0240   66.5250   25.8700 C.3   263  LEU263      0.1561
    188  C         18.1720   66.4760   26.8860 C.2   263  LEU263      0.2260
    189  O         18.7400   65.4130   27.1410 O.2   263  LEU263     -0.2867
    190  CB        17.6010   66.7180   24.4580 C.3   263  LEU263      0.0270
    191  CG        16.7370   66.3530   23.2420 C.3   263  LEU263      0.0019
    192  CD1       17.5580   66.5260   21.9690 C.3   263  LEU263      0.0001
    193  CD2       16.2420   64.9110   23.3540 C.3   263  LEU263      0.0001
    194  N         19.1930   63.2070   29.3620 N.3   267  TYR267     -0.1241
    195  CA        20.5730   62.7410   29.3920 C.3   267  TYR267      0.1605
    196  C         21.2720   62.8990   30.7350 C.2   267  TYR267      0.2264
    197  O         20.9290   63.7650   31.5450 O.2   267  TYR267     -0.2867
    198  CB        21.3960   63.4360   28.3060 C.3   267  TYR267      0.0534
    199  CG        21.2140   62.8290   26.9350 C.ar  267  TYR267     -0.0201
    200  CD1       21.4790   61.4770   26.7080 C.ar  267  TYR267     -0.0009
    201  CD2       20.7490   63.5930   25.8700 C.ar  267  TYR267     -0.0009
    202  CE1       21.2790   60.9020   25.4510 C.ar  267  TYR267      0.0417
    203  CE2       20.5450   63.0230   24.6040 C.ar  267  TYR267      0.0417
    204  CZ        20.8090   61.6770   24.4040 C.ar  267  TYR267      0.1957
    205  OH        20.5830   61.1130   23.1660 O.3   267  TYR267     -0.2866
@<TRIPOS>BOND
     1    54    52    1
     2    94    93    2
     3    52    51    2
     4    52    53    1
     5   125   126    1
     6   125   122    1
     7     1     2    1
     8    51    50    1
     9   128   127    1
    10   126   127    1
    11   123   124    2
    12   123   122    1
    13    17    15   ar
    14    17    19   ar
    15    93    92    1
    16     3     2    1
    17     3     4    2
    18    97    96    1
    19     9    10    1
    20   122   121    1
    21   132   131    2
    22   131   130    1
    23     2     5    1
    24    15    14   ar
    25   102   101    2
    26    19    18   ar
    27   101   100    1
    28    50    49    1
    29    96    98    1
    30    96    95    1
    31   103   100    1
    32   103   104    1
    33     5     6    1
    34     5     7    1
    35   121   112   am
    36    49    48    1
    37    92    95    1
    38    92    91    1
    39     6     8    1
    40    29    30    1
    41   100    99    1
    42    10    13    1
    43    10    11    1
    44   130   133    1
    45   130   129    1
    46   133   134    1
    47    14    13    1
    48    14    16   ar
    49   104   105   ar
    50   104   106   ar
    51    18    16   ar
    52   105   107   ar
    53    33    30    1
    54    33    34    1
    55    30    31    1
    56   110   111    1
    57   112   111    1
    58   112   113    2
    59    20    11   am
    60    20    21    1
    61    48    45    1
    62   106   108   ar
    63    11    12    2
    64    22    21    1
    65    22    23    2
    66   107   109   ar
    67   111   114    1
    68   114   115    1
    69    24    21    1
    70    24    25    1
    71   134   135    1
    72   108   109   ar
    73    31    32    2
    74    31    35   am
    75    25    26    1
    76    27    26    2
    77    45    44    1
    78    45    46    1
    79   135   136    1
    80    82    81    2
    81   117   115   ar
    82   117   119   ar
    83   115   116   ar
    84    35    36    1
    85    26    28   am
    86    74    73    2
    87    81    80    1
    88    46    47    2
    89    46    55   am
    90   136   137    1
    91   119   120   ar
    92    80    83    1
    93    80    79    1
    94   116   118   ar
    95    36    37    1
    96    36    39    1
    97    55    56    1
    98    37    38    2
    99   170   169    1
   100   170   171    1
   101    73    79   am
   102    73    72    1
   103    85    87   ar
   104    85    84   ar
   105    83    84    1
   106    77    75    1
   107    39    40    1
   108   120   118   ar
   109    87    89   ar
   110    60    59    1
   111   163   161    1
   112   169   168    1
   113    84    86   ar
   114    72    75    1
   115    72    71    1
   116    56    59    1
   117    56    57    1
   118   161   160    1
   119    75    76    1
   120   146   144   ar
   121   146   147   ar
   122   144   143   ar
   123    40    41    1
   124    42    41    2
   125    89    90    1
   126    89    88   ar
   127    76    78    1
   128    57    58    2
   129    86    88   ar
   130   168   165    1
   131   162   160    1
   132    41    43   am
   133   147   145   ar
   134   160   157    1
   135   165   164    1
   136   165   166    1
   137   143   145   ar
   138   143   142    1
   139   157   156    1
   140   157   158    1
   141    64    63    2
   142   142   139    1
   143   154   153    1
   144   139   138    1
   145   139   140    1
   146   159   158    2
   147   172   166   am
   148   172   173    1
   149   166   167    2
   150   192   191    1
   151   175   174    2
   152    63    62    1
   153   148   149    1
   154   141   140    2
   155   177   176    1
   156    68    70   ar
   157    68    66   ar
   158   149   152    1
   159   149   150    1
   160    62    65    1
   161    62    61    1
   162   153   152    1
   163   153   155    1
   164   174   173    1
   165   174   178   am
   166   173   176    1
   167   184   183    1
   168    65    66    1
   169   151   150    2
   170    70    69   ar
   171   205   204    1
   172    66    67   ar
   173   191   193    1
   174   191   190    1
   175   178   179    1
   176   179   180    1
   177   179   182    1
   178   180   181    2
   179   182   183    1
   180   183   185    1
   181    69    67   ar
   182   204   203   ar
   183   204   202   ar
   184   190   187    1
   185   203   201   ar
   186   202   200   ar
   187   201   199   ar
   188   187   186    1
   189   187   188    1
   190   200   199   ar
   191   188   189    2
   192   199   198    1
   193   198   195    1
   194   194   195    1
   195   195   196    1
   196   196   197    2
