@<TRIPOS>MOLECULE
tmp/3ho2A00.pdb
 186 182 0 0 0
SMALL
GASTEIGER

@<TRIPOS>ATOM
      1  N         51.6970   38.9170   34.6390 N.3   162  ALA162     -0.1245
      2  CA        50.4370   38.9140   35.3850 C.3   162  ALA162      0.1562
      3  C         49.6040   40.1540   35.2510 C.2   162  ALA162      0.2260
      4  O         48.4280   40.1690   35.6440 O.2   162  ALA162     -0.2867
      5  CB        50.6300   38.5300   36.9190 C.3   162  ALA162      0.0290
      6  N         59.0460   28.5720   37.1150 N.3   201  PHE201     -0.1241
      7  CA        58.6770   29.4100   38.2500 C.3   201  PHE201      0.1605
      8  C         59.2290   28.7540   39.5420 C.2   201  PHE201      0.2264
      9  O         59.5400   29.4420   40.4870 O.2   201  PHE201     -0.2867
     10  CB        57.1500   29.5710   38.3520 C.3   201  PHE201      0.0534
     11  CG        56.5830   30.6260   37.4260 C.ar  201  PHE201     -0.0203
     12  CD1       56.8370   31.9720   37.6450 C.ar  201  PHE201     -0.0042
     13  CD2       55.8750   30.2560   36.3000 C.ar  201  PHE201     -0.0042
     14  CE1       56.3430   32.9440   36.7830 C.ar  201  PHE201     -0.0003
     15  CE2       55.3330   31.2200   35.4470 C.ar  201  PHE201     -0.0003
     16  CZ        55.5780   32.5670   35.6820 C.ar  201  PHE201     -0.0000
     17  N         62.7970   29.8420   40.1260 N.3   204  ALA204     -0.1231
     18  CA        62.8240   31.1710   40.6990 C.3   204  ALA204      0.1694
     19  C         62.4200   31.2140   42.1990 C.2   204  ALA204      0.2592
     20  O         62.3940   32.2770   42.8270 O.2   204  ALA204     -0.2718
     21  CB        61.9530   32.1040   39.8840 C.3   204  ALA204      0.0304
     22  N         62.1070   30.0600   42.7700 N.am  205  ARG205     -0.1966
     23  CA        61.7060   30.0130   44.1860 C.3   205  ARG205      0.1729
     24  C         60.4460   30.8310   44.4290 C.2   205  ARG205      0.2616
     25  O         60.2300   31.3900   45.5210 O.2   205  ARG205     -0.2715
     26  CB        62.8570   30.4690   45.0950 C.3   205  ARG205      0.0348
     27  CG        64.0820   29.5280   44.9850 C.3   205  ARG205      0.0492
     28  CD        65.1640   30.0000   45.9780 C.3   205  ARG205      0.2205
     29  NE        65.7110   31.2900   45.5510 N.pl3 205  ARG205     -0.0865
     30  CZ        65.7640   32.3780   46.3120 C.cat 205  ARG205      0.5346
     31  NH1       65.2610   32.3570   47.5460 N.pl3 205  ARG205      0.1354
     32  NH2       66.2960   33.4920   45.8230 N.pl3 205  ARG205      0.1354
     33  N         59.5980   30.8810   43.4050 N.am  206  ALA206     -0.1977
     34  CA        58.3560   31.6580   43.4910 C.3   206  ALA206      0.1597
     35  C         57.0910   30.8560   43.8240 C.2   206  ALA206      0.2287
     36  O         56.0610   31.4410   44.1330 O.2   206  ALA206     -0.2864
     37  CB        58.1520   32.4650   42.1910 C.3   206  ALA206      0.0319
     38  N         54.7290   31.1200   48.6640 N.3   227  GLY227     -0.1210
     39  CA        54.8020   31.3140   47.2140 C.3   227  GLY227      0.1956
     40  C         53.4570   31.1130   46.5380 C.2   227  GLY227      0.2611
     41  O         52.5020   30.6540   47.1590 O.2   227  GLY227     -0.2717
     42  N         53.3710   31.4510   45.2530 N.am  228  PHE228     -0.1976
     43  CA        52.0860   31.3460   44.5540 C.3   228  PHE228      0.1639
     44  C         51.8080   29.9760   44.0200 C.2   228  PHE228      0.2290
     45  O         52.6600   29.0730   44.0840 O.2   228  PHE228     -0.2864
     46  CB        51.8960   32.4610   43.5020 C.3   228  PHE228      0.0560
     47  CG        52.6900   32.2580   42.2230 C.ar  228  PHE228     -0.0200
     48  CD1       52.1250   31.6000   41.1320 C.ar  228  PHE228     -0.0042
     49  CD2       53.9230   32.8850   42.0470 C.ar  228  PHE228     -0.0042
     50  CE1       52.8160   31.4470   39.9270 C.ar  228  PHE228     -0.0003
     51  CE2       54.6160   32.7520   40.8480 C.ar  228  PHE228     -0.0003
     52  CZ        54.0600   32.0360   39.7820 C.ar  228  PHE228     -0.0000
     53  N         57.1180   49.9550   38.9890 N.3   264  ASP264     -0.1239
     54  CA        57.7650   50.0250   40.2960 C.3   264  ASP264      0.1674
     55  C         59.1740   50.6170   40.1610 C.2   264  ASP264      0.2266
     56  O         59.6710   51.2160   41.1150 O.2   264  ASP264     -0.2867
     57  CB        57.9590   48.6240   40.9180 C.3   264  ASP264      0.1410
     58  CG        56.7080   48.0400   41.4890 C.2   264  ASP264      0.3668
     59  OD1       55.6900   48.7640   41.6510 O.co2 264  ASP264     -0.2456
     60  OD2       56.7500   46.8010   41.6800 O.co2 264  ASP264     -0.2456
     61  N         62.7230   46.2210   41.0600 N.3   267  HIS267     -0.1226
     62  CA        63.4200   44.9650   40.8530 C.3   267  HIS267      0.1752
     63  C         62.5670   44.1570   39.8860 C.2   267  HIS267      0.2599
     64  O         61.3440   44.2930   39.8770 O.2   267  HIS267     -0.2717
     65  CB        63.5570   44.2360   42.1920 C.3   267  HIS267      0.0759
     66  CG        64.1490   42.8620   42.0910 C.ar  267  HIS267      0.0818
     67  ND1       65.4230   42.5650   42.5380 N.ar  267  HIS267     -0.2268
     68  CD2       63.6200   41.6910   41.6640 C.ar  267  HIS267      0.1154
     69  CE1       65.6560   41.2720   42.3710 C.ar  267  HIS267      0.1986
     70  NE2       64.5780   40.7200   41.8410 N.ar  267  HIS267     -0.2212
     71  N         63.2140   43.3360   39.0830 N.am  268  MET268     -0.1920
     72  CA        62.5390   42.5620   38.0380 C.3   268  MET268      0.1952
     73  C         61.4780   41.5820   38.5390 C.2   268  MET268      0.2660
     74  O         60.4520   41.3720   37.8610 O.2   268  MET268     -0.2711
     75  CB        63.5560   41.9340   37.0290 C.2   268  MET268      0.0110
     76  CG        64.2080   40.5690   37.4170 C.2   268  MET268      0.0285
     77  SD        65.7240   39.9160   36.4000 S.3   268  MET268     -0.1125
     78  CE        67.0110   41.2490   36.9670 C.3   268  MET268      0.0742
     79  N         61.7250   40.9700   39.7030 N.am  269  THR269     -0.1934
     80  CA        60.8240   39.9280   40.2140 C.3   269  THR269      0.2028
     81  C         60.3110   40.1310   41.6570 C.2   269  THR269      0.2643
     82  O         59.8460   39.1890   42.2910 O.2   269  THR269     -0.2714
     83  CB        61.4540   38.5520   40.0780 C.3   269  THR269      0.1808
     84  OG1       62.6960   38.5440   40.7850 O.3   269  THR269     -0.2208
     85  CG2       61.7210   38.2170   38.6090 C.3   269  THR269      0.0379
     86  N         60.3830   41.3590   42.1520 N.am  270  SER270     -0.1936
     87  CA        59.9130   41.6480   43.4950 C.3   270  SER270      0.2040
     88  C         59.4850   43.1080   43.5570 C.2   270  SER270      0.2485
     89  O         60.0880   43.9710   42.9260 O.2   270  SER270     -0.2729
     90  CB        61.0540   41.4100   44.5110 C.3   270  SER270      0.2129
     91  OG        60.5380   41.5610   45.8270 O.3   270  SER270     -0.2179
     92  N         58.4300   43.4020   44.3250 N.am  271  PRO271     -0.2726
     93  CA        57.9820   44.7910   44.4640 C.3   271  PRO271      0.1402
     94  C         58.7650   45.4500   45.6020 C.2   271  PRO271      0.2269
     95  O         59.3620   44.7670   46.4250 O.2   271  PRO271     -0.2865
     96  CB        56.5170   44.6300   44.9020 C.3   271  PRO271      0.0296
     97  CG        56.4990   43.3470   45.6490 C.3   271  PRO271      0.0237
     98  CD        57.5010   42.4500   44.9670 C.3   271  PRO271      0.0939
     99  N         45.8090   41.6670   43.8680 N.3   302  HIS302     -0.1241
    100  CA        46.7080   40.8490   43.1040 C.3   302  HIS302      0.1621
    101  C         46.9980   39.6480   44.0190 C.2   302  HIS302      0.2264
    102  O         46.9030   38.5140   43.6000 O.2   302  HIS302     -0.2867
    103  CB        47.9790   41.6560   42.8260 C.3   302  HIS302      0.0745
    104  CG        48.9810   40.9150   42.0140 C.ar  302  HIS302      0.0817
    105  ND1       48.6600   40.3100   40.8200 N.ar  302  HIS302     -0.2268
    106  CD2       50.2790   40.6310   42.2470 C.ar  302  HIS302      0.1154
    107  CE1       49.7150   39.6590   40.3670 C.ar  302  HIS302      0.1986
    108  NE2       50.7070   39.8430   41.2110 N.ar  302  HIS302     -0.2212
    109  N         49.0510   37.2320   45.4940 N.3   304  THR304     -0.1218
    110  CA        49.4660   35.9600   44.9590 C.3   304  THR304      0.1862
    111  C         49.8710   34.9020   45.9640 C.2   304  THR304      0.2287
    112  O         50.0320   33.7380   45.5890 O.2   304  THR304     -0.2866
    113  CB        50.5980   36.1680   43.9480 C.3   304  THR304      0.1770
    114  OG1       51.7340   36.7170   44.6410 O.3   304  THR304     -0.2211
    115  CG2       50.1560   37.1690   42.8430 C.3   304  THR304      0.0375
    116  N         52.7130   35.2870   48.0700 N.3   306  THR306     -0.1204
    117  CA        54.1600   35.2990   48.2510 C.3   306  THR306      0.1979
    118  C         54.4480   36.1200   49.5150 C.2   306  THR306      0.2460
    119  O         53.7170   37.0590   49.8510 O.2   306  THR306     -0.2732
    120  CB        54.9080   35.9000   47.0450 C.3   306  THR306      0.1783
    121  OG1       54.5450   37.2760   46.9060 O.3   306  THR306     -0.2211
    122  CG2       54.5970   35.0970   45.7420 C.3   306  THR306      0.0376
    123  N         55.5510   35.8090   50.1960 N.am  307  PRO307     -0.2717
    124  CA        55.8200   36.5930   51.4100 C.3   307  PRO307      0.1535
    125  C         55.9220   38.0990   51.1710 C.2   307  PRO307      0.2598
    126  O         55.2200   38.8880   51.8290 O.2   307  PRO307     -0.2715
    127  CB        57.1300   36.0040   51.9320 C.3   307  PRO307      0.0310
    128  CG        57.1230   34.5630   51.4370 C.3   307  PRO307      0.0237
    129  CD        56.4280   34.6250   50.0710 C.3   307  PRO307      0.0939
    130  N         56.7670   38.5120   50.2240 N.am  308  ALA308     -0.1964
    131  CA        56.9660   39.9500   49.9580 C.3   308  ALA308      0.1728
    132  C         55.8990   40.6230   49.1260 C.2   308  ALA308      0.2616
    133  O         55.6890   41.8280   49.2440 O.2   308  ALA308     -0.2715
    134  CB        58.3340   40.1990   49.3030 C.3   308  ALA308      0.0334
    135  N         55.3170   39.8910   48.1870 N.am  309  GLY309     -0.1955
    136  CA        54.2860   40.4740   47.3370 C.3   309  GLY309      0.1869
    137  C         53.0400   40.8570   48.1070 C.2   309  GLY309      0.2309
    138  O         52.5300   41.9710   47.9550 O.2   309  GLY309     -0.2863
    139  N         47.0410   31.3010   40.6130 N.3   339  HIS339     -0.1241
    140  CA        47.4530   32.4980   39.8320 C.3   339  HIS339      0.1621
    141  C         47.3760   32.1910   38.3460 C.2   339  HIS339      0.2264
    142  O         48.1780   31.3980   37.8360 O.2   339  HIS339     -0.2867
    143  CB        48.9210   32.8000   40.1940 C.3   339  HIS339      0.0745
    144  CG        49.4210   34.1430   39.7430 C.ar  339  HIS339      0.0817
    145  ND1       48.7110   34.9690   38.8950 N.ar  339  HIS339     -0.2268
    146  CD2       50.5440   34.8210   40.0740 C.ar  339  HIS339      0.1154
    147  CE1       49.3880   36.0890   38.7070 C.ar  339  HIS339      0.1986
    148  NE2       50.5030   36.0230   39.4140 N.ar  339  HIS339     -0.2212
    149  N         48.0700   34.0370   35.9630 N.3   341  LEU341     -0.1245
    150  CA        49.0670   34.8330   35.2260 C.3   341  LEU341      0.1561
    151  C         48.4590   35.8450   34.2390 C.2   341  LEU341      0.2260
    152  O         47.7310   36.7570   34.6480 O.2   341  LEU341     -0.2867
    153  CB        50.1170   33.9350   34.5570 C.3   341  LEU341      0.0270
    154  CG        50.8490   32.9510   35.4960 C.3   341  LEU341      0.0019
    155  CD1       51.6930   31.9650   34.7060 C.3   341  LEU341      0.0001
    156  CD2       51.7450   33.6810   36.5680 C.3   341  LEU341      0.0001
    157  N         49.5130   42.9530   39.1170 N.3   397  PHE397     -0.1227
    158  CA        50.9130   43.4210   39.0140 C.3   397  PHE397      0.1736
    159  C         51.7190   42.3620   38.3090 C.2   397  PHE397      0.2596
    160  O         51.3160   41.2110   38.2720 O.2   397  PHE397     -0.2718
    161  CB        51.5110   43.7410   40.4080 C.3   397  PHE397      0.0547
    162  CG        50.5580   44.4990   41.3150 C.ar  397  PHE397     -0.0202
    163  CD1       49.8170   45.5620   40.8280 C.ar  397  PHE397     -0.0042
    164  CD2       50.4610   44.1850   42.6660 C.ar  397  PHE397     -0.0042
    165  CE1       48.9290   46.2750   41.6710 C.ar  397  PHE397     -0.0003
    166  CE2       49.5610   44.8770   43.5090 C.ar  397  PHE397     -0.0003
    167  CZ        48.7950   45.9240   43.0120 C.ar  397  PHE397     -0.0000
    168  N         52.8430   42.7350   37.7010 N.am  398  GLY398     -0.1942
    169  CA        53.5750   41.7290   36.9580 C.3   398  GLY398      0.2014
    170  C         55.0860   41.8420   37.0340 C.2   398  GLY398      0.2638
    171  O         55.6230   42.8870   37.3990 O.2   398  GLY398     -0.2714
    172  N         55.7640   40.7480   36.7030 N.am  399  PHE399     -0.1973
    173  CA        57.2360   40.7400   36.6890 C.3   399  PHE399      0.1639
    174  C         57.6050   41.9160   35.8300 C.2   399  PHE399      0.2290
    175  O         56.8730   42.2430   34.8990 O.2   399  PHE399     -0.2864
    176  CB        57.7730   39.4800   36.0230 C.3   399  PHE399      0.0560
    177  CG        57.8500   38.2890   36.9330 C.ar  399  PHE399     -0.0200
    178  CD1       57.4170   38.3760   38.2420 C.ar  399  PHE399     -0.0042
    179  CD2       58.3800   37.0820   36.4740 C.ar  399  PHE399     -0.0042
    180  CE1       57.5480   37.2980   39.1030 C.ar  399  PHE399     -0.0003
    181  CE2       58.5200   36.0070   37.3260 C.ar  399  PHE399     -0.0003
    182  CZ        58.0670   36.1030   38.6530 C.ar  399  PHE399     -0.0000
    183  N         57.8850   44.8300   37.2750 N.3   401  GLY401     -0.1225
    184  CA        57.3940   45.9760   38.0080 C.3   401  GLY401      0.1811
    185  C         56.2600   46.7120   37.3420 C.2   401  GLY401      0.2280
    186  O         55.9690   47.8450   37.6900 O.2   401  GLY401     -0.2866
@<TRIPOS>BOND
     1   151   152    2
     2   151   150    1
     3   153   150    1
     4   153   154    1
     5     1     2    1
     6   155   154    1
     7   175   174    2
     8   150   149    1
     9     3     2    1
    10     3     4    2
    11     2     5    1
    12    15    16   ar
    13    15    13   ar
    14   154   156    1
    15    16    14   ar
    16   174   173    1
    17   176   173    1
    18   176   177    1
    19    13    11   ar
    20    77    78    1
    21    77    76    1
    22   179   177   ar
    23   179   181   ar
    24   173   172    1
    25   172   170   am
    26    14    12   ar
    27   177   178   ar
    28   169   170    1
    29   169   168    1
    30    75    76    2
    31    75    72    1
    32   170   171    2
    33     6     7    1
    34   183   184    1
    35   181   182   ar
    36   185   186    2
    37   185   184    1
    38    11    12   ar
    39    11    10    1
    40   168   159   am
    41   142   141    2
    42    74    73    2
    43    72    73    1
    44    72    71    1
    45   178   180   ar
    46     7    10    1
    47     7     8    1
    48   160   159    2
    49   159   158    1
    50   141   140    1
    51    73    79   am
    52    85    83    1
    53   182   180   ar
    54   147   145   ar
    55   147   148   ar
    56   145   144   ar
    57    53    54    1
    58   158   157    1
    59   158   161    1
    60    71    63   am
    61   148   146   ar
    62     8     9    2
    63    79    80    1
    64   144   146   ar
    65   144   143    1
    66    52    50   ar
    67    52    51   ar
    68   140   143    1
    69   140   139    1
    70    64    63    2
    71    21    18    1
    72    63    62    1
    73    50    48   ar
    74    83    80    1
    75    83    84    1
    76    17    18    1
    77    55    54    1
    78    55    56    2
    79    80    81    1
    80    54    57    1
    81   107   105   ar
    82   107   108   ar
    83   161   162    1
    84    18    19    1
    85   105   104   ar
    86   163   162   ar
    87   163   165   ar
    88    51    49   ar
    89    62    61    1
    90    62    65    1
    91    57    58    1
    92    48    47   ar
    93   108   106   ar
    94   162   164   ar
    95    58    59   ar
    96    58    60   ar
    97    81    86   am
    98    81    82    2
    99    68    70   ar
   100    68    66   ar
   101   165   167   ar
   102    70    69   ar
   103   104   106   ar
   104   104   103    1
   105    49    47   ar
   106    66    65    1
   107    66    67   ar
   108    86    87    1
   109    37    34    1
   110    19    22   am
   111    19    20    2
   112    47    46    1
   113    69    67   ar
   114   164   166   ar
   115    22    23    1
   116   103   100    1
   117   115   113    1
   118    89    88    2
   119   167   166   ar
   120   100    99    1
   121   100   101    1
   122    33    34    1
   123    33    24   am
   124    34    35    1
   125    87    88    1
   126    87    90    1
   127    46    43    1
   128    88    92   am
   129   102   101    2
   130    35    36    2
   131   113   114    1
   132   113   110    1
   133    44    45    2
   134    44    43    1
   135    23    24    1
   136    23    26    1
   137    92    93    1
   138    92    98    1
   139    24    25    2
   140    93    96    1
   141    93    94    1
   142    90    91    1
   143    43    42    1
   144    96    97    1
   145   110   109    1
   146   110   111    1
   147    98    97    1
   148    27    26    1
   149    27    28    1
   150    42    40   am
   151    29    28    1
   152    29    30    2
   153   112   111    2
   154    94    95    2
   155   122   120    1
   156    32    30    1
   157    30    31    1
   158    40    41    2
   159    40    39    1
   160   121   120    1
   161   120   117    1
   162    39    38    1
   163   136   137    1
   164   136   135    1
   165   138   137    2
   166   116   117    1
   167   135   132   am
   168   117   118    1
   169   132   133    2
   170   132   131    1
   171   134   131    1
   172   118   119    2
   173   118   123   am
   174   131   130    1
   175   129   123    1
   176   129   128    1
   177   123   124    1
   178   130   125   am
   179   125   124    1
   180   125   126    2
   181   124   127    1
   182   128   127    1
