@<TRIPOS>MOLECULE
tmp/3ho6A00.pdb
 182 168 0 0 0
SMALL
GASTEIGER

@<TRIPOS>ATOM
      1  N         84.3210   11.4420   20.4840 N.3    25  GLY25      -0.1225
      2  CA        83.9740   10.2570   21.2470 C.3    25  GLY25       0.1811
      3  C         83.1020    9.3200   20.4390 C.2    25  GLY25       0.2280
      4  O         81.8760    9.4440   20.4340 O.2    25  GLY25      -0.2866
      5  N         80.7650    6.9110   19.5110 N.3    27  LYS27      -0.1245
      6  CA        79.7240    6.0460   20.0330 C.3    27  LYS27       0.1561
      7  C         79.7020    4.7670   19.1990 C.2    27  LYS27       0.2260
      8  O         79.9890    4.7870   17.9990 O.2    27  LYS27      -0.2867
      9  CB        78.3660    6.7700   19.9970 C.3    27  LYS27       0.0271
     10  CG        78.1820    7.8160   21.1160 C.3    27  LYS27       0.0035
     11  CD        76.8600    8.6080   20.9860 C.3    27  LYS27       0.0206
     12  CE        76.5580    9.4410   22.2520 C.3    27  LYS27       0.1093
     13  NZ        75.1770   10.0690   22.3260 N.3    27  LYS27      -0.1314
     14  N         77.1210    3.1610   18.4010 N.3    29  TYR29      -0.1241
     15  CA        75.7520    2.9380   18.0050 C.3    29  TYR29       0.1605
     16  C         75.2380    3.8860   16.9480 C.2    29  TYR29       0.2264
     17  O         75.7360    4.9980   16.8140 O.2    29  TYR29      -0.2867
     18  CB        74.8250    2.9020   19.2320 C.3    29  TYR29       0.0534
     19  CG        74.7730    4.1370   20.1590 C.ar   29  TYR29      -0.0201
     20  CD1       74.0770    5.2780   19.8000 C.ar   29  TYR29      -0.0009
     21  CD2       75.3790    4.1130   21.4100 C.ar   29  TYR29      -0.0009
     22  CE1       73.9880    6.3630   20.6570 C.ar   29  TYR29       0.0417
     23  CE2       75.2900    5.2000   22.2780 C.ar   29  TYR29       0.0417
     24  CZ        74.6090    6.3150   21.8860 C.ar   29  TYR29       0.1957
     25  OH        74.5380    7.3630   22.7640 O.3    29  TYR29      -0.2866
     26  N         72.0980    6.0960   16.3890 N.3    31  HIS31      -0.1241
     27  CA        71.0620    6.6860   17.2240 C.3    31  HIS31       0.1621
     28  C         69.8920    7.1520   16.3650 C.2    31  HIS31       0.2264
     29  O         69.9970    8.1700   15.6470 O.2    31  HIS31      -0.2867
     30  CB        71.6140    7.8810   18.0030 C.3    31  HIS31       0.0745
     31  CG        70.7380    8.3160   19.1420 C.ar   31  HIS31       0.0817
     32  ND1       71.0430    9.4020   19.9220 N.ar   31  HIS31      -0.2268
     33  CD2       69.5600    7.8290   19.6100 C.ar   31  HIS31       0.1154
     34  CE1       70.0910    9.5730   20.8260 C.ar   31  HIS31       0.1986
     35  NE2       69.1860    8.6340   20.6710 N.ar   31  HIS31      -0.2212
     36  N         69.4280   17.5250   19.8450 N.3    49  LEU49      -0.1245
     37  CA        70.0490   16.2540   20.1420 C.3    49  LEU49       0.1561
     38  C         70.8200   15.7070   18.9540 C.2    49  LEU49       0.2260
     39  O         71.9760   15.2590   19.0920 O.2    49  LEU49      -0.2867
     40  CB        69.0050   15.2610   20.6400 C.3    49  LEU49       0.0270
     41  CG        69.4640   13.9140   21.1900 C.3    49  LEU49       0.0019
     42  CD1       70.2720   14.1680   22.4840 C.3    49  LEU49       0.0001
     43  CD2       68.2380   13.0590   21.5150 C.3    49  LEU49       0.0001
     44  N         74.2600   17.5760   18.2580 N.3    52  LYS52      -0.1231
     45  CA        75.3710   17.3060   19.1570 C.3    52  LYS52       0.1693
     46  C         76.2600   16.1350   18.6740 C.2    52  LYS52       0.2592
     47  O         77.4600   16.1570   18.9070 O.2    52  LYS52      -0.2718
     48  CB        74.8370   17.0270   20.5640 C.3    52  LYS52       0.0285
     49  CG        75.9140   17.0000   21.5950 C.3    52  LYS52       0.0035
     50  CD        75.3290   16.7590   22.9610 C.3    52  LYS52       0.0206
     51  CE        74.7710   15.3740   23.0690 C.3    52  LYS52       0.1093
     52  NZ        73.9200   15.2280   24.2590 N.3    52  LYS52      -0.1314
     53  N         75.6600   15.1510   17.9920 N.am   53  ASN53      -0.1974
     54  CA        76.3680   13.9750   17.4700 C.3    53  ASN53       0.1688
     55  C         75.8270   13.6230   16.0960 C.2    53  ASN53       0.2292
     56  O         75.1960   12.5650   15.8910 O.2    53  ASN53      -0.2864
     57  CB        76.1870   12.7800   18.3950 C.3    53  ASN53       0.1181
     58  CG        77.0260   12.8880   19.6340 C.2    53  ASN53       0.2629
     59  OD1       78.2270   12.6480   19.6080 O.2    53  ASN53      -0.2716
     60  ND2       76.3980   13.2530   20.7310 N.am   53  ASN53      -0.0877
     61  N         75.3860   -1.6820   17.8500 N.3    97  LYS97      -0.1245
     62  CA        74.3070   -1.3230   18.7540 C.3    97  LYS97       0.1561
     63  C         73.3460   -0.3260   18.0880 C.2    97  LYS97       0.2260
     64  O         73.7770    0.4980   17.2600 O.2    97  LYS97      -0.2867
     65  CB        74.8720   -0.7290   20.0470 C.3    97  LYS97       0.0271
     66  CG        73.8020   -0.1350   20.9770 C.3    97  LYS97       0.0035
     67  CD        74.4260    0.3090   22.3050 C.3    97  LYS97       0.0206
     68  CE        73.5000    1.2220   23.0590 C.3    97  LYS97       0.1093
     69  NZ        74.1010    1.6630   24.3340 N.3    97  LYS97      -0.1314
     70  N         70.5120    2.5420   19.3750 N.3    99  LYS99      -0.1245
     71  CA        69.7790    3.3310   20.3740 C.3    99  LYS99       0.1561
     72  C         68.6160    3.9770   19.6440 C.2    99  LYS99       0.2260
     73  O         68.8430    4.6720   18.6430 O.2    99  LYS99      -0.2867
     74  CB        70.6730    4.4060   20.9980 C.3    99  LYS99       0.0271
     75  CG        70.0050    5.1840   22.1370 C.3    99  LYS99       0.0035
     76  CD        70.9220    6.2220   22.7160 C.3    99  LYS99       0.0206
     77  CE        70.3210    6.8900   23.9720 C.3    99  LYS99       0.1093
     78  NZ        71.2500    7.8650   24.6060 N.3    99  LYS99      -0.1314
     79  N         68.7710   -0.4450   22.7070 N.3   144  GLU144     -0.1245
     80  CA        68.1760    0.3190   23.7910 C.3   144  GLU144      0.1567
     81  C         67.0140    1.0890   23.1940 C.2   144  GLU144      0.2260
     82  O         67.2070    1.8520   22.2240 O.2   144  GLU144     -0.2867
     83  CB        69.1680    1.2960   24.4260 C.3   144  GLU144      0.0388
     84  CG        68.5150    2.1680   25.4750 C.3   144  GLU144      0.1160
     85  CD        69.4060    3.2270   26.0710 C.2   144  GLU144      0.3649
     86  OE1       70.5510    2.8950   26.4520 O.co2 144  GLU144     -0.2457
     87  OE2       68.9200    4.3750   26.2410 O.co2 144  GLU144     -0.2457
     88  N         64.7490    4.0460   24.2060 N.3   146  ASN146     -0.1240
     89  CA        64.8980    5.1090   25.1540 C.3   146  ASN146      0.1653
     90  C         63.6620    5.9780   25.0940 C.2   146  ASN146      0.2266
     91  O         63.3360    6.5900   24.0870 O.2   146  ASN146     -0.2867
     92  CB        66.1850    5.8880   24.8390 C.3   146  ASN146      0.1155
     93  CG        66.4650    6.9580   25.8300 C.2   146  ASN146      0.2627
     94  OD1       66.3220    6.7630   27.0540 O.2   146  ASN146     -0.2716
     95  ND2       66.8890    8.1080   25.3320 N.am  146  ASN146     -0.0877
     96  N         62.2950    9.2040   26.0920 N.3   148  LEU148     -0.1245
     97  CA        62.7370   10.5040   26.6090 C.3   148  LEU148      0.1561
     98  C         61.4970   11.3250   26.9020 C.2   148  LEU148      0.2260
     99  O         60.8720   11.8450   26.0090 O.2   148  LEU148     -0.2867
    100  CB        63.6880   11.2130   25.6520 C.3   148  LEU148      0.0270
    101  CG        64.1210   12.5980   26.1450 C.3   148  LEU148      0.0019
    102  CD1       65.0330   12.4860   27.3290 C.3   148  LEU148      0.0001
    103  CD2       64.8090   13.3740   25.0230 C.3   148  LEU148      0.0001
    104  N         65.7030   18.6370   26.6840 N.3   198  ILE198     -0.1245
    105  CA        66.9420   18.7760   25.9470 C.3   198  ILE198      0.1561
    106  C         67.2270   20.2700   25.8880 C.2   198  ILE198      0.2260
    107  O         66.3570   21.0670   25.4830 O.2   198  ILE198     -0.2867
    108  CB        66.8170   18.1720   24.5360 C.3   198  ILE198      0.0252
    109  CG1       66.5690   16.6640   24.6070 C.3   198  ILE198      0.0019
    110  CG2       68.0620   18.4980   23.7500 C.3   198  ILE198      0.0019
    111  CD1       67.6170   15.8810   25.4120 C.3   198  ILE198      0.0001
    112  N         71.7260   20.6200   23.1290 N.3   202  GLY202     -0.1210
    113  CA        71.5100   19.2120   22.8440 C.3   202  GLY202      0.1956
    114  C         71.8200   18.3110   24.0070 C.2   202  GLY202      0.2612
    115  O         71.9680   17.1270   23.8120 O.2   202  GLY202     -0.2717
    116  N         71.9220   18.8690   25.2130 N.am  203  ARG203     -0.1965
    117  CA        72.1770   18.0510   26.4100 C.3   203  ARG203      0.1729
    118  C         70.9310   17.8500   27.2500 C.2   203  ARG203      0.2616
    119  O         70.1470   18.7600   27.4590 O.2   203  ARG203     -0.2715
    120  CB        73.2520   18.6740   27.3020 C.3   203  ARG203      0.0348
    121  CG        74.5860   18.9320   26.5930 C.3   203  ARG203      0.0492
    122  CD        75.7370   19.0600   27.5890 C.3   203  ARG203      0.2205
    123  NE        76.1330   17.7770   28.1770 N.pl3 203  ARG203     -0.0865
    124  CZ        76.7560   17.6380   29.3430 C.cat 203  ARG203      0.5346
    125  NH1       77.0570   18.7050   30.0890 N.pl3 203  ARG203      0.1354
    126  NH2       77.0760   16.4310   29.7780 N.pl3 203  ARG203      0.1354
    127  N         70.7670   16.6340   27.7670 N.am  204  LYS204     -0.1977
    128  CA        69.6210   16.3630   28.6310 C.3   204  LYS204      0.1596
    129  C         69.8150   16.9790   30.0050 C.2   204  LYS204      0.2287
    130  O         70.8720   16.8210   30.6320 O.2   204  LYS204     -0.2864
    131  CB        69.4450   14.8540   28.7970 C.3   204  LYS204      0.0298
    132  CG        68.1850   14.4630   29.5590 C.3   204  LYS204      0.0038
    133  CD        68.0480   12.9420   29.6690 C.3   204  LYS204      0.0206
    134  CE        69.0450   12.3910   30.6720 C.3   204  LYS204      0.1093
    135  NZ        69.1850   10.8930   30.6820 N.3   204  LYS204     -0.1314
    136  N         74.1950   16.4410   33.2910 N.3   216  LYS216     -0.1245
    137  CA        74.6020   15.0950   33.6370 C.3   216  LYS216      0.1561
    138  C         75.5450   15.0690   34.8420 C.2   216  LYS216      0.2260
    139  O         75.4050   14.2540   35.7630 O.2   216  LYS216     -0.2867
    140  CB        75.2950   14.4560   32.4200 C.3   216  LYS216      0.0271
    141  CG        75.6470   12.9910   32.5970 C.3   216  LYS216      0.0035
    142  CD        76.2430   12.4230   31.2950 C.3   216  LYS216      0.0206
    143  CE        77.6720   12.9200   31.0560 C.3   216  LYS216      0.1093
    144  NZ        78.1500   12.4880   29.6850 N.3   216  LYS216     -0.1314
    145  N         68.1400    8.7440   34.6060 N.3   227  LYS227     -0.1245
    146  CA        67.6910    7.6930   33.7190 C.3   227  LYS227      0.1561
    147  C         67.8140    6.3290   34.4150 C.2   227  LYS227      0.2260
    148  O         68.8430    5.9950   35.0250 O.2   227  LYS227     -0.2867
    149  CB        68.5460    7.6930   32.4840 C.3   227  LYS227      0.0271
    150  CG        68.1260    6.7230   31.4160 C.3   227  LYS227      0.0035
    151  CD        69.0770    6.8910   30.2420 C.3   227  LYS227      0.0206
    152  CE        68.7880    5.9460   29.1440 C.3   227  LYS227      0.1093
    153  NZ        69.7950    6.1720   28.1010 N.3   227  LYS227     -0.1314
    154  N         67.3040    2.0600   33.7630 N.3   229  TYR229     -0.1241
    155  CA        67.3000    1.0100   32.7870 C.3   229  TYR229      0.1605
    156  C         66.3340   -0.0550   33.2620 C.2   229  TYR229      0.2264
    157  O         66.4300   -0.5340   34.4180 O.2   229  TYR229     -0.2867
    158  CB        68.6600    0.3380   32.7540 C.3   229  TYR229      0.0534
    159  CG        69.7840    1.0900   32.0940 C.ar  229  TYR229     -0.0201
    160  CD1       69.5820    1.7770   30.9200 C.ar  229  TYR229     -0.0009
    161  CD2       71.0690    1.0190   32.6000 C.ar  229  TYR229     -0.0009
    162  CE1       70.6280    2.4030   30.2770 C.ar  229  TYR229      0.0417
    163  CE2       72.1210    1.6340   31.9660 C.ar  229  TYR229      0.0417
    164  CZ        71.8980    2.3110   30.7920 C.ar  229  TYR229      0.1957
    165  OH        72.9550    2.9170   30.1480 O.3   229  TYR229     -0.2866
    166  N         71.0110    4.1180   35.7980 N.3   244  LYS244     -0.1231
    167  CA        72.1450    4.1450   34.9110 C.3   244  LYS244      0.1693
    168  C         73.3590    4.7080   35.6090 C.2   244  LYS244      0.2592
    169  O         74.4270    4.1270   35.5330 O.2   244  LYS244     -0.2718
    170  CB        71.8480    4.9780   33.6770 C.3   244  LYS244      0.0285
    171  CG        73.1230    5.1620   32.8700 C.3   244  LYS244      0.0035
    172  CD        72.9460    5.9720   31.5770 C.3   244  LYS244      0.0206
    173  CE        74.3180    6.1540   30.9830 C.3   244  LYS244      0.1093
    174  NZ        74.2980    6.9430   29.7370 N.3   244  LYS244     -0.1314
    175  N         73.1700    5.8650   36.2560 N.am  245  ASN245     -0.1974
    176  CA        74.2590    6.7350   36.7060 C.3   245  ASN245      0.1688
    177  C         74.5320    6.7220   38.2060 C.2   245  ASN245      0.2292
    178  O         75.5850    7.2070   38.6260 O.2   245  ASN245     -0.2864
    179  CB        73.9620    8.1940   36.2920 C.3   245  ASN245      0.1181
    180  CG        73.8360    8.3610   34.7720 C.2   245  ASN245      0.2629
    181  OD1       72.8330    8.8810   34.2500 O.2   245  ASN245     -0.2716
    182  ND2       74.8450    7.8960   34.0620 N.am  245  ASN245     -0.0877
@<TRIPOS>BOND
     1    29    28    2
     2    56    55    2
     3    55    54    1
     4    28    27    1
     5    26    27    1
     6    17    16    2
     7    16    15    1
     8    27    30    1
     9    64    63    2
    10    54    53    1
    11    54    57    1
    12    61    62    1
    13    53    46   am
    14     8     7    2
    15    30    31    1
    16    15    14    1
    17    15    18    1
    18    63    62    1
    19    44    45    1
    20    57    58    1
    21    73    72    2
    22    46    47    2
    23    46    45    1
    24    62    65    1
    25    38    39    2
    26    38    37    1
    27    31    33   ar
    28    31    32   ar
    29    45    48    1
    30     7     6    1
    31    18    19    1
    32    70    71    1
    33     5     6    1
    34    59    58    2
    35    33    35   ar
    36    58    60   am
    37    72    71    1
    38    20    19   ar
    39    20    22   ar
    40    36    37    1
    41    32    34   ar
    42     9     6    1
    43     9    10    1
    44    65    66    1
    45    37    40    1
    46    19    21   ar
    47    71    74    1
    48     4     3    2
    49     3     2    1
    50     1     2    1
    51    48    49    1
    52    40    41    1
    53    22    24   ar
    54    35    34   ar
    55    66    67    1
    56    11    10    1
    57    11    12    1
    58    74    75    1
    59    41    43    1
    60    41    42    1
    61    21    23   ar
    62    49    50    1
    63    24    23   ar
    64    24    25    1
    65    75    76    1
    66    82    81    2
    67    12    13    1
    68    67    68    1
    69    79    80    1
    70    76    77    1
    71   113   112    1
    72   113   114    1
    73    50    51    1
    74    68    69    1
    75    51    52    1
    76    81    80    1
    77   110   108    1
    78    80    83    1
    79   115   114    2
    80    77    78    1
    81   114   116   am
    82    91    90    2
    83    88    89    1
    84    83    84    1
    85   108   109    1
    86   108   105    1
    87   109   111    1
    88    92    89    1
    89    92    93    1
    90   103   101    1
    91    90    89    1
    92   116   117    1
    93    95    93   am
    94    84    85    1
    95   107   106    2
    96   100   101    1
    97   100    97    1
    98    93    94    2
    99   106   105    1
   100   105   104    1
   101    99    98    2
   102    85    87   ar
   103    85    86   ar
   104    96    97    1
   105   101   102    1
   106   117   118    1
   107   117   120    1
   108   121   120    1
   109   121   122    1
   110    97    98    1
   111   118   119    2
   112   118   127   am
   113   122   123    1
   114   127   128    1
   115   153   152    1
   116   123   124    2
   117   128   131    1
   118   128   129    1
   119   131   132    1
   120   152   151    1
   121   124   126    1
   122   124   125    1
   123   132   133    1
   124   133   134    1
   125   144   143    1
   126   174   173    1
   127   129   130    2
   128   165   164    1
   129   151   150    1
   130   162   164   ar
   131   162   160   ar
   132   134   135    1
   133   164   163   ar
   134   160   159   ar
   135   173   172    1
   136   143   142    1
   137   142   141    1
   138   150   149    1
   139   172   171    1
   140   163   161   ar
   141   159   161   ar
   142   159   158    1
   143   140   141    1
   144   140   137    1
   145   149   146    1
   146   158   155    1
   147   155   156    1
   148   155   154    1
   149   171   170    1
   150   156   157    2
   151   136   137    1
   152   137   138    1
   153   170   167    1
   154   146   147    1
   155   146   145    1
   156   182   180   am
   157   181   180    2
   158   147   148    2
   159   180   179    1
   160   138   139    2
   161   167   168    1
   162   167   166    1
   163   169   168    2
   164   168   175   am
   165   175   176    1
   166   179   176    1
   167   176   177    1
   168   177   178    2
