@<TRIPOS>MOLECULE
tmp/3ho8C00.pdb
 94 92 0 0 0
SMALL
GASTEIGER

@<TRIPOS>ATOM
      1  N          2.9890  -60.8130   31.1290 N.3    18  PHE18      -0.1227
      2  CA         4.1340  -59.9870   30.7120 C.3    18  PHE18       0.1736
      3  C          5.4060  -60.4240   31.4320 C.2    18  PHE18       0.2595
      4  O          6.4290  -60.6490   30.7950 O.2    18  PHE18      -0.2718
      5  CB         3.8940  -58.4920   30.9580 C.3    18  PHE18       0.0547
      6  CG         2.7790  -57.8960   30.1420 C.ar   18  PHE18      -0.0202
      7  CD1        1.7810  -57.1560   30.7540 C.ar   18  PHE18      -0.0042
      8  CD2        2.7270  -58.0650   28.7720 C.ar   18  PHE18      -0.0042
      9  CE1        0.7590  -56.6120   30.0230 C.ar   18  PHE18      -0.0003
     10  CE2        1.7050  -57.5190   28.0300 C.ar   18  PHE18      -0.0003
     11  CZ         0.7180  -56.7970   28.6560 C.ar   18  PHE18      -0.0000
     12  N          5.3310  -60.5500   32.7560 N.am   19  ARG19      -0.1980
     13  CA         6.4450  -61.0510   33.5500 C.3    19  ARG19       0.1597
     14  C          6.9410  -62.4000   33.0060 C.2    19  ARG19       0.2287
     15  O          8.1210  -62.5340   32.6610 O.2    19  ARG19      -0.2864
     16  CB         6.0510  -61.1730   35.0210 C.3    19  ARG19       0.0334
     17  CG         5.8290  -59.8590   35.7180 C.3    19  ARG19       0.0492
     18  CD         5.4070  -60.0830   37.1630 C.3    19  ARG19       0.2205
     19  NE         5.6910  -58.9110   38.0010 N.pl3  19  ARG19      -0.0865
     20  CZ         5.1380  -58.6670   39.1860 C.cat  19  ARG19       0.5346
     21  NH1        4.2460  -59.4950   39.7230 N.pl3  19  ARG19       0.1354
     22  NH2        5.4800  -57.5750   39.8350 N.pl3  19  ARG19       0.1354
     23  N          8.6770  -61.9540   29.5710 N.3    22  ALA22      -0.1245
     24  CA         9.8900  -61.1650   29.4360 C.3    22  ALA22       0.1562
     25  C         11.0930  -62.0010   29.8410 C.2    22  ALA22       0.2260
     26  O         12.2300  -61.7090   29.4780 O.2    22  ALA22      -0.2867
     27  CB         9.8010  -59.8780   30.2430 C.3    22  ALA22       0.0290
     28  N          6.4400  -57.9710   24.8210 N.3    28  THR28      -0.1218
     29  CA         5.1480  -57.7850   25.4760 C.3    28  THR28       0.1862
     30  C          4.3180  -56.6410   24.8510 C.2    28  THR28       0.2287
     31  O          4.8550  -55.5840   24.5070 O.2    28  THR28      -0.2866
     32  CB         5.3420  -57.5340   27.0040 C.3    28  THR28       0.1770
     33  OG1        6.0580  -56.3100   27.2220 O.3    28  THR28      -0.2211
     34  CG2        6.1200  -58.6880   27.6610 C.3    28  THR28       0.0375
     35  N         -0.0370  -51.3280   31.9100 N.3    42  ARG42      -0.1231
     36  CA         0.3870  -50.6130   30.7070 C.3    42  ARG42       0.1694
     37  C          1.8970  -50.6220   30.5220 C.2    42  ARG42       0.2592
     38  O          2.3880  -51.0230   29.4690 O.2    42  ARG42      -0.2718
     39  CB        -0.1050  -49.1690   30.7250 C.3    42  ARG42       0.0321
     40  CG        -1.5780  -49.0080   30.4190 C.3    42  ARG42       0.0489
     41  CD        -1.9700  -47.5340   30.3530 C.3    42  ARG42       0.2205
     42  NE        -1.4420  -46.8450   29.1730 N.pl3  42  ARG42      -0.0865
     43  CZ        -0.5300  -45.8780   29.2050 C.cat  42  ARG42       0.5346
     44  NH1       -0.0250  -45.4680   30.3670 N.pl3  42  ARG42       0.1354
     45  NH2       -0.1240  -45.3200   28.0690 N.pl3  42  ARG42       0.1354
     46  N          2.6220  -50.1820   31.5460 N.am   43  TYR43      -0.1962
     47  CA         4.0720  -50.0940   31.4660 C.3    43  TYR43       0.1771
     48  C          4.8040  -51.3470   31.9750 C.2    43  TYR43       0.2619
     49  O          5.9630  -51.2940   32.3930 O.2    43  TYR43      -0.2715
     50  CB         4.5860  -48.7820   32.0920 C.3    43  TYR43       0.0574
     51  CG         4.0300  -48.4190   33.4550 C.ar   43  TYR43      -0.0198
     52  CD1        4.7360  -48.7260   34.6150 C.ar   43  TYR43      -0.0009
     53  CD2        2.8200  -47.7330   33.5860 C.ar   43  TYR43      -0.0009
     54  CE1        4.2410  -48.3870   35.8710 C.ar   43  TYR43       0.0417
     55  CE2        2.3160  -47.3930   34.8420 C.ar   43  TYR43       0.0417
     56  CZ         3.0350  -47.7260   35.9780 C.ar   43  TYR43       0.1957
     57  OH         2.5690  -47.4010   37.2280 O.3    43  TYR43      -0.2866
     58  N          4.1040  -52.4760   31.9290 N.am   44  LYS44      -0.1963
     59  CA         4.7050  -53.7840   32.1650 C.3    44  LYS44       0.1728
     60  C          4.8650  -54.4920   30.8220 C.2    44  LYS44       0.2616
     61  O          5.4400  -55.5890   30.7240 O.2    44  LYS44      -0.2715
     62  CB         3.8550  -54.6080   33.1270 C.3    44  LYS44       0.0311
     63  CG         3.8900  -54.1330   34.5790 C.3    44  LYS44       0.0038
     64  CD         5.2290  -54.3930   35.2760 C.3    44  LYS44       0.0206
     65  CE         5.1440  -53.9860   36.7420 C.3    44  LYS44       0.1093
     66  NZ         6.4440  -53.9820   37.4790 N.3    44  LYS44      -0.1314
     67  N          4.3390  -53.8370   29.7900 N.am   45  ALA45      -0.1963
     68  CA         4.5380  -54.2270   28.4030 C.3    45  ALA45       0.1728
     69  C          5.4090  -53.1910   27.7010 C.2    45  ALA45       0.2616
     70  O          5.3800  -52.0060   28.0530 O.2    45  ALA45      -0.2715
     71  CB         3.2140  -54.3530   27.6950 C.3    45  ALA45       0.0334
     72  N          6.1800  -53.6400   26.7110 N.am   46  ASP46      -0.1957
     73  CA         7.0130  -52.7400   25.9240 C.3    46  ASP46       0.1840
     74  C          6.1250  -51.7510   25.1860 C.2    46  ASP46       0.2622
     75  O          6.5230  -50.6020   24.9450 O.2    46  ASP46      -0.2715
     76  CB         7.8860  -53.5210   24.9410 C.3    46  ASP46       0.1450
     77  CG         8.8510  -54.4760   25.6380 C.2    46  ASP46       0.3671
     78  OD1        8.7880  -55.6930   25.3460 O.co2  46  ASP46      -0.2456
     79  OD2        9.6660  -54.0110   26.4710 O.co2  46  ASP46      -0.2456
     80  N          4.9120  -52.2020   24.8560 N.am   47  GLU47      -0.1963
     81  CA         3.9240  -51.3820   24.1600 C.3    47  GLU47       0.1733
     82  C          2.5470  -51.4700   24.8010 C.2    47  GLU47       0.2617
     83  O          2.2030  -52.4670   25.4250 O.2    47  GLU47      -0.2715
     84  CB         3.8120  -51.8010   22.6970 C.3    47  GLU47       0.0429
     85  CG         5.0980  -52.3010   22.0780 C.3    47  GLU47       0.1163
     86  CD         5.2260  -51.8840   20.6420 C.2    47  GLU47       0.3649
     87  OE1        5.0520  -52.7400   19.7490 O.co2  47  GLU47      -0.2457
     88  OE2        5.4830  -50.6850   20.4150 O.co2  47  GLU47      -0.2457
     89  N          1.7600  -50.4120   24.6330 N.am   48  SER48      -0.1950
     90  CA         0.3540  -50.4030   25.0440 C.3    48  SER48       0.1924
     91  C         -0.4370  -49.3290   24.3000 C.2    48  SER48       0.2314
     92  O         -0.0340  -48.1640   24.2610 O.2    48  SER48      -0.2863
     93  CB         0.2110  -50.2540   26.5670 C.3    48  SER48       0.2116
     94  OG         1.3520  -49.6440   27.1370 O.3    48  SER48      -0.2180
@<TRIPOS>BOND
     1    87    86   ar
     2    88    86   ar
     3    86    85    1
     4    85    84    1
     5    84    81    1
     6    81    82    1
     7    81    80    1
     8    92    91    2
     9    91    90    1
    10    31    30    2
    11    89    82   am
    12    89    90    1
    13    82    83    2
    14    28    29    1
    15    30    29    1
    16    80    74   am
    17    76    77    1
    18    76    73    1
    19    75    74    2
    20    90    93    1
    21    74    73    1
    22    78    77   ar
    23    29    32    1
    24    77    79   ar
    25    73    72    1
    26    93    94    1
    27    72    69   am
    28    32    33    1
    29    32    34    1
    30    71    68    1
    31    69    70    2
    32    69    68    1
    33    10    11   ar
    34    10     8   ar
    35    45    43    1
    36    68    67    1
    37    11     9   ar
    38     8     6   ar
    39    42    43    2
    40    42    41    1
    41    43    44    1
    42    24    23    1
    43    24    25    1
    44    24    27    1
    45    38    37    2
    46    26    25    2
    47    67    60   am
    48     9     7   ar
    49     6     7   ar
    50     6     5    1
    51    41    40    1
    52    40    39    1
    53    37    36    1
    54    37    46   am
    55    36    39    1
    56    36    35    1
    57     2     5    1
    58     2     1    1
    59     2     3    1
    60    61    60    2
    61     4     3    2
    62    60    59    1
    63     3    12   am
    64    47    46    1
    65    47    48    1
    66    47    50    1
    67    58    48   am
    68    58    59    1
    69    48    49    2
    70    50    51    1
    71    59    62    1
    72    15    14    2
    73    12    13    1
    74    14    13    1
    75    62    63    1
    76    51    53   ar
    77    51    52   ar
    78    13    16    1
    79    53    55   ar
    80    63    64    1
    81    52    54   ar
    82    55    56   ar
    83    16    17    1
    84    64    65    1
    85    17    18    1
    86    54    56   ar
    87    56    57    1
    88    65    66    1
    89    18    19    1
    90    19    20    2
    91    20    21    1
    92    20    22    1
