@<TRIPOS>MOLECULE
tmp/3ho8C02.pdb
 123 120 0 0 0
SMALL
GASTEIGER

@<TRIPOS>ATOM
      1  N         -6.7790  -34.1580   61.3250 N.3   406  TYR406     -0.1241
      2  CA        -7.0940  -33.0980   62.2790 C.3   406  TYR406      0.1605
      3  C         -6.1620  -31.9360   62.0470 C.2   406  TYR406      0.2264
      4  O         -6.5630  -30.7640   62.1170 O.2   406  TYR406     -0.2867
      5  CB        -6.9700  -33.5850   63.7300 C.3   406  TYR406      0.0534
      6  CG        -7.1530  -32.4730   64.7490 C.ar  406  TYR406     -0.0201
      7  CD1       -6.1440  -31.5400   64.9790 C.ar  406  TYR406     -0.0009
      8  CD2       -8.3460  -32.3380   65.4720 C.ar  406  TYR406     -0.0009
      9  CE1       -6.3110  -30.5130   65.8900 C.ar  406  TYR406      0.0417
     10  CE2       -8.5150  -31.3050   66.4020 C.ar  406  TYR406      0.0417
     11  CZ        -7.4880  -30.4010   66.5960 C.ar  406  TYR406      0.1957
     12  OH        -7.6200  -29.3770   67.4980 O.3   406  TYR406     -0.2866
     13  N         -7.5390  -30.2190   58.9200 N.3   409  ASN409     -0.1225
     14  CA        -8.7130  -29.3970   59.1380 C.3   409  ASN409      0.1785
     15  C         -8.3710  -28.1150   59.8890 C.2   409  ASN409      0.2597
     16  O         -8.6210  -27.0040   59.3920 O.2   409  ASN409     -0.2718
     17  CB        -9.7850  -30.1880   59.8830 C.3   409  ASN409      0.1169
     18  CG       -11.1640  -29.6020   59.7060 C.2   409  ASN409      0.2627
     19  OD1      -11.8910  -29.3930   60.6760 O.2   409  ASN409     -0.2716
     20  ND2      -11.5350  -29.3330   58.4660 N.am  409  ASN409     -0.0877
     21  N         -7.7700  -28.2850   61.0670 N.am  410  VAL410     -0.1980
     22  CA        -7.3780  -27.1600   61.9010 C.3   410  VAL410      0.1595
     23  C         -6.3780  -26.2210   61.2180 C.2   410  VAL410      0.2287
     24  O         -6.4810  -25.0050   61.3700 O.2   410  VAL410     -0.2864
     25  CB        -6.8680  -27.6360   63.2740 C.3   410  VAL410      0.0276
     26  CG1       -6.0830  -26.5500   63.9840 C.3   410  VAL410      0.0022
     27  CG2       -8.0500  -28.0950   64.1280 C.3   410  VAL410      0.0022
     28  N         -8.8800  -24.4190   58.3450 N.3   413  ASN413     -0.1225
     29  CA       -10.0980  -23.7760   58.8200 C.3   413  ASN413      0.1785
     30  C         -9.9950  -23.2860   60.2570 C.2   413  ASN413      0.2598
     31  O        -11.0050  -22.9920   60.9020 O.2   413  ASN413     -0.2718
     32  CB       -11.2860  -24.7250   58.6600 C.3   413  ASN413      0.1169
     33  CG       -11.4630  -25.2020   57.2280 C.2   413  ASN413      0.2627
     34  OD1      -11.6130  -24.3970   56.2920 O.2   413  ASN413     -0.2716
     35  ND2      -11.4480  -26.5190   57.0470 N.am  413  ASN413     -0.0877
     36  N         -8.7680  -23.2110   60.7610 N.am  414  GLY414     -0.1942
     37  CA        -8.5070  -22.6860   62.0930 C.3   414  GLY414      0.2014
     38  C         -9.2310  -23.4570   63.1650 C.2   414  GLY414      0.2639
     39  O         -9.7810  -24.5250   62.9130 O.2   414  GLY414     -0.2714
     40  N         -9.2380  -22.8950   64.3660 N.am  415  PHE415     -0.1960
     41  CA        -9.7820  -23.5450   65.5370 C.3   415  PHE415      0.1756
     42  C        -10.7510  -22.5650   66.1850 C.2   415  PHE415      0.2461
     43  O        -10.6050  -21.3620   66.0130 O.2   415  PHE415     -0.2730
     44  CB        -8.6220  -23.8340   66.4790 C.3   415  PHE415      0.0574
     45  CG        -8.9470  -24.7880   67.5830 C.ar  415  PHE415     -0.0200
     46  CD1       -8.7250  -26.1450   67.4260 C.ar  415  PHE415     -0.0042
     47  CD2       -9.4520  -24.3260   68.7880 C.ar  415  PHE415     -0.0042
     48  CE1       -9.0170  -27.0230   68.4380 C.ar  415  PHE415     -0.0003
     49  CE2       -9.7480  -25.1900   69.8140 C.ar  415  PHE415     -0.0003
     50  CZ        -9.5230  -26.5420   69.6480 C.ar  415  PHE415     -0.0000
     51  N        -11.7550  -23.0710   66.9200 N.am  416  PRO416     -0.2727
     52  CA       -12.6840  -22.2320   67.7040 C.3   416  PRO416      0.1402
     53  C        -12.0340  -21.3630   68.7880 C.2   416  PRO416      0.2269
     54  O        -11.3340  -21.8740   69.6520 O.2   416  PRO416     -0.2865
     55  CB       -13.6050  -23.2620   68.3620 C.3   416  PRO416      0.0296
     56  CG       -13.6150  -24.4110   67.3930 C.3   416  PRO416      0.0237
     57  CD       -12.2220  -24.4700   66.8330 C.3   416  PRO416      0.0939
     58  N        -16.3910  -31.0310   75.5910 N.3   521  ASN521     -0.1225
     59  CA       -16.9800  -30.1730   74.5750 C.3   521  ASN521      0.1785
     60  C        -15.9400  -29.3970   73.7680 C.2   521  ASN521      0.2597
     61  O        -15.8650  -29.5420   72.5380 O.2   521  ASN521     -0.2718
     62  CB       -18.0170  -29.2440   75.2290 C.3   521  ASN521      0.1169
     63  CG       -18.7850  -28.4040   74.2330 C.2   521  ASN521      0.2627
     64  OD1      -18.9940  -27.2280   74.4730 O.2   521  ASN521     -0.2716
     65  ND2      -19.2180  -28.9980   73.1230 N.am  521  ASN521     -0.0877
     66  N        -15.1380  -28.5830   74.4490 N.am  522  PHE522     -0.1976
     67  CA       -14.2140  -27.7010   73.7410 C.3   522  PHE522      0.1639
     68  C        -12.8860  -28.3720   73.4150 C.2   522  PHE522      0.2290
     69  O        -12.4020  -28.2810   72.2770 O.2   522  PHE522     -0.2864
     70  CB       -14.0010  -26.3740   74.4840 C.3   522  PHE522      0.0560
     71  CG       -15.2500  -25.5470   74.6210 C.ar  522  PHE522     -0.0200
     72  CD1      -15.7470  -25.2240   75.8790 C.ar  522  PHE522     -0.0042
     73  CD2      -15.9320  -25.0950   73.4900 C.ar  522  PHE522     -0.0042
     74  CE1      -16.8980  -24.4650   76.0150 C.ar  522  PHE522     -0.0003
     75  CE2      -17.0980  -24.3280   73.6150 C.ar  522  PHE522     -0.0003
     76  CZ       -17.5780  -24.0160   74.8840 C.ar  522  PHE522     -0.0000
     77  N        -12.4320  -31.5460   73.4390 N.3   524  LYS524     -0.1245
     78  CA       -12.7890  -32.8520   72.8480 C.3   524  LYS524      0.1561
     79  C        -12.0070  -34.0450   73.4130 C.2   524  LYS524      0.2260
     80  O        -11.5560  -34.9000   72.6630 O.2   524  LYS524     -0.2867
     81  CB       -12.7020  -32.7920   71.3270 C.3   524  LYS524      0.0271
     82  CG       -13.7290  -31.8740   70.7120 C.3   524  LYS524      0.0035
     83  CD       -15.1140  -32.5320   70.6620 C.3   524  LYS524      0.0206
     84  CE       -16.1340  -31.6430   69.9690 C.3   524  LYS524      0.1093
     85  NZ       -17.4850  -31.9240   70.5050 N.3   524  LYS524     -0.1314
     86  N        -16.4580  -37.1160   67.6230 N.3   925  THR925     -0.1218
     87  CA       -15.0790  -36.7090   67.3360 C.3   925  THR925      0.1862
     88  C        -14.0680  -37.8620   67.5160 C.2   925  THR925      0.2287
     89  O        -13.1030  -37.9570   66.7680 O.2   925  THR925     -0.2866
     90  CB       -14.7080  -35.4410   68.1450 C.3   925  THR925      0.1770
     91  OG1      -15.7120  -34.4560   67.9110 O.3   925  THR925     -0.2211
     92  CG2      -13.3620  -34.8450   67.7280 C.3   925  THR925      0.0375
     93  N        -11.4850  -38.6940   64.7770 N.3   929  TYR929     -0.1241
     94  CA       -10.1500  -38.1600   64.9390 C.3   929  TYR929      0.1605
     95  C         -9.3140  -38.9280   65.9440 C.2   929  TYR929      0.2264
     96  O         -8.1020  -38.7610   65.9770 O.2   929  TYR929     -0.2867
     97  CB       -10.1950  -36.6580   65.3040 C.3   929  TYR929      0.0534
     98  CG       -10.5570  -35.6810   64.1770 C.ar  929  TYR929     -0.0201
     99  CD1      -11.2090  -34.4800   64.4660 C.ar  929  TYR929     -0.0009
    100  CD2      -10.2410  -35.9490   62.8360 C.ar  929  TYR929     -0.0009
    101  CE1      -11.5320  -33.5700   63.4660 C.ar  929  TYR929      0.0417
    102  CE2      -10.5690  -35.0420   61.8150 C.ar  929  TYR929      0.0417
    103  CZ       -11.2140  -33.8540   62.1390 C.ar  929  TYR929      0.1957
    104  OH       -11.5420  -32.9380   61.1580 O.3   929  TYR929     -0.2866
    105  N         -7.5130  -37.3280   70.6130 N.3   932  LEU932     -0.1245
    106  CA        -6.8900  -36.0450   70.3360 C.3   932  LEU932      0.1561
    107  C         -6.0580  -35.5370   71.4980 C.2   932  LEU932      0.2260
    108  O         -4.9940  -34.9540   71.2890 O.2   932  LEU932     -0.2867
    109  CB        -7.9270  -35.0170   69.9150 C.3   932  LEU932      0.0270
    110  CG        -8.4600  -35.2430   68.5020 C.3   932  LEU932      0.0019
    111  CD1       -9.7160  -34.4430   68.2880 C.3   932  LEU932      0.0001
    112  CD2       -7.4110  -34.9120   67.4570 C.3   932  LEU932      0.0001
    113  N         -2.4740  -29.0370   68.4240 N.3   940  PHE940     -0.1241
    114  CA        -3.9150  -29.0650   68.6630 C.3   940  PHE940      0.1605
    115  C         -4.5830  -27.8140   68.1210 C.2   940  PHE940      0.2264
    116  O         -5.5120  -27.8950   67.3170 O.2   940  PHE940     -0.2867
    117  CB        -4.1890  -29.2010   70.1690 C.3   940  PHE940      0.0534
    118  CG        -5.6310  -29.4920   70.5160 C.ar  940  PHE940     -0.0203
    119  CD1       -6.2450  -30.6690   70.0950 C.ar  940  PHE940     -0.0042
    120  CD2       -6.3640  -28.5980   71.2920 C.ar  940  PHE940     -0.0042
    121  CE1       -7.5690  -30.9360   70.4350 C.ar  940  PHE940     -0.0003
    122  CE2       -7.6920  -28.8610   71.6330 C.ar  940  PHE940     -0.0003
    123  CZ        -8.2930  -30.0270   71.2100 C.ar  940  PHE940     -0.0000
@<TRIPOS>BOND
     1    34    33    2
     2    35    33   am
     3    33    32    1
     4    28    29    1
     5    20    18   am
     6    32    29    1
     7    29    30    1
     8    13    14    1
     9    14    17    1
    10    14    15    1
    11    16    15    2
    12    18    17    1
    13    18    19    2
    14    15    21   am
    15    30    36   am
    16    30    31    2
    17    36    37    1
    18    21    22    1
    19   104   103    1
    20    23    24    2
    21    23    22    1
    22     1     2    1
    23   102   103   ar
    24   102   100   ar
    25    22    25    1
    26     3     4    2
    27     3     2    1
    28    37    38    1
    29   103   101   ar
    30     2     5    1
    31   100    98   ar
    32    39    38    2
    33    38    40   am
    34    25    26    1
    35    25    27    1
    36   101    99   ar
    37     5     6    1
    38    98    99   ar
    39    98    97    1
    40    40    41    1
    41     6     7   ar
    42     6     8   ar
    43    93    94    1
    44    94    97    1
    45    94    95    1
    46     7     9   ar
    47     8    10   ar
    48    41    42    1
    49    41    44    1
    50     9    11   ar
    51    95    96    2
    52    43    42    2
    53    42    51   am
    54    10    11   ar
    55    44    45    1
    56    11    12    1
    57    89    88    2
    58    57    51    1
    59    57    56    1
    60    51    52    1
    61   116   115    2
    62    87    88    1
    63    87    86    1
    64    87    90    1
    65    56    55    1
    66    46    45   ar
    67    46    48   ar
    68   112   110    1
    69    45    47   ar
    70    52    55    1
    71    52    53    1
    72    92    90    1
    73    91    90    1
    74   115   114    1
    75   111   110    1
    76   113   114    1
    77    48    50   ar
    78   110   109    1
    79   114   117    1
    80    47    49   ar
    81    53    54    2
    82    50    49   ar
    83   109   106    1
    84    84    85    1
    85    84    83    1
    86   119   121   ar
    87   119   118   ar
    88   117   118    1
    89   106   105    1
    90   106   107    1
    91   121   123   ar
    92   118   120   ar
    93    83    82    1
    94    82    81    1
    95   123   122   ar
    96   108   107    2
    97   120   122   ar
    98    81    78    1
    99    69    68    2
   100    61    60    2
   101    80    79    2
   102    78    79    1
   103    78    77    1
   104    65    63   am
   105    68    67    1
   106    73    75   ar
   107    73    71   ar
   108    75    76   ar
   109    67    66    1
   110    67    70    1
   111    60    66   am
   112    60    59    1
   113    63    64    2
   114    63    62    1
   115    70    71    1
   116    59    62    1
   117    59    58    1
   118    71    72   ar
   119    76    74   ar
   120    72    74   ar
