@<TRIPOS>MOLECULE
tmp/3ho8C01.pdb
 180 169 0 0 0
SMALL
GASTEIGER

@<TRIPOS>ATOM
      1  N         -2.6070  -44.7620   51.0800 N.3   299  ALA299     -0.1245
      2  CA        -1.4220  -45.3950   51.6850 C.3   299  ALA299      0.1562
      3  C         -1.3710  -46.8910   51.3840 C.2   299  ALA299      0.2260
      4  O         -2.3550  -47.6050   51.6210 O.2   299  ALA299     -0.2867
      5  CB        -1.4040  -45.1650   53.1870 C.3   299  ALA299      0.0290
      6  N          1.4070  -50.1900   51.7430 N.3   301  ARG301     -0.1245
      7  CA         2.6430  -50.9520   52.0440 C.3   301  ARG301      0.1563
      8  C          2.3800  -52.4360   51.8860 C.2   301  ARG301      0.2260
      9  O          1.3120  -52.9210   52.2950 O.2   301  ARG301     -0.2867
     10  CB         3.0590  -50.7600   53.4930 C.3   301  ARG301      0.0307
     11  CG         3.9810  -49.6300   53.7710 C.3   301  ARG301      0.0489
     12  CD         4.5230  -49.7070   55.2020 C.3   301  ARG301      0.2205
     13  NE         3.5190  -50.0280   56.2190 N.pl3 301  ARG301     -0.0865
     14  CZ         2.7390  -49.1430   56.8320 C.cat 301  ARG301      0.5346
     15  NH1        2.8160  -47.8580   56.5260 N.pl3 301  ARG301      0.1354
     16  NH2        1.8720  -49.5440   57.7510 N.pl3 301  ARG301      0.1354
     17  N          0.5470  -63.1840   59.4970 N.3   348  ARG348     -0.1245
     18  CA         1.5240  -62.1350   59.7070 C.3   348  ARG348      0.1563
     19  C          1.5010  -61.2540   58.4670 C.2   348  ARG348      0.2260
     20  O          1.2690  -60.0470   58.5540 O.2   348  ARG348     -0.2867
     21  CB         2.9060  -62.7630   59.8720 C.3   348  ARG348      0.0307
     22  CG         3.9190  -61.9970   60.7390 C.3   348  ARG348      0.0489
     23  CD         4.6700  -60.8230   60.0630 C.3   348  ARG348      0.2205
     24  NE         4.6680  -60.8140   58.5990 N.pl3 348  ARG348     -0.0865
     25  CZ         5.4040  -61.5910   57.8040 C.cat 348  ARG348      0.5346
     26  NH1        6.2300  -62.5110   58.2930 N.pl3 348  ARG348      0.1354
     27  NH2        5.2920  -61.4560   56.4910 N.pl3 348  ARG348      0.1354
     28  N         -1.4410  -58.9040   58.3220 N.3   351  ARG351     -0.1231
     29  CA        -1.3610  -57.8220   59.2830 C.3   351  ARG351      0.1694
     30  C         -0.2620  -56.8440   58.8760 C.2   351  ARG351      0.2591
     31  O         -0.3550  -55.6560   59.1650 O.2   351  ARG351     -0.2718
     32  CB        -1.1240  -58.3550   60.7000 C.3   351  ARG351      0.0321
     33  CG        -2.3380  -59.0440   61.3360 C.3   351  ARG351      0.0489
     34  CD        -2.2930  -59.0670   62.8730 C.3   351  ARG351      0.2205
     35  NE        -3.1750  -60.1190   63.3930 N.pl3 351  ARG351     -0.0865
     36  CZ        -2.7630  -61.2750   63.9320 C.cat 351  ARG351      0.5346
     37  NH1       -1.4640  -61.5420   64.0630 N.pl3 351  ARG351      0.1354
     38  NH2       -3.6510  -62.1700   64.3640 N.pl3 351  ARG351      0.1354
     39  N          0.7700  -57.3260   58.1930 N.am  352  GLU352     -0.1979
     40  CA         1.8600  -56.4480   57.7930 C.3   352  GLU352      0.1602
     41  C          1.4350  -55.5990   56.6170 C.2   352  GLU352      0.2287
     42  O          1.8670  -54.4450   56.5000 O.2   352  GLU352     -0.2864
     43  CB         3.1270  -57.2290   57.4420 C.3   352  GLU352      0.0415
     44  CG         4.3160  -56.3290   57.1240 C.3   352  GLU352      0.1163
     45  CD         5.6000  -57.0860   56.8460 C.2   352  GLU352      0.3649
     46  OE1        6.4090  -56.5940   56.0370 O.co2 352  GLU352     -0.2457
     47  OE2        5.8190  -58.1680   57.4300 O.co2 352  GLU352     -0.2457
     48  N         -0.5700  -53.0960   54.4470 N.3   354  ARG354     -0.1245
     49  CA        -1.2670  -51.8690   54.8250 C.3   354  ARG354      0.1563
     50  C         -1.9020  -51.1420   53.6450 C.2   354  ARG354      0.2260
     51  O         -1.2360  -50.8530   52.6490 O.2   354  ARG354     -0.2867
     52  CB        -0.3520  -50.9390   55.6150 C.3   354  ARG354      0.0307
     53  CG        -1.0990  -50.0410   56.5840 C.3   354  ARG354      0.0489
     54  CD        -1.9830  -50.8120   57.5830 C.3   354  ARG354      0.2205
     55  NE        -1.3080  -51.9830   58.1450 N.pl3 354  ARG354     -0.0865
     56  CZ        -0.2840  -51.9360   58.9950 C.cat 354  ARG354      0.5346
     57  NH1        0.2130  -50.7700   59.3850 N.pl3 354  ARG354      0.1354
     58  NH2        0.2510  -53.0630   59.4490 N.pl3 354  ARG354      0.1354
     59  N         -4.7240  -47.9180   53.0030 N.3   356  ARG356     -0.1245
     60  CA        -5.6060  -46.8360   53.4540 C.3   356  ARG356      0.1563
     61  C         -6.2680  -46.0920   52.2900 C.2   356  ARG356      0.2260
     62  O         -5.7090  -45.9980   51.1880 O.2   356  ARG356     -0.2867
     63  CB        -4.8440  -45.8300   54.3250 C.3   356  ARG356      0.0307
     64  CG        -3.9770  -46.4140   55.4510 C.3   356  ARG356      0.0489
     65  CD        -4.7530  -47.2710   56.4170 C.3   356  ARG356      0.2205
     66  NE        -4.0000  -47.4980   57.6410 N.pl3 356  ARG356     -0.0865
     67  CZ        -4.4610  -48.1740   58.6930 C.cat 356  ARG356      0.5346
     68  NH1       -5.6760  -48.7210   58.6780 N.pl3 356  ARG356      0.1354
     69  NH2       -3.6980  -48.3120   59.7690 N.pl3 356  ARG356      0.1354
     70  N         -9.6440  -51.1920   62.3890 N.3   396  SER396     -0.1202
     71  CA        -8.3320  -50.5560   62.4800 C.3   396  SER396      0.2020
     72  C         -8.4900  -49.2510   63.2430 C.2   396  SER396      0.2619
     73  O         -9.4620  -48.5160   63.0330 O.2   396  SER396     -0.2717
     74  CB        -7.7990  -50.2270   61.0980 C.3   396  SER396      0.2103
     75  OG        -7.8160  -48.8290   60.9020 O.3   396  SER396     -0.2182
     76  N         -7.5480  -48.9540   64.1260 N.am  397  LEU397     -0.1965
     77  CA        -7.6000  -47.6900   64.8410 C.3   397  LEU397      0.1728
     78  C         -7.3550  -46.5340   63.8870 C.2   397  LEU397      0.2616
     79  O         -8.0370  -45.5130   63.9840 O.2   397  LEU397     -0.2715
     80  CB        -6.6380  -47.6710   66.0260 C.3   397  LEU397      0.0311
     81  CG        -7.2730  -47.8970   67.3990 C.3   397  LEU397      0.0022
     82  CD1       -8.2950  -49.0080   67.4070 C.3   397  LEU397      0.0001
     83  CD2       -6.1850  -48.1750   68.3970 C.3   397  LEU397      0.0001
     84  N         -6.4120  -46.7090   62.9560 N.am  398  ASP398     -0.1957
     85  CA        -6.1730  -45.7430   61.8720 C.3   398  ASP398      0.1840
     86  C         -5.7780  -44.4090   62.4810 C.2   398  ASP398      0.2622
     87  O         -6.3600  -43.3740   62.1670 O.2   398  ASP398     -0.2715
     88  CB        -7.4280  -45.6070   60.9690 C.3   398  ASP398      0.1450
     89  CG        -7.1970  -44.7420   59.7120 C.2   398  ASP398      0.3671
     90  OD1       -6.3560  -45.0920   58.8500 O.co2 398  ASP398     -0.2456
     91  OD2       -7.8980  -43.7130   59.5670 O.co2 398  ASP398     -0.2456
     92  N         -4.7890  -44.4450   63.3700 N.am  399  ARG399     -0.1963
     93  CA        -4.4100  -43.2530   64.1150 C.3   399  ARG399      0.1729
     94  C         -3.5900  -42.2920   63.2310 C.2   399  ARG399      0.2617
     95  O         -3.6630  -41.0610   63.3820 O.2   399  ARG399     -0.2715
     96  CB        -3.6710  -43.6190   65.4120 C.3   399  ARG399      0.0348
     97  CG        -4.4100  -44.5830   66.3790 C.3   399  ARG399      0.0492
     98  CD        -3.5740  -44.7550   67.6470 C.3   399  ARG399      0.2205
     99  NE        -3.7140  -46.0630   68.2980 N.pl3 399  ARG399     -0.0865
    100  CZ        -2.7280  -46.9470   68.4900 C.cat 399  ARG399      0.5346
    101  NH1       -1.4960  -46.6970   68.0840 N.pl3 399  ARG399      0.1354
    102  NH2       -2.9740  -48.1040   69.0970 N.pl3 399  ARG399      0.1354
    103  N         -2.8350  -42.8590   62.2890 N.am  400  GLY400     -0.1940
    104  CA        -2.0500  -42.0710   61.3510 C.3   400  GLY400      0.2014
    105  C         -2.9350  -41.1200   60.5830 C.2   400  GLY400      0.2639
    106  O         -2.9460  -39.9240   60.8610 O.2   400  GLY400     -0.2714
    107  N         -3.7040  -41.6620   59.6410 N.am  401  THR401     -0.1950
    108  CA        -4.6260  -40.8700   58.8230 C.3   401  THR401      0.1897
    109  C         -5.3800  -39.8200   59.6550 C.2   401  THR401      0.2313
    110  O         -5.3470  -38.6350   59.3250 O.2   401  THR401     -0.2863
    111  CB        -5.6210  -41.7710   58.0610 C.3   401  THR401      0.1794
    112  OG1       -4.9920  -43.0110   57.7300 O.3   401  THR401     -0.2208
    113  CG2       -6.0860  -41.1040   56.7680 C.3   401  THR401      0.0378
    114  N          1.1290  -41.5880   69.7600 N.3   954  ILE954     -0.1245
    115  CA        -0.1780  -42.2060   69.7750 C.3   954  ILE954      0.1561
    116  C         -0.2590  -43.2800   70.8570 C.2   954  ILE954      0.2260
    117  O         -1.3530  -43.5850   71.3300 O.2   954  ILE954     -0.2867
    118  CB        -0.5380  -42.7670   68.3990 C.3   954  ILE954      0.0252
    119  CG1        0.3530  -43.9740   68.0570 C.3   954  ILE954      0.0019
    120  CG2       -0.4480  -41.6460   67.3640 C.3   954  ILE954      0.0019
    121  CD1        0.0850  -44.6310   66.6910 C.3   954  ILE954      0.0001
    122  N          5.9920  -45.6520   72.6030 N.3   957  GLY957     -0.1210
    123  CA         6.8400  -46.3120   71.6210 C.3   957  GLY957      0.1956
    124  C          6.4230  -46.0590   70.1900 C.2   957  GLY957      0.2612
    125  O          7.1940  -46.2830   69.2670 O.2   957  GLY957     -0.2717
    126  N          5.1930  -45.6040   70.0010 N.am  958  LYS958     -0.1965
    127  CA         4.6930  -45.3070   68.6660 C.3   958  LYS958      0.1728
    128  C          4.5420  -43.8000   68.5030 C.2   958  LYS958      0.2616
    129  O          3.4690  -43.2580   68.7250 O.2   958  LYS958     -0.2715
    130  CB         3.3510  -46.0090   68.4190 C.3   958  LYS958      0.0311
    131  CG         3.4670  -47.5000   68.1990 C.3   958  LYS958      0.0038
    132  CD         2.1380  -48.2550   68.3370 C.3   958  LYS958      0.0206
    133  CE         2.1460  -49.4540   67.3840 C.3   958  LYS958      0.1093
    134  NZ         1.5340  -50.7270   67.8770 N.3   958  LYS958     -0.1314
    135  N          5.6260  -43.1210   68.1380 N.am  959  ARG959     -0.1963
    136  CA         5.5390  -41.7120   67.7600 C.3   959  ARG959      0.1729
    137  C          5.7750  -41.4930   66.2640 C.2   959  ARG959      0.2616
    138  O          6.7430  -42.0190   65.7030 O.2   959  ARG959     -0.2715
    139  CB         6.4260  -40.8050   68.6320 C.3   959  ARG959      0.0348
    140  CG         7.6860  -41.4070   69.2230 C.3   959  ARG959      0.0492
    141  CD         8.1750  -40.5450   70.3930 C.3   959  ARG959      0.2205
    142  NE         8.6330  -39.2370   69.9210 N.pl3 959  ARG959     -0.0865
    143  CZ         8.5100  -38.0800   70.5790 C.cat 959  ARG959      0.5346
    144  NH1        7.9200  -38.0200   71.7840 N.pl3 959  ARG959      0.1354
    145  NH2        8.9880  -36.9690   70.0210 N.pl3 959  ARG959      0.1354
    146  N          4.8800  -40.7250   65.6310 N.am  960  LEU960     -0.1977
    147  CA         4.8770  -40.5560   64.1670 C.3   960  LEU960      0.1596
    148  C          5.5290  -39.2410   63.7820 C.2   960  LEU960      0.2287
    149  O          5.1960  -38.2000   64.3350 O.2   960  LEU960     -0.2864
    150  CB         3.4520  -40.5760   63.5970 C.3   960  LEU960      0.0297
    151  CG         2.2800  -41.0220   64.4730 C.3   960  LEU960      0.0022
    152  CD1        1.0200  -40.2690   64.0970 C.3   960  LEU960      0.0001
    153  CD2        2.0620  -42.5210   64.3750 C.3   960  LEU960      0.0001
    154  N          4.7930  -38.9030   56.5330 N.3   982  MET982     -0.1230
    155  CA         4.6760  -39.5720   57.8200 C.3   982  MET982      0.1702
    156  C          5.6130  -40.7720   57.9000 C.2   982  MET982      0.2592
    157  O          5.5510  -41.6680   57.0640 O.2   982  MET982     -0.2718
    158  CB         3.2420  -40.0280   58.0460 C.3   982  MET982      0.0401
    159  CG         2.9520  -40.4070   59.4680 C.3   982  MET982      0.0596
    160  SD         1.1850  -40.5700   59.6750 S.3   982  MET982     -0.1393
    161  CE         0.9500  -42.2500   59.1130 C.3   982  MET982      0.0692
    162  N          6.4660  -40.7900   58.9250 N.am  983  ASN983     -0.1974
    163  CA         7.5610  -41.7540   59.0150 C.3   983  ASN983      0.1688
    164  C          8.2030  -41.9910   57.6490 C.2   983  ASN983      0.2292
    165  O          8.2300  -43.1070   57.1600 O.2   983  ASN983     -0.2864
    166  CB         7.0700  -43.0710   59.6290 C.3   983  ASN983      0.1181
    167  CG         6.6900  -42.9410   61.1040 C.2   983  ASN983      0.2629
    168  OD1        7.0900  -41.9930   61.7940 O.2   983  ASN983     -0.2716
    169  ND2        5.9150  -43.9180   61.5970 N.am  983  ASN983     -0.0877
    170  N          2.1360  -39.0840   52.0980 N.3   987  ARG987     -0.1245
    171  CA         0.7190  -39.3100   52.3440 C.3   987  ARG987      0.1563
    172  C         -0.0360  -38.0880   51.8250 C.2   987  ARG987      0.2260
    173  O          0.5590  -37.0190   51.6180 O.2   987  ARG987     -0.2867
    174  CB         0.4800  -39.5390   53.8400 C.3   987  ARG987      0.0307
    175  CG        -0.4820  -40.6680   54.1940 C.3   987  ARG987      0.0489
    176  CD        -0.0710  -42.0060   53.5780 C.3   987  ARG987      0.2205
    177  NE         0.9640  -42.7400   54.3190 N.pl3 987  ARG987     -0.0865
    178  CZ         0.7390  -43.5320   55.3700 C.cat 987  ARG987      0.5346
    179  NH1       -0.4940  -43.6890   55.8510 N.pl3 987  ARG987      0.1354
    180  NH2        1.7570  -44.1600   55.9540 N.pl3 987  ARG987      0.1354
@<TRIPOS>BOND
     1     1     2    1
     2    62    61    2
     3     3     4    2
     4     3     2    1
     5   173   172    2
     6     2     5    1
     7     6     7    1
     8   172   171    1
     9     8     7    1
    10     8     9    2
    11     7    10    1
    12   170   171    1
    13    61    60    1
    14   171   174    1
    15    51    50    2
    16    59    60    1
    17    60    63    1
    18    10    11    1
    19   176   175    1
    20   176   177    1
    21    50    49    1
    22    11    12    1
    23   174   175    1
    24   177   178    2
    25    63    64    1
    26    48    49    1
    27    49    52    1
    28    12    13    1
    29   178   179    1
    30   178   180    1
    31    64    65    1
    32    52    53    1
    33    46    45   ar
    34    13    14    2
    35    65    66    1
    36    27    25    1
    37    42    41    2
    38    15    14    1
    39   154   155    1
    40    53    54    1
    41    41    40    1
    42   113   111    1
    43    14    16    1
    44    45    44    1
    45    45    47   ar
    46   157   156    2
    47    44    43    1
    48   165   164    2
    49    43    40    1
    50    54    55    1
    51    66    67    2
    52   164   163    1
    53   112   111    1
    54    40    39    1
    55    25    26    1
    56    25    24    2
    57   155   156    1
    58   155   158    1
    59   156   162   am
    60   158   159    1
    61   111   108    1
    62    55    56    2
    63    39    30   am
    64    28    29    1
    65    19    20    2
    66    19    18    1
    67    24    23    1
    68    68    67    1
    69    67    69    1
    70   108   107    1
    71   108   109    1
    72    90    89   ar
    73    30    31    2
    74    30    29    1
    75   162   163    1
    76    56    57    1
    77    56    58    1
    78   163   166    1
    79   161   160    1
    80    29    32    1
    81   110   109    2
    82   159   160    1
    83    17    18    1
    84    91    89   ar
    85   166   167    1
    86   107   105   am
    87    18    21    1
    88    89    88    1
    89    21    22    1
    90    23    22    1
    91   105   106    2
    92   105   104    1
    93    32    33    1
    94    75    74    1
    95    88    85    1
    96    74    71    1
    97   167   169   am
    98   167   168    2
    99    33    34    1
   100   104   103    1
   101    85    86    1
   102    85    84    1
   103    87    86    2
   104   103    94   am
   105    70    71    1
   106    71    72    1
   107    86    92   am
   108    34    35    1
   109    84    78   am
   110    73    72    2
   111    94    95    2
   112    94    93    1
   113    72    76   am
   114    92    93    1
   115    35    36    2
   116   150   147    1
   117   150   151    1
   118   148   147    1
   119   148   149    2
   120    78    79    2
   121    78    77    1
   122    36    37    1
   123    36    38    1
   124   152   151    1
   125    93    96    1
   126    76    77    1
   127   147   146    1
   128   153   151    1
   129    77    80    1
   130    96    97    1
   131   146   137   am
   132   138   137    2
   133    80    81    1
   134   137   136    1
   135    97    98    1
   136   121   119    1
   137   120   118    1
   138   133   134    1
   139   133   132    1
   140    81    82    1
   141    81    83    1
   142    98    99    1
   143   136   135    1
   144   136   139    1
   145   119   118    1
   146   101   100    1
   147   135   128   am
   148   131   132    1
   149   131   130    1
   150    99   100    2
   151   118   115    1
   152   130   127    1
   153   100   102    1
   154   128   127    1
   155   128   129    2
   156   139   140    1
   157   127   126    1
   158   140   141    1
   159   125   124    2
   160   114   115    1
   161   115   116    1
   162   142   141    1
   163   142   143    2
   164   126   124   am
   165   145   143    1
   166   124   123    1
   167   143   144    1
   168   116   117    2
   169   123   122    1
