@<TRIPOS>MOLECULE
tmp/3hodA00.pdb
 205 196 0 0 0
SMALL
GASTEIGER

@<TRIPOS>ATOM
      1  N         26.1850   71.9230   10.8090 N.3    73  ILE73      -0.1245
      2  CA        25.4530   72.5130   11.9190 C.3    73  ILE73       0.1561
      3  C         23.9710   72.5980   11.5860 C.2    73  ILE73       0.2260
      4  O         23.1280   72.1990   12.3870 O.2    73  ILE73      -0.2867
      5  CB        25.9650   73.9310   12.2460 C.3    73  ILE73       0.0252
      6  CG1       27.4050   73.8630   12.7600 C.3    73  ILE73       0.0019
      7  CG2       25.0690   74.5790   13.2960 C.3    73  ILE73       0.0019
      8  CD1       27.5580   73.1350   14.0790 C.3    73  ILE73       0.0001
      9  N         22.1700   69.1950   11.7970 N.3    76  PHE76      -0.1227
     10  CA        21.9230   68.6770   13.1350 C.3    76  PHE76       0.1736
     11  C         20.9960   69.5390   13.9760 C.2    76  PHE76       0.2595
     12  O         20.4450   69.0800   14.9710 O.2    76  PHE76      -0.2718
     13  CB        23.2440   68.4260   13.8510 C.3    76  PHE76       0.0547
     14  CG        23.9370   67.1770   13.3960 C.ar   76  PHE76      -0.0202
     15  CD1       24.6000   67.1380   12.1730 C.ar   76  PHE76      -0.0042
     16  CD2       23.8870   66.0240   14.1700 C.ar   76  PHE76      -0.0042
     17  CE1       25.2060   65.9670   11.7270 C.ar   76  PHE76      -0.0003
     18  CE2       24.4880   64.8490   13.7330 C.ar   76  PHE76      -0.0003
     19  CZ        25.1490   64.8200   12.5080 C.ar   76  PHE76      -0.0000
     20  N         20.8270   70.7930   13.5790 N.am   77  GLN77      -0.1979
     21  CA        19.9120   71.6750   14.2800 C.3    77  GLN77       0.1601
     22  C         18.5350   71.1630   13.8720 C.2    77  GLN77       0.2287
     23  O         17.5790   71.2110   14.6450 O.2    77  GLN77      -0.2864
     24  CB        20.0990   73.1180   13.8120 C.3    77  GLN77       0.0394
     25  CG        21.4050   73.7460   14.2600 C.3    77  GLN77       0.0908
     26  CD        21.3380   74.2660   15.6800 C.2    77  GLN77       0.2608
     27  OE1       20.8390   73.5910   16.5790 O.2    77  GLN77      -0.2717
     28  NE2       21.8460   75.4740   15.8900 N.am   77  GLN77      -0.0878
     29  N         17.9830   67.9980   12.9620 N.3    79  CYS79      -0.1221
     30  CA        17.8710   66.6860   13.5870 C.3    79  CYS79       0.1808
     31  C         17.3940   66.8450   15.0320 C.2    79  CYS79       0.2601
     32  O         16.5750   66.0690   15.5230 O.2    79  CYS79      -0.2717
     33  CB        19.2340   65.9920   13.5690 C.3    79  CYS79       0.0970
     34  SG        19.2880   64.4020   14.4120 S.3    79  CYS79      -0.0800
     35  N         17.9150   67.8640   15.7020 N.am   80  GLN80      -0.1979
     36  CA        17.5520   68.1340   17.0820 C.3    80  GLN80       0.1601
     37  C         16.0570   68.4150   17.1560 C.2    80  GLN80       0.2287
     38  O         15.3750   67.9420   18.0680 O.2    80  GLN80      -0.2864
     39  CB        18.3600   69.3280   17.6060 C.3    80  GLN80       0.0394
     40  CG        18.1270   69.6620   19.0730 C.3    80  GLN80       0.0908
     41  CD        19.3270   70.3370   19.7230 C.2    80  GLN80       0.2608
     42  OE1       19.7400   71.4280   19.3270 O.2    80  GLN80      -0.2717
     43  NE2       19.8930   69.6810   20.7280 N.am   80  GLN80      -0.0878
     44  N         13.5780   67.4250   15.0510 N.3    82  ARG82      -0.1231
     45  CA        12.7850   66.2230   14.8220 C.3    82  ARG82       0.1694
     46  C         12.7670   65.3220   16.0540 C.2    82  ARG82       0.2592
     47  O         11.7390   64.7290   16.3730 O.2    82  ARG82      -0.2718
     48  CB        13.3280   65.4410   13.6200 C.3    82  ARG82       0.0321
     49  CG        13.2050   66.1770   12.2960 C.3    82  ARG82       0.0489
     50  CD        11.7470   66.3510   11.8860 C.3    82  ARG82       0.2205
     51  NE        11.6020   67.2050   10.7100 N.pl3  82  ARG82      -0.0865
     52  CZ        10.4430   67.4580   10.1090 C.cat  82  ARG82       0.5346
     53  NH1        9.3200   66.9170   10.5700 N.pl3  82  ARG82       0.1354
     54  NH2       10.4020   68.2620    9.0530 N.pl3  82  ARG82       0.1354
     55  N         13.8990   65.2170   16.7420 N.am   83  SER83      -0.1952
     56  CA        13.9700   64.3750   17.9320 C.3    83  SER83       0.1924
     57  C         13.0210   64.8850   19.0040 C.2    83  SER83       0.2314
     58  O         12.2730   64.1110   19.5830 O.2    83  SER83      -0.2863
     59  CB        15.3900   64.3400   18.4930 C.3    83  SER83       0.2116
     60  OG        16.3010   63.9720   17.4860 O.3    83  SER83      -0.2180
     61  N         14.9170   57.3530   23.6310 N.3   117  HIS117     -0.1241
     62  CA        15.8910   57.2050   22.5620 C.3   117  HIS117      0.1621
     63  C         15.9500   55.8140   21.9510 C.2   117  HIS117      0.2264
     64  O         16.2170   55.6760   20.7620 O.2   117  HIS117     -0.2867
     65  CB        17.2710   57.6750   23.0160 C.3   117  HIS117      0.0745
     66  CG        17.4220   59.1650   22.9800 C.ar  117  HIS117      0.0817
     67  ND1       17.0980   59.9740   24.0470 N.ar  117  HIS117     -0.2268
     68  CD2       17.7890   59.9960   21.9750 C.ar  117  HIS117      0.1154
     69  CE1       17.2570   61.2380   23.7040 C.ar  117  HIS117      0.1986
     70  NE2       17.6740   61.2800   22.4500 N.ar  117  HIS117     -0.2212
     71  N         13.1770   55.8620   19.4200 N.3   120  ILE120     -0.1231
     72  CA        13.5170   56.6770   18.2680 C.3   120  ILE120      0.1692
     73  C         14.3880   55.9400   17.2620 C.2   120  ILE120      0.2592
     74  O         14.1400   56.0140   16.0570 O.2   120  ILE120     -0.2718
     75  CB        14.2140   57.9800   18.7200 C.3   120  ILE120      0.0266
     76  CG1       13.1600   58.9220   19.3170 C.3   120  ILE120      0.0019
     77  CG2       14.9820   58.6150   17.5580 C.3   120  ILE120      0.0020
     78  CD1       13.7110   60.2530   19.8130 C.3   120  ILE120      0.0001
     79  N         15.4110   55.2340   17.7390 N.am  121  TYR121     -0.1976
     80  CA        16.2890   54.5040   16.8210 C.3   121  TYR121      0.1639
     81  C         15.5680   53.3170   16.1790 C.2   121  TYR121      0.2290
     82  O         15.8540   52.9490   15.0410 O.2   121  TYR121     -0.2864
     83  CB        17.5660   54.0460   17.5440 C.3   121  TYR121      0.0560
     84  CG        18.3460   55.1990   18.1270 C.ar  121  TYR121     -0.0198
     85  CD1       18.5760   56.3580   17.3790 C.ar  121  TYR121     -0.0009
     86  CD2       18.8180   55.1570   19.4340 C.ar  121  TYR121     -0.0009
     87  CE1       19.2530   57.4450   17.9180 C.ar  121  TYR121      0.0417
     88  CE2       19.4980   56.2350   19.9860 C.ar  121  TYR121      0.0417
     89  CZ        19.7110   57.3740   19.2250 C.ar  121  TYR121      0.1957
     90  OH        20.4010   58.4260   19.7790 O.3   121  TYR121     -0.2866
     91  N         13.3360   55.0110   13.6030 N.3   124  LEU124     -0.1245
     92  CA        14.1300   55.6900   12.5930 C.3   124  LEU124      0.1561
     93  C         14.5090   54.6840   11.5030 C.2   124  LEU124      0.2260
     94  O         14.6570   55.0440   10.3310 O.2   124  LEU124     -0.2867
     95  CB        15.3850   56.3050   13.2180 C.3   124  LEU124      0.0270
     96  CG        16.3180   57.0390   12.2450 C.3   124  LEU124      0.0019
     97  CD1       15.6020   58.2300   11.6210 C.3   124  LEU124      0.0001
     98  CD2       17.5550   57.5060   13.0000 C.3   124  LEU124      0.0001
     99  N         30.4280   65.3970   13.3370 N.3   154  PHE154     -0.1241
    100  CA        29.0880   65.1860   12.8000 C.3   154  PHE154      0.1605
    101  C         28.9400   63.9800   11.8700 C.2   154  PHE154      0.2264
    102  O         27.8540   63.4130   11.7590 O.2   154  PHE154     -0.2867
    103  CB        28.6170   66.4400   12.0680 C.3   154  PHE154      0.0534
    104  CG        28.6240   67.6720   12.9140 C.ar  154  PHE154     -0.0203
    105  CD1       29.7600   68.4680   12.9980 C.ar  154  PHE154     -0.0042
    106  CD2       27.4930   68.0410   13.6350 C.ar  154  PHE154     -0.0042
    107  CE1       29.7690   69.6180   13.7860 C.ar  154  PHE154     -0.0003
    108  CE2       27.4900   69.1860   14.4260 C.ar  154  PHE154     -0.0003
    109  CZ        28.6300   69.9760   14.5000 C.ar  154  PHE154     -0.0000
    110  N         27.7450   60.4120   13.5610 N.3   157  PHE157     -0.1227
    111  CA        26.4730   60.2980   14.2520 C.3   157  PHE157      0.1736
    112  C         25.5140   59.2760   13.6800 C.2   157  PHE157      0.2595
    113  O         25.0070   58.4260   14.4050 O.2   157  PHE157     -0.2718
    114  CB        25.7780   61.6600   14.2990 C.3   157  PHE157      0.0547
    115  CG        26.0910   62.4510   15.5310 C.ar  157  PHE157     -0.0202
    116  CD1       25.4870   62.1360   16.7450 C.ar  157  PHE157     -0.0042
    117  CD2       27.0220   63.4820   15.4940 C.ar  157  PHE157     -0.0042
    118  CE1       25.8090   62.8370   17.9070 C.ar  157  PHE157     -0.0003
    119  CE2       27.3510   64.1860   16.6480 C.ar  157  PHE157     -0.0003
    120  CZ        26.7440   63.8630   17.8580 C.ar  157  PHE157     -0.0000
    121  N         25.2770   59.3480   12.3780 N.am  158  MET158     -0.1979
    122  CA        24.3160   58.4580   11.7440 C.3   158  MET158      0.1605
    123  C         24.7700   57.0590   11.3370 C.2   158  MET158      0.2287
    124  O         24.0010   56.1050   11.4590 O.2   158  MET158     -0.2864
    125  CB        23.6940   59.1750   10.5450 C.3   158  MET158      0.0413
    126  CG        22.9480   60.4590   10.9190 C.3   158  MET158      0.0598
    127  SD        21.5750   60.1730   12.0770 S.3   158  MET158     -0.1393
    128  CE        20.4230   59.3260   10.9960 C.3   158  MET158      0.0692
    129  N         23.5630   54.2250   13.1940 N.3   161  LYS161     -0.1245
    130  CA        22.1140   54.0660   13.1350 C.3   161  LYS161      0.1561
    131  C         21.7540   53.3220   11.8500 C.2   161  LYS161      0.2260
    132  O         20.8470   52.4910   11.8420 O.2   161  LYS161     -0.2867
    133  CB        21.3990   55.4210   13.1890 C.3   161  LYS161      0.0271
    134  CG        21.2590   56.0270   14.5970 C.3   161  LYS161      0.0035
    135  CD        22.5920   56.4520   15.1820 C.3   161  LYS161      0.0206
    136  CE        22.3970   57.1960   16.4950 C.3   161  LYS161      0.1093
    137  NZ        23.6680   57.8120   16.9890 N.3   161  LYS161     -0.1314
    138  N         26.1430   57.2510   21.1170 N.3   243  HIS243     -0.1241
    139  CA        25.5620   58.5460   20.8000 C.3   243  HIS243      0.1621
    140  C         25.8720   59.5670   21.8910 C.2   243  HIS243      0.2264
    141  O         26.2420   60.6920   21.6010 O.2   243  HIS243     -0.2867
    142  CB        24.0420   58.4230   20.6360 C.3   243  HIS243      0.0745
    143  CG        23.3860   59.6700   20.1290 C.ar  243  HIS243      0.0817
    144  ND1       23.3370   59.9940   18.7910 N.ar  243  HIS243     -0.2268
    145  CD2       22.7770   60.6860   20.7840 C.ar  243  HIS243      0.1154
    146  CE1       22.7240   61.1550   18.6430 C.ar  243  HIS243      0.1986
    147  NE2       22.3760   61.5960   19.8380 N.ar  243  HIS243     -0.2212
    148  N         27.9310   63.0980   21.7390 N.3   247  LEU247     -0.1245
    149  CA        27.2680   64.3210   22.1530 C.3   247  LEU247      0.1561
    150  C         28.1760   65.1220   23.0800 C.2   247  LEU247      0.2260
    151  O         28.2830   66.3420   22.9560 O.2   247  LEU247     -0.2867
    152  CB        25.9500   63.9770   22.8470 C.3   247  LEU247      0.0270
    153  CG        24.6960   64.6790   22.3220 C.3   247  LEU247      0.0019
    154  CD1       24.6780   64.6790   20.7970 C.3   247  LEU247      0.0001
    155  CD2       23.4620   63.9690   22.8790 C.3   247  LEU247      0.0001
    156  N         30.7510   67.0120   21.0040 N.3   250  ILE250     -0.1245
    157  CA        30.2310   68.2180   20.3570 C.3   250  ILE250      0.1561
    158  C         30.1370   69.3920   21.3290 C.2   250  ILE250      0.2260
    159  O         30.5570   70.5060   21.0170 O.2   250  ILE250     -0.2867
    160  CB        28.8300   67.9710   19.7510 C.3   250  ILE250      0.0252
    161  CG1       28.9590   67.1980   18.4420 C.3   250  ILE250      0.0019
    162  CG2       28.1160   69.2910   19.5180 C.3   250  ILE250      0.0019
    163  CD1       27.6640   67.1300   17.6620 C.3   250  ILE250      0.0001
    164  N         27.0410   76.2850   20.1330 N.3   257  MET257     -0.1230
    165  CA        25.8430   75.5040   19.8610 C.3   257  MET257      0.1702
    166  C         25.2050   75.0180   21.1500 C.2   257  MET257      0.2593
    167  O         25.8770   74.8940   22.1710 O.2   257  MET257     -0.2718
    168  CB        26.1920   74.3290   18.9500 C.3   257  MET257      0.0401
    169  CG        24.9960   73.7370   18.2090 C.3   257  MET257      0.0596
    170  SD        25.5160   72.6200   16.9220 S.3   257  MET257     -0.1393
    171  CE        26.0790   71.2350   17.8840 C.3   257  MET257      0.0692
    172  N         23.9100   74.7190   21.0910 N.am  258  SER258     -0.1938
    173  CA        23.1640   74.3020   22.2760 C.3   258  SER258      0.2055
    174  C         22.2520   73.0860   22.1260 C.2   258  SER258      0.2642
    175  O         21.4350   73.0210   21.2090 O.2   258  SER258     -0.2714
    176  CB        22.3220   75.4840   22.7600 C.3   258  SER258      0.2130
    177  OG        21.5720   76.0370   21.6840 O.3   258  SER258     -0.2179
    178  N         22.3880   72.1320   23.0410 N.am  259  LEU259     -0.1977
    179  CA        21.5480   70.9400   23.0280 C.3   259  LEU259      0.1596
    180  C         20.1960   71.3500   23.6200 C.2   259  LEU259      0.2287
    181  O         20.1350   71.8480   24.7440 O.2   259  LEU259     -0.2864
    182  CB        22.1870   69.8350   23.8750 C.3   259  LEU259      0.0297
    183  CG        21.5720   68.4300   23.8510 C.3   259  LEU259      0.0022
    184  CD1       21.6100   67.8670   22.4370 C.3   259  LEU259      0.0001
    185  CD2       22.3430   67.5170   24.7960 C.3   259  LEU259      0.0001
    186  N         15.9910   67.6830   25.5230 N.3   263  LEU263     -0.1245
    187  CA        16.9820   66.6300   25.3280 C.3   263  LEU263      0.1561
    188  C         18.0640   66.6860   26.4070 C.2   263  LEU263      0.2260
    189  O         18.6030   65.6560   26.8100 O.2   263  LEU263     -0.2867
    190  CB        17.6130   66.7360   23.9350 C.3   263  LEU263      0.0270
    191  CG        16.6730   66.6150   22.7220 C.3   263  LEU263      0.0019
    192  CD1       17.4900   66.6560   21.4380 C.3   263  LEU263      0.0001
    193  CD2       15.8710   65.3140   22.7960 C.3   263  LEU263      0.0001
    194  N         19.0680   63.4540   28.8880 N.3   267  TYR267     -0.1241
    195  CA        20.4350   62.9540   29.0090 C.3   267  TYR267      0.1605
    196  C         21.1230   63.1830   30.3500 C.2   267  TYR267      0.2264
    197  O         20.7820   64.0950   31.0990 O.2   267  TYR267     -0.2867
    198  CB        21.3080   63.5400   27.9030 C.3   267  TYR267      0.0534
    199  CG        21.0630   62.9170   26.5530 C.ar  267  TYR267     -0.0201
    200  CD1       21.2060   61.5440   26.3650 C.ar  267  TYR267     -0.0009
    201  CD2       20.6920   63.6990   25.4610 C.ar  267  TYR267     -0.0009
    202  CE1       20.9840   60.9630   25.1220 C.ar  267  TYR267      0.0417
    203  CE2       20.4710   63.1300   24.2130 C.ar  267  TYR267      0.0417
    204  CZ        20.6200   61.7620   24.0510 C.ar  267  TYR267      0.1957
    205  OH        20.4190   61.1960   22.8180 O.3   267  TYR267     -0.2866
@<TRIPOS>BOND
     1    54    52    1
     2    52    53    1
     3    52    51    2
     4    94    93    2
     5   125   126    1
     6   125   122    1
     7    51    50    1
     8     1     2    1
     9   126   127    1
    10   128   127    1
    11   123   124    2
    12   123   122    1
    13    93    92    1
    14     3     2    1
    15     3     4    2
    16    97    96    1
    17    17    15   ar
    18    17    19   ar
    19   122   121    1
    20   102   101    2
    21     9    10    1
    22   132   131    2
    23   131   130    1
    24   101   100    1
    25    50    49    1
    26     2     5    1
    27   103   100    1
    28   103   104    1
    29    15    14   ar
    30    96    98    1
    31    96    95    1
    32     5     6    1
    33     5     7    1
    34    49    48    1
    35   121   112   am
    36    19    18   ar
    37    92    95    1
    38    92    91    1
    39     6     8    1
    40   100    99    1
    41   104   105   ar
    42   104   106   ar
    43    29    30    1
    44   105   107   ar
    45   130   133    1
    46   130   129    1
    47    10    13    1
    48    10    11    1
    49   133   134    1
    50    14    13    1
    51    14    16   ar
    52   110   111    1
    53    33    30    1
    54    33    34    1
    55    20    11   am
    56    20    21    1
    57    30    31    1
    58    48    45    1
    59   106   108   ar
    60   112   111    1
    61   112   113    2
    62    18    16   ar
    63   107   109   ar
    64    24    25    1
    65    24    21    1
    66    22    21    1
    67    22    23    2
    68    11    12    2
    69   111   114    1
    70    25    26    1
    71   114   115    1
    72   108   109   ar
    73   134   135    1
    74    45    44    1
    75    45    46    1
    76    31    32    2
    77    31    35   am
    78    82    81    2
    79   135   136    1
    80   117   115   ar
    81   117   119   ar
    82   115   116   ar
    83    26    28   am
    84    26    27    2
    85    35    36    1
    86    46    47    2
    87    46    55   am
    88    74    73    2
    89    81    80    1
    90   136   137    1
    91   119   120   ar
    92    55    56    1
    93   116   118   ar
    94    80    83    1
    95    80    79    1
    96   170   171    1
    97   170   169    1
    98    36    37    1
    99    36    39    1
   100    37    38    2
   101    73    79   am
   102    73    72    1
   103    85    87   ar
   104    85    84   ar
   105    60    59    1
   106    83    84    1
   107    77    75    1
   108    39    40    1
   109   163   161    1
   110   120   118   ar
   111    87    89   ar
   112    56    59    1
   113    56    57    1
   114    84    86   ar
   115   169   168    1
   116    72    75    1
   117    72    71    1
   118   161   160    1
   119   146   144   ar
   120   146   147   ar
   121    75    76    1
   122   144   143   ar
   123   168   165    1
   124    57    58    2
   125    40    41    1
   126    89    90    1
   127    89    88   ar
   128    76    78    1
   129    42    41    2
   130    86    88   ar
   131   162   160    1
   132    41    43   am
   133   160   157    1
   134   147   145   ar
   135   165   164    1
   136   165   166    1
   137   143   142    1
   138   143   145   ar
   139   157   156    1
   140   157   158    1
   141   142   139    1
   142    64    63    2
   143   154   153    1
   144   139   138    1
   145   139   140    1
   146   159   158    2
   147   172   166   am
   148   172   173    1
   149   166   167    2
   150   175   174    2
   151   192   191    1
   152   141   140    2
   153   177   176    1
   154   148   149    1
   155    63    62    1
   156    68    70   ar
   157    68    66   ar
   158   174   173    1
   159   174   178   am
   160   149   152    1
   161   149   150    1
   162   173   176    1
   163   153   152    1
   164   153   155    1
   165   184   183    1
   166    70    69   ar
   167    62    65    1
   168    62    61    1
   169   191   193    1
   170   191   190    1
   171   205   204    1
   172   151   150    2
   173    66    65    1
   174    66    67   ar
   175   179   178    1
   176   179   180    1
   177   179   182    1
   178   180   181    2
   179    69    67   ar
   180   183   182    1
   181   183   185    1
   182   190   187    1
   183   204   203   ar
   184   204   202   ar
   185   203   201   ar
   186   202   200   ar
   187   187   186    1
   188   187   188    1
   189   201   199   ar
   190   200   199   ar
   191   188   189    2
   192   199   198    1
   193   198   195    1
   194   194   195    1
   195   195   196    1
   196   196   197    2
