@<TRIPOS>MOLECULE
tmp/3hofB00.pdb
 104 103 0 0 0
SMALL
GASTEIGER

@<TRIPOS>ATOM
      1  N        -19.5480    5.1900  -45.6970 N.3     1  PRO1       -0.2102
      2  CA       -18.5340    6.0290  -45.0690 C.3     1  PRO1        0.1504
      3  C        -19.0220    6.6790  -43.7900 C.2     1  PRO1        0.2578
      4  O        -20.2060    6.9770  -43.6250 O.2     1  PRO1       -0.2718
      5  CB       -18.2150    7.0630  -46.1290 C.3     1  PRO1        0.0282
      6  CG       -18.4500    6.3470  -47.4090 C.3     1  PRO1        0.0208
      7  CD       -19.6000    5.3900  -47.1580 C.3     1  PRO1        0.0893
      8  N        -18.0920    6.8570  -42.8760 N.am    2  MET2       -0.1934
      9  CA       -18.3840    7.3630  -41.5530 C.3     2  MET2        0.1821
     10  C        -17.4210    8.5260  -41.3710 C.2     2  MET2        0.2332
     11  O        -16.2010    8.3390  -41.4690 O.2     2  MET2       -0.2860
     12  CB       -18.1260    6.2760  -40.4970 C.2     2  MET2        0.0096
     13  CG       -18.3120    6.7230  -39.0200 C.2     2  MET2        0.0285
     14  SD       -17.6710    5.6330  -37.6860 S.3     2  MET2       -0.1125
     15  CE       -18.7830    4.2430  -37.7250 C.3     2  MET2        0.0742
     16  N        -20.4620    7.1480  -52.9740 N.3    32  LYS32      -0.1245
     17  CA       -21.3060    6.1740  -52.2610 C.3    32  LYS32       0.1561
     18  C        -22.7400    6.6900  -52.0460 C.2    32  LYS32       0.2260
     19  O        -22.9620    7.9000  -52.0300 O.2    32  LYS32      -0.2867
     20  CB       -20.6400    5.7650  -50.9510 C.3    32  LYS32       0.0271
     21  CG       -19.3020    5.0610  -51.1870 C.3    32  LYS32       0.0035
     22  CD       -19.0210    3.9480  -50.2120 C.3    32  LYS32       0.0206
     23  CE       -17.6450    3.3270  -50.4970 C.3    32  LYS32       0.1093
     24  NZ       -17.3450    2.1190  -49.6710 N.3    32  LYS32      -0.1314
     25  N        -26.2140    5.4200  -46.9120 N.3    36  TYR36      -0.1241
     26  CA       -25.2480    4.7140  -46.0560 C.3    36  TYR36       0.1605
     27  C        -24.1770    5.5780  -45.3980 C.2    36  TYR36       0.2264
     28  O        -23.2840    5.0390  -44.7210 O.2    36  TYR36      -0.2867
     29  CB       -24.5160    3.6400  -46.8670 C.3    36  TYR36       0.0534
     30  CG       -25.3950    2.5430  -47.3640 C.ar   36  TYR36      -0.0201
     31  CD1      -25.9000    1.5860  -46.4860 C.ar   36  TYR36      -0.0009
     32  CD2      -25.7290    2.4520  -48.7230 C.ar   36  TYR36      -0.0009
     33  CE1      -26.7130    0.5540  -46.9530 C.ar   36  TYR36       0.0417
     34  CE2      -26.5340    1.4330  -49.1920 C.ar   36  TYR36       0.0417
     35  CZ       -27.0270    0.4930  -48.3040 C.ar   36  TYR36       0.1957
     36  OH       -27.8300   -0.5220  -48.7530 O.3    36  TYR36      -0.2866
     37  N        -13.7450    6.9860  -42.3570 N.3    62  HIS62      -0.1226
     38  CA       -13.5690    5.5530  -42.5630 C.3    62  HIS62       0.1752
     39  C        -14.4020    5.1900  -43.7820 C.2    62  HIS62       0.2597
     40  O        -15.5750    5.5720  -43.8740 O.2    62  HIS62      -0.2718
     41  CB       -14.1330    4.7320  -41.3760 C.3    62  HIS62       0.0759
     42  CG       -13.4840    5.0140  -40.0440 C.ar   62  HIS62       0.0818
     43  ND1      -13.7170    6.1650  -39.3260 N.ar   62  HIS62      -0.2268
     44  CD2      -12.6490    4.2690  -39.2870 C.ar   62  HIS62       0.1154
     45  CE1      -13.0540    6.1210  -38.1810 C.ar   62  HIS62       0.1986
     46  NE2      -12.3790    4.9870  -38.1430 N.ar   62  HIS62      -0.2212
     47  N        -13.8180    4.4160  -44.6840 N.am   63  SER63      -0.1938
     48  CA       -14.5100    3.9850  -45.8850 C.3    63  SER63       0.2055
     49  C        -13.9570    2.6310  -46.3000 C.2    63  SER63       0.2642
     50  O        -12.7730    2.3530  -46.1100 O.2    63  SER63      -0.2714
     51  CB       -14.2990    5.0050  -47.0240 C.3    63  SER63       0.2130
     52  OG       -14.9800    4.5860  -48.2130 O.3    63  SER63      -0.2179
     53  N        -14.8190    1.7790  -46.8300 N.am   64  ILE64      -0.1977
     54  CA       -14.3640    0.5390  -47.4600 C.3    64  ILE64       0.1596
     55  C        -13.9540    0.9160  -48.8860 C.2    64  ILE64       0.2287
     56  O        -14.8060    1.1200  -49.7580 O.2    64  ILE64      -0.2864
     57  CB       -15.4910   -0.5210  -47.4710 C.3    64  ILE64       0.0276
     58  CG1      -15.8770   -0.8860  -46.0320 C.3    64  ILE64       0.0022
     59  CG2      -15.0870   -1.7770  -48.3050 C.3    64  ILE64       0.0022
     60  CD1      -17.2360   -1.5780  -45.9160 C.3    64  ILE64       0.0001
     61  N        -11.0190    0.6990  -44.6270 N.3   101  MET101     -0.1245
     62  CA       -11.4960   -0.4630  -43.8660 C.3   101  MET101      0.1570
     63  C        -11.6840   -1.7070  -44.7540 C.2   101  MET101      0.2261
     64  O        -12.2100   -1.6210  -45.8550 O.2   101  MET101     -0.2867
     65  CB       -12.8290   -0.1430  -43.1500 C.3   101  MET101      0.0387
     66  CG       -12.7900    1.0670  -42.2210 C.3   101  MET101      0.0595
     67  SD       -11.6980    0.8710  -40.7680 S.3   101  MET101     -0.1393
     68  CE       -12.4380   -0.5070  -39.8690 C.3   101  MET101      0.0692
     69  N        -16.0650   -4.2630  -40.7680 N.3   106  VAL106     -0.1231
     70  CA       -17.1230   -3.2760  -40.5820 C.3   106  VAL106      0.1692
     71  C        -18.4240   -4.0220  -40.3090 C.2   106  VAL106      0.2593
     72  O        -18.9220   -4.7230  -41.1750 O.2   106  VAL106     -0.2718
     73  CB       -17.2870   -2.3390  -41.8140 C.3   106  VAL106      0.0266
     74  CG1      -18.4890   -1.3470  -41.5930 C.3   106  VAL106      0.0020
     75  CG2      -15.9990   -1.5480  -42.0850 C.3   106  VAL106      0.0020
     76  N        -18.9450   -3.8660  -39.0930 N.am  107  GLY107     -0.1942
     77  CA       -20.2390   -4.4550  -38.7070 C.3   107  GLY107      0.2014
     78  C        -21.4000   -3.5430  -39.0860 C.2   107  GLY107      0.2638
     79  O        -21.2850   -2.3220  -39.0300 O.2   107  GLY107     -0.2714
     80  N        -22.5190   -4.1470  -39.4740 N.am  108  TRP108     -0.1973
     81  CA       -23.7330   -3.4180  -39.8460 C.3   108  TRP108      0.1640
     82  C        -24.8790   -4.4280  -39.9380 C.2   108  TRP108      0.2290
     83  O        -24.6980   -5.5010  -40.5050 O.2   108  TRP108     -0.2864
     84  CB       -23.5510   -2.7040  -41.2010 C.3   108  TRP108      0.0576
     85  CG       -24.8250   -2.1070  -41.7330 C.ar  108  TRP108      0.0006
     86  CD1      -25.5150   -1.0470  -41.2150 C.ar  108  TRP108      0.0946
     87  CD2      -25.5610   -2.5510  -42.8680 C.ar  108  TRP108      0.0152
     88  NE1      -26.6450   -0.7990  -41.9580 N.ar  108  TRP108     -0.2442
     89  CE2      -26.7030   -1.7100  -42.9820 C.ar  108  TRP108      0.0810
     90  CE3      -25.3810   -3.5880  -43.8030 C.ar  108  TRP108      0.0012
     91  CZ2      -27.6630   -1.8720  -44.0020 C.ar  108  TRP108      0.0191
     92  CZ3      -26.3380   -3.7520  -44.8180 C.ar  108  TRP108      0.0001
     93  CH2      -27.4650   -2.8930  -44.9050 C.ar  108  TRP108      0.0015
     94  N        -19.8530   -6.3300  -43.7940 N.3   113  PHE113     -0.1241
     95  CA       -19.9500   -6.0120  -45.2280 C.3   113  PHE113      0.1605
     96  C        -19.2980   -7.0540  -46.1570 C.2   113  PHE113      0.2264
     97  O        -19.4370   -6.9660  -47.3830 O.2   113  PHE113     -0.2867
     98  CB       -19.3970   -4.6020  -45.5080 C.3   113  PHE113      0.0534
     99  CG       -20.4130   -3.5000  -45.3060 C.ar  113  PHE113     -0.0203
    100  CD1      -21.2980   -3.1490  -46.3300 C.ar  113  PHE113     -0.0042
    101  CD2      -20.4930   -2.8190  -44.0940 C.ar  113  PHE113     -0.0042
    102  CE1      -22.2480   -2.1290  -46.1510 C.ar  113  PHE113     -0.0003
    103  CE2      -21.4310   -1.8020  -43.8990 C.ar  113  PHE113     -0.0003
    104  CZ       -22.3210   -1.4590  -44.9280 C.ar  113  PHE113     -0.0000
@<TRIPOS>BOND
     1    16    17    1
     2    17    18    1
     3    17    20    1
     4    18    19    2
     5    21    20    1
     6    21    22    1
     7    23    22    1
     8    23    24    1
     9    56    55    2
    10    34    32   ar
    11    34    35   ar
    12    55    54    1
    13    36    35    1
    14    32    30   ar
    15    59    57    1
    16    35    33   ar
    17    52    51    1
    18    57    54    1
    19    57    58    1
    20    54    53    1
    21     6     7    1
    22     6     5    1
    23    97    96    2
    24    30    29    1
    25    30    31   ar
    26     7     1    1
    27    51    48    1
    28    33    31   ar
    29    25    26    1
    30    29    26    1
    31    53    49   am
    32   100   102   ar
    33   100    99   ar
    34    49    50    2
    35    49    48    1
    36    96    95    1
    37   102   104   ar
    38     5     2    1
    39    26    27    1
    40    58    60    1
    41    48    47    1
    42    64    63    2
    43     1     2    1
    44    98    99    1
    45    98    95    1
    46    27    28    2
    47    99   101   ar
    48    95    94    1
    49     2     3    1
    50   104   103   ar
    51    93    92   ar
    52    93    91   ar
    53    92    90   ar
    54    63    62    1
    55    47    39   am
    56    61    62    1
    57   101   103   ar
    58    91    89   ar
    59    40    39    2
    60    62    65    1
    61    90    87   ar
    62     3     4    2
    63     3     8   am
    64    39    38    1
    65    65    66    1
    66    89    87   ar
    67    89    88   ar
    68     8     9    1
    69    87    85   ar
    70    38    37    1
    71    38    41    1
    72    66    67    1
    73    75    73    1
    74    88    86   ar
    75    73    74    1
    76    73    70    1
    77    85    86   ar
    78    85    84    1
    79     9    10    1
    80     9    12    1
    81    11    10    2
    82    41    42    1
    83    84    81    1
    84    72    71    2
    85    67    68    1
    86    69    70    1
    87    70    71    1
    88    83    82    2
    89    12    13    2
    90    71    76   am
    91    42    43   ar
    92    42    44   ar
    93    82    81    1
    94    81    80    1
    95    80    78   am
    96    43    45   ar
    97    44    46   ar
    98    76    77    1
    99    78    79    2
   100    78    77    1
   101    13    14    1
   102    45    46   ar
   103    15    14    1
