@<TRIPOS>MOLECULE
tmp/3hoiA00.pdb
 100 97 0 0 0
SMALL
GASTEIGER

@<TRIPOS>ATOM
      1  N        -16.5420   -0.1920  -19.3300 N.3    24  ARG24      -0.1231
      2  CA       -17.3720    0.9600  -19.0050 C.3    24  ARG24       0.1694
      3  C        -18.7050    0.4700  -18.4070 C.2    24  ARG24       0.2592
      4  O        -19.4090   -0.3530  -19.0060 O.2    24  ARG24      -0.2718
      5  CB       -17.5630    1.8420  -20.2740 C.3    24  ARG24       0.0321
      6  CG       -17.8930    3.3090  -20.0900 C.3    24  ARG24       0.0489
      7  CD       -19.1970    3.6150  -19.4450 C.3    24  ARG24       0.2205
      8  NE       -20.2930    2.8990  -20.0620 N.pl3  24  ARG24      -0.0865
      9  CZ       -21.4610    2.6600  -19.4590 C.cat  24  ARG24       0.5346
     10  NH1      -21.6400    3.1180  -18.2210 N.pl3  24  ARG24       0.1354
     11  NH2      -22.4500    1.9470  -20.0560 N.pl3  24  ARG24       0.1354
     12  N        -19.0370    0.9280  -17.2000 N.am   25  HIS25      -0.1962
     13  CA       -20.2550    0.5510  -16.5090 C.3    25  HIS25       0.1787
     14  C        -20.5490    1.4800  -15.3590 C.2    25  HIS25       0.2620
     15  O        -19.6420    2.1790  -14.9090 O.2    25  HIS25      -0.2715
     16  CB       -20.1560   -0.8860  -16.0190 C.3    25  HIS25       0.0785
     17  CG       -19.2530   -1.1040  -14.8570 C.ar   25  HIS25       0.0821
     18  ND1      -17.8750   -1.0860  -14.9740 N.ar   25  HIS25      -0.2267
     19  CD2      -19.5120   -1.3560  -13.5460 C.ar   25  HIS25       0.1154
     20  CE1      -17.3310   -1.3260  -13.7820 C.ar   25  HIS25       0.1986
     21  NE2      -18.2990   -1.4910  -12.9020 N.ar   25  HIS25      -0.2212
     22  N        -21.7900    1.4830  -14.8720 N.am   26  SER26      -0.1950
     23  CA       -22.1590    2.3270  -13.7470 C.3    26  SER26       0.1924
     24  C        -21.9050    1.6130  -12.4470 C.2    26  SER26       0.2314
     25  O        -22.2610    0.4250  -12.2900 O.2    26  SER26      -0.2863
     26  CB       -23.6460    2.6870  -13.7950 C.3    26  SER26       0.2116
     27  OG       -23.9420    3.6140  -14.8180 O.3    26  SER26      -0.2180
     28  N        -22.4000    2.2880   -8.1130 N.3    28  ARG28      -0.1245
     29  CA       -23.0810    3.1170   -7.1180 C.3    28  ARG28       0.1563
     30  C        -22.5950    2.8530   -5.6910 C.2    28  ARG28       0.2260
     31  O        -23.3180    3.1160   -4.7400 O.2    28  ARG28      -0.2867
     32  CB       -24.6010    2.9460   -7.2560 C.3    28  ARG28       0.0307
     33  CG       -25.1210    3.2870   -8.6650 C.3    28  ARG28       0.0489
     34  CD       -26.6480    3.1380   -8.7480 C.3    28  ARG28       0.2205
     35  NE       -27.1700    3.6380  -10.0250 N.pl3  28  ARG28      -0.0865
     36  CZ       -27.1720    2.9430  -11.1560 C.cat  28  ARG28       0.5346
     37  NH1      -26.6760    1.7370  -11.1960 N.pl3  28  ARG28       0.1354
     38  NH2      -27.6870    3.4630  -12.2530 N.pl3  28  ARG28       0.1354
     39  N        -31.1020   10.1840   -3.7790 N.3   104  GLN104     -0.1245
     40  CA       -30.2730    8.9690   -3.7800 C.3   104  GLN104      0.1566
     41  C        -29.1050    9.1040   -2.8320 C.2   104  GLN104      0.2260
     42  O        -28.0450    9.6290   -3.1750 O.2   104  GLN104     -0.2867
     43  CB       -29.8160    8.6420   -5.1910 C.3   104  GLN104      0.0367
     44  CG       -30.9630    8.4620   -6.2110 C.3   104  GLN104      0.0905
     45  CD       -30.4010    7.9830   -7.6060 C.2   104  GLN104      0.2608
     46  OE1      -29.7700    8.7410   -8.3740 O.2   104  GLN104     -0.2717
     47  NE2      -30.6040    6.7150   -7.9070 N.am  104  GLN104     -0.0878
     48  N        -26.8600    7.0630   -1.8060 N.3   106  PHE106     -0.1241
     49  CA       -25.6010    6.4220   -2.1250 C.3   106  PHE106      0.1605
     50  C        -24.5520    7.4470   -2.5660 C.2   106  PHE106      0.2264
     51  O        -23.3600    7.2330   -2.3960 O.2   106  PHE106     -0.2867
     52  CB       -25.7750    5.2790   -3.1670 C.3   106  PHE106      0.0534
     53  CG       -25.9160    5.7350   -4.5940 C.ar  106  PHE106     -0.0203
     54  CD1      -24.8040    6.1000   -5.3470 C.ar  106  PHE106     -0.0042
     55  CD2      -27.1560    5.7390   -5.2160 C.ar  106  PHE106     -0.0042
     56  CE1      -24.9420    6.5240   -6.6650 C.ar  106  PHE106     -0.0003
     57  CE2      -27.2660    6.1460   -6.5470 C.ar  106  PHE106     -0.0003
     58  CZ       -26.1610    6.5690   -7.2420 C.ar  106  PHE106     -0.0000
     59  N        -19.7470   13.9440  -20.0050 N.3   141  SER141     -0.1217
     60  CA       -20.0390   12.7800  -19.1770 C.3   141  SER141      0.1889
     61  C        -19.3040   11.5490  -19.6570 C.2   141  SER141      0.2288
     62  O        -18.7470   10.7930  -18.8720 O.2   141  SER141     -0.2866
     63  CB       -21.5660   12.5150  -19.1670 C.3   141  SER141      0.2089
     64  OG       -21.8860   11.2790  -18.5580 O.3   141  SER141     -0.2183
     65  N        -20.9380    6.7670  -11.9060 N.3   156  VAL156     -0.1231
     66  CA       -22.2670    6.5920  -12.5590 C.3   156  VAL156      0.1678
     67  C        -22.7110    7.9670  -13.0700 C.2   156  VAL156      0.2434
     68  O        -22.6170    8.9500  -12.3540 O.2   156  VAL156     -0.2733
     69  CB       -23.3480    6.0000  -11.5570 C.3   156  VAL156      0.0265
     70  CG1      -23.4540    6.8390  -10.2740 C.3   156  VAL156      0.0020
     71  CG2      -24.6890    5.9050  -12.2320 C.3   156  VAL156      0.0020
     72  N        -23.1390    8.0480  -14.3530 N.am  157  PRO157     -0.2718
     73  CA       -23.7210    9.2970  -14.8860 C.3   157  PRO157      0.1535
     74  C        -25.1250    9.4180  -14.3250 C.2   157  PRO157      0.2598
     75  O        -25.9300    8.4480  -14.2920 O.2   157  PRO157     -0.2715
     76  CB       -23.7430    9.0990  -16.4000 C.3   157  PRO157      0.0310
     77  CG       -23.6760    7.6150  -16.5880 C.3   157  PRO157      0.0237
     78  CD       -23.1210    6.9560  -15.3400 C.3   157  PRO157      0.0939
     79  N        -25.4190   10.6070  -13.8270 N.am  158  ARG158     -0.1964
     80  CA       -26.7400   10.8390  -13.2260 C.3   158  ARG158      0.1729
     81  C        -27.3200   12.1320  -13.6900 C.2   158  ARG158      0.2616
     82  O        -26.5990   13.0730  -13.9360 O.2   158  ARG158     -0.2715
     83  CB       -26.6010   10.9830  -11.7010 C.3   158  ARG158      0.0348
     84  CG       -25.9990    9.8430  -11.0230 C.3   158  ARG158      0.0492
     85  CD       -25.8960   10.0010   -9.5060 C.3   158  ARG158      0.2205
     86  NE       -27.1770   10.1500   -8.8600 N.pl3 158  ARG158     -0.0865
     87  CZ       -27.5790   11.2500   -8.2220 C.cat 158  ARG158      0.5346
     88  NH1      -26.8130   12.3270   -8.1060 N.pl3 158  ARG158      0.1354
     89  NH2      -28.7960   11.2570   -7.6680 N.pl3 158  ARG158      0.1354
     90  N        -28.6280   12.1710  -13.7910 N.am  159  ALA159     -0.1963
     91  CA       -29.3880   13.4190  -14.0790 C.3   159  ALA159      0.1728
     92  C        -30.1020   13.9160  -12.8190 C.2   159  ALA159      0.2616
     93  O        -30.5470   15.0310  -12.7940 O.2   159  ALA159     -0.2715
     94  CB       -30.4260   13.1870  -15.2250 C.3   159  ALA159      0.0334
     95  N        -30.2230   13.1000  -11.7810 N.am  160  SER160     -0.1950
     96  CA       -31.0070   13.4320  -10.6190 C.3   160  SER160      0.1924
     97  C        -30.1140   14.1970   -9.6550 C.2   160  SER160      0.2314
     98  O        -28.9230   13.8750   -9.5340 O.2   160  SER160     -0.2863
     99  CB       -31.4390   12.1790   -9.8380 C.3   160  SER160      0.2116
    100  OG       -32.4750   11.5080  -10.4940 O.3   160  SER160     -0.2180
@<TRIPOS>BOND
     1     5     6    1
     2     5     2    1
     3     6     7    1
     4     8     9    2
     5     8     7    1
     6    11     9    1
     7    59    60    1
     8    61    60    1
     9    61    62    2
    10     9    10    1
    11     1     2    1
    12    60    63    1
    13    63    64    1
    14     4     3    2
    15     2     3    1
    16     3    12   am
    17    12    13    1
    18    77    76    1
    19    77    78    1
    20    13    16    1
    21    13    14    1
    22    76    73    1
    23    16    17    1
    24    14    15    2
    25    14    22   am
    26    78    72    1
    27    94    91    1
    28    18    17   ar
    29    18    20   ar
    30    73    72    1
    31    73    74    1
    32    22    23    1
    33    17    19   ar
    34    27    26    1
    35    72    67   am
    36    74    75    2
    37    74    79   am
    38    91    90    1
    39    91    92    1
    40    82    81    2
    41    79    80    1
    42    26    23    1
    43    90    81   am
    44    20    21   ar
    45    23    24    1
    46    81    80    1
    47    19    21   ar
    48    80    83    1
    49    67    66    1
    50    67    68    2
    51    92    93    2
    52    92    95   am
    53    66    65    1
    54    66    69    1
    55    24    25    2
    56    38    36    1
    57    71    69    1
    58    95    96    1
    59    83    84    1
    60    69    70    1
    61    37    36    1
    62    36    35    2
    63    84    85    1
    64    96    99    1
    65    96    97    1
    66   100    99    1
    67    35    34    1
    68    97    98    2
    69    85    86    1
    70    86    87    2
    71    34    33    1
    72    33    32    1
    73    46    45    2
    74    87    88    1
    75    87    89    1
    76    28    29    1
    77    47    45   am
    78    45    44    1
    79    32    29    1
    80    58    56   ar
    81    58    57   ar
    82    29    30    1
    83    56    54   ar
    84    57    55   ar
    85    44    43    1
    86    30    31    2
    87    54    53   ar
    88    55    53   ar
    89    43    40    1
    90    53    52    1
    91    40    39    1
    92    40    41    1
    93    42    41    2
    94    52    49    1
    95    50    51    2
    96    50    49    1
    97    49    48    1
