@<TRIPOS>MOLECULE
tmp/3hokB01.pdb
 195 184 0 0 0
SMALL
GASTEIGER

@<TRIPOS>ATOM
      1  N         13.0020   -5.1530   42.1200 N.3    17  HIS17      -0.1241
      2  CA        14.0060   -4.1430   41.7760 C.3    17  HIS17       0.1621
      3  C         15.4200   -4.5960   42.1700 C.2    17  HIS17       0.2264
      4  O         16.3660   -4.4490   41.3910 O.2    17  HIS17      -0.2867
      5  CB        13.6780   -2.8010   42.4380 C.3    17  HIS17       0.0745
      6  CG        14.3540   -1.6260   41.7980 C.ar   17  HIS17       0.0817
      7  ND1       15.7230   -1.5140   41.7000 N.ar   17  HIS17      -0.2268
      8  CD2       13.8470   -0.5010   41.2390 C.ar   17  HIS17       0.1154
      9  CE1       16.0330   -0.3820   41.0920 C.ar   17  HIS17       0.1986
     10  NE2       14.9110    0.2510   40.7990 N.ar   17  HIS17      -0.2212
     11  N         16.7240   -7.3530   39.7320 N.3    20  ALA20      -0.1245
     12  CA        17.2730   -6.7140   38.5380 C.3    20  ALA20       0.1562
     13  C         18.6660   -6.1580   38.8200 C.2    20  ALA20       0.2260
     14  O         19.5970   -6.3650   38.0340 O.2    20  ALA20      -0.2867
     15  CB        16.3540   -5.6130   38.0490 C.3    20  ALA20       0.0290
     16  N         20.8860   -8.8610   39.0860 N.3    23  ALA23      -0.1231
     17  CA        21.1080   -9.3910   37.7460 C.3    23  ALA23       0.1694
     18  C         22.1200   -8.5800   36.9490 C.2    23  ALA23       0.2591
     19  O         22.9810   -9.1450   36.2810 O.2    23  ALA23      -0.2718
     20  CB        19.7820   -9.4940   36.9850 C.3    23  ALA23       0.0304
     21  N         22.0120   -7.2590   37.0010 N.am   24  GLU24      -0.1979
     22  CA        22.9560   -6.4190   36.2880 C.3    24  GLU24       0.1602
     23  C         24.3420   -6.5780   36.8840 C.2    24  GLU24       0.2287
     24  O         25.3330   -6.6260   36.1590 O.2    24  GLU24      -0.2864
     25  CB        22.5180   -4.9460   36.2980 C.3    24  GLU24       0.0415
     26  CG        23.5770   -3.9460   35.7650 C.3    24  GLU24       0.1163
     27  CD        24.0800   -4.2580   34.3460 C.2    24  GLU24       0.3649
     28  OE1       23.3270   -4.8790   33.5580 O.co2  24  GLU24      -0.2457
     29  OE2       25.2330   -3.8900   34.0180 O.co2  24  GLU24      -0.2457
     30  N         25.7030   -9.7720   35.6250 N.3    27  ARG27      -0.1245
     31  CA        25.9590   -9.5410   34.2030 C.3    27  ARG27       0.1563
     32  C         27.2190   -8.7200   33.9750 C.2    27  ARG27       0.2260
     33  O         28.0300   -9.0570   33.1220 O.2    27  ARG27      -0.2867
     34  CB        24.7870   -8.8340   33.5330 C.3    27  ARG27       0.0307
     35  CG        24.6990   -9.1380   32.0370 C.3    27  ARG27       0.0489
     36  CD        24.4820   -7.9060   31.1840 C.3    27  ARG27       0.2205
     37  NE        25.7260   -7.1780   30.9390 N.pl3  27  ARG27      -0.0865
     38  CZ        26.0760   -6.0640   31.5780 C.cat  27  ARG27       0.5346
     39  NH1       25.2770   -5.5520   32.5050 N.pl3  27  ARG27       0.1354
     40  NH2       27.2260   -5.4630   31.2930 N.pl3  27  ARG27       0.1354
     41  N         29.7590   -3.4030   28.4530 N.3    34  VAL34      -0.1245
     42  CA        28.5480   -3.3370   27.6400 C.3    34  VAL34       0.1561
     43  C         29.0150   -2.8660   26.2790 C.2    34  VAL34       0.2260
     44  O         29.7160   -1.8650   26.1660 O.2    34  VAL34      -0.2867
     45  CB        27.5060   -2.3350   28.1700 C.3    34  VAL34       0.0252
     46  CG1       27.9100   -0.9090   27.8200 C.3    34  VAL34       0.0019
     47  CG2       26.1320   -2.6390   27.5760 C.3    34  VAL34       0.0019
     48  N         24.3250   -2.5980   23.2640 N.3    39  PHE39      -0.1241
     49  CA        23.5750   -1.3650   23.3580 C.3    39  PHE39       0.1605
     50  C         22.5140   -1.2410   22.2600 C.2    39  PHE39       0.2264
     51  O         21.3860   -0.8410   22.5350 O.2    39  PHE39      -0.2867
     52  CB        24.5150   -0.1710   23.3420 C.3    39  PHE39       0.0534
     53  CG        23.9340    1.0500   23.9680 C.ar   39  PHE39      -0.0203
     54  CD1       23.8900    1.1800   25.3450 C.ar   39  PHE39      -0.0042
     55  CD2       23.4290    2.0670   23.1870 C.ar   39  PHE39      -0.0042
     56  CE1       23.3490    2.3120   25.9260 C.ar   39  PHE39      -0.0003
     57  CE2       22.8880    3.1960   23.7610 C.ar   39  PHE39      -0.0003
     58  CZ        22.8470    3.3180   25.1290 C.ar   39  PHE39      -0.0000
     59  N         19.4790   -3.2550   23.1610 N.3    42  VAL42      -0.1245
     60  CA        18.7330   -2.5540   24.2070 C.3    42  VAL42       0.1561
     61  C         17.9220   -1.3630   23.6770 C.2    42  VAL42       0.2260
     62  O         16.8040   -1.1110   24.1410 O.2    42  VAL42      -0.2867
     63  CB        19.6610   -2.0570   25.3120 C.3    42  VAL42       0.0252
     64  CG1       19.0260   -0.8920   26.0240 C.3    42  VAL42       0.0019
     65  CG2       19.9620   -3.1800   26.2730 C.3    42  VAL42       0.0019
     66  N         13.7020   -0.9710   23.6640 N.3    46  LEU46      -0.1245
     67  CA        12.9700    0.2280   24.0920 C.3    46  LEU46       0.1561
     68  C         12.1180    0.8300   22.9780 C.2    46  LEU46       0.2260
     69  O         11.0100    1.3150   23.2300 O.2    46  LEU46      -0.2867
     70  CB        13.9390    1.2940   24.6130 C.3    46  LEU46       0.0270
     71  CG        14.6840    0.8610   25.8660 C.3    46  LEU46       0.0019
     72  CD1       15.8950    1.7320   26.0910 C.3    46  LEU46       0.0001
     73  CD2       13.7140    0.8780   27.0330 C.3    46  LEU46       0.0001
     74  N          6.6770    2.1620   35.9480 N.3   127  THR127     -0.1203
     75  CA         7.8600    1.3180   35.7990 C.3   127  THR127      0.1994
     76  C          8.8300    1.7960   34.7180 C.2   127  THR127      0.2617
     77  O         10.0450    1.8350   34.9300 O.2   127  THR127     -0.2717
     78  CB         7.4760   -0.1480   35.4630 C.3   127  THR127      0.1784
     79  OG1        6.4980   -0.6260   36.3930 O.3   127  THR127     -0.2211
     80  CG2        8.6990   -1.0370   35.5320 C.3   127  THR127      0.0376
     81  N          8.2840    2.1090   33.5480 N.am  128  ARG128     -0.1979
     82  CA         9.0660    2.5770   32.4230 C.3   128  ARG128      0.1597
     83  C          9.5840    3.9990   32.6100 C.2   128  ARG128      0.2287
     84  O         10.7940    4.2570   32.5130 O.2   128  ARG128     -0.2864
     85  CB         8.2180    2.5220   31.1520 C.3   128  ARG128      0.0334
     86  CG         8.2700    1.1880   30.4310 C.3   128  ARG128      0.0492
     87  CD         9.3350    1.1930   29.3370 C.3   128  ARG128      0.2205
     88  NE        10.6920    1.3260   29.8750 N.pl3 128  ARG128     -0.0865
     89  CZ        11.4700    0.3040   30.2210 C.cat 128  ARG128      0.5346
     90  NH1       11.0360   -0.9440   30.1040 N.pl3 128  ARG128      0.1354
     91  NH2       12.6880    0.5300   30.6890 N.pl3 128  ARG128      0.1354
     92  N         11.3740    4.8640   36.1170 N.3   131  GLY131     -0.1210
     93  CA        12.6080    4.1070   35.9800 C.3   131  GLY131      0.1956
     94  C         13.5850    4.8020   35.0500 C.2   131  GLY131      0.2611
     95  O         14.7300    5.0350   35.4190 O.2   131  GLY131     -0.2717
     96  N         13.1290    5.1390   33.8420 N.am  132  ASP132     -0.1973
     97  CA        14.0090    5.6700   32.7910 C.3   132  ASP132      0.1709
     98  C         14.4570    7.1050   33.0750 C.2   132  ASP132      0.2293
     99  O         15.5900    7.4960   32.7730 O.2   132  ASP132     -0.2864
    100  CB        13.3380    5.5860   31.4210 C.3   132  ASP132      0.1436
    101  CG        13.1640    4.1590   30.9360 C.2   132  ASP132      0.3671
    102  OD1       13.8330    3.2450   31.4750 O.co2 132  ASP132     -0.2456
    103  OD2       12.3520    3.9510   30.0040 O.co2 132  ASP132     -0.2456
    104  N         14.9260    8.0660   36.1770 N.3   134  SER134     -0.1202
    105  CA        15.9450    7.8280   37.2210 C.3   134  SER134      0.2020
    106  C         17.3330    7.4670   36.6990 C.2   134  SER134      0.2619
    107  O         18.3390    7.9870   37.1740 O.2   134  SER134     -0.2717
    108  CB        15.4950    6.7170   38.1730 C.3   134  SER134      0.2103
    109  OG        14.3510    7.0930   38.9170 O.3   134  SER134     -0.2182
    110  N         17.3890    6.5540   35.7410 N.am  135  GLY135     -0.1956
    111  CA        18.6670    6.0450   35.2820 C.3   135  GLY135      0.1869
    112  C         19.2420    6.8550   34.1470 C.2   135  GLY135      0.2309
    113  O         20.3110    6.5350   33.6320 O.2   135  GLY135     -0.2863
    114  N         23.1550    8.8170   34.9100 N.3   138  VAL138     -0.1231
    115  CA        24.0780    7.7100   35.1670 C.3   138  VAL138      0.1692
    116  C         24.3380    6.8610   33.9210 C.2   138  VAL138      0.2591
    117  O         25.4720    6.7710   33.4460 O.2   138  VAL138     -0.2718
    118  CB        23.5610    6.8000   36.2980 C.3   138  VAL138      0.0266
    119  CG1       24.2750    7.1140   37.6120 C.3   138  VAL138      0.0020
    120  CG2       22.0430    6.9340   36.4380 C.3   138  VAL138      0.0020
    121  N         23.2860    6.2390   33.3960 N.am  139  LEU139     -0.1980
    122  CA        23.4030    5.3880   32.2090 C.3   139  LEU139      0.1596
    123  C         24.0500    6.1200   31.0410 C.2   139  LEU139      0.2287
    124  O         25.0210    5.6390   30.4620 O.2   139  LEU139     -0.2864
    125  CB        22.0300    4.8530   31.7900 C.3   139  LEU139      0.0297
    126  CG        21.5110    3.5990   32.5000 C.3   139  LEU139      0.0022
    127  CD1       20.0250    3.3960   32.2170 C.3   139  LEU139      0.0001
    128  CD2       22.3170    2.3710   32.0790 C.3   139  LEU139      0.0001
    129  N         17.7710    9.3160   23.6900 N.3   158  PHE158     -0.1227
    130  CA        16.7850    8.6720   24.5270 C.3   158  PHE158      0.1736
    131  C         17.0020    8.9970   26.0100 C.2   158  PHE158      0.2595
    132  O         16.0720    8.9490   26.8050 O.2   158  PHE158     -0.2718
    133  CB        16.8250    7.1600   24.3260 C.3   158  PHE158      0.0547
    134  CG        16.0720    6.4080   25.3640 C.ar  158  PHE158     -0.0202
    135  CD1       14.6930    6.2840   25.2840 C.ar  158  PHE158     -0.0042
    136  CD2       16.7260    5.8520   26.4390 C.ar  158  PHE158     -0.0042
    137  CE1       13.9970    5.6230   26.2480 C.ar  158  PHE158     -0.0003
    138  CE2       16.0250    5.1800   27.4060 C.ar  158  PHE158     -0.0003
    139  CZ        14.6630    5.0690   27.3110 C.ar  158  PHE158     -0.0000
    140  N         18.2300    9.3320   26.3860 N.am  159  PHE159     -0.1976
    141  CA        18.5140    9.5750   27.7970 C.3   159  PHE159      0.1639
    142  C         18.3290   11.0390   28.2320 C.2   159  PHE159      0.2290
    143  O         18.5170   11.3800   29.4020 O.2   159  PHE159     -0.2864
    144  CB        19.9000    9.0460   28.1510 C.3   159  PHE159      0.0560
    145  CG        20.0010    7.5520   28.0920 C.ar  159  PHE159     -0.0200
    146  CD1       19.5820    6.7780   29.1560 C.ar  159  PHE159     -0.0042
    147  CD2       20.4850    6.9220   26.9610 C.ar  159  PHE159     -0.0042
    148  CE1       19.6610    5.4010   29.1070 C.ar  159  PHE159     -0.0003
    149  CE2       20.5650    5.5410   26.9030 C.ar  159  PHE159     -0.0003
    150  CZ        20.1540    4.7840   27.9790 C.ar  159  PHE159     -0.0000
    151  N         10.7380   -6.9950   32.1010 N.3   202  ASN202     -0.1225
    152  CA        12.0160   -6.3530   31.8560 C.3   202  ASN202      0.1785
    153  C         13.1560   -7.2950   32.1930 C.2   202  ASN202      0.2597
    154  O         14.1190   -7.3980   31.4440 O.2   202  ASN202     -0.2718
    155  CB        12.1310   -5.0810   32.6910 C.3   202  ASN202      0.1169
    156  CG        11.6230   -3.8650   31.9650 C.2   202  ASN202      0.2627
    157  OD1       12.2780   -3.3570   31.0560 O.2   202  ASN202     -0.2716
    158  ND2       10.4540   -3.3770   32.3690 N.am  202  ASN202     -0.0877
    159  N         13.0460   -7.9750   33.3340 N.am  203  ILE203     -0.1980
    160  CA        14.0470   -8.9600   33.7360 C.3   203  ILE203      0.1595
    161  C         14.1720  -10.1070   32.7190 C.2   203  ILE203      0.2287
    162  O         15.2800  -10.4460   32.3020 O.2   203  ILE203     -0.2864
    163  CB        13.7610   -9.5240   35.1450 C.3   203  ILE203      0.0276
    164  CG1       13.8850   -8.4210   36.1990 C.3   203  ILE203      0.0022
    165  CG2       14.7160  -10.6500   35.4660 C.3   203  ILE203      0.0022
    166  CD1       13.4980   -8.8670   37.5810 C.3   203  ILE203      0.0001
    167  N         15.9350   -8.8110   29.4940 N.3   206  PHE206     -0.1227
    168  CA        17.3490   -8.5060   29.5320 C.3   206  PHE206      0.1736
    169  C         18.1910   -9.7740   29.6200 C.2   206  PHE206      0.2595
    170  O         19.2520   -9.8510   29.0150 O.2   206  PHE206     -0.2718
    171  CB        17.6510   -7.4600   30.6100 C.3   206  PHE206      0.0547
    172  CG        16.9900   -6.1320   30.3370 C.ar  206  PHE206     -0.0202
    173  CD1       17.0650   -5.5620   29.0740 C.ar  206  PHE206     -0.0042
    174  CD2       16.2870   -5.4620   31.3260 C.ar  206  PHE206     -0.0042
    175  CE1       16.4480   -4.3490   28.7970 C.ar  206  PHE206     -0.0003
    176  CE2       15.6710   -4.2450   31.0590 C.ar  206  PHE206     -0.0003
    177  CZ        15.7520   -3.6880   29.7900 C.ar  206  PHE206     -0.0000
    178  N         17.6780  -10.7870   30.3180 N.am  207  GLU207     -0.1979
    179  CA        18.2930  -12.1200   30.2990 C.3   207  GLU207      0.1602
    180  C         18.3650  -12.6560   28.8740 C.2   207  GLU207      0.2287
    181  O         19.4290  -13.1010   28.4190 O.2   207  GLU207     -0.2864
    182  CB        17.5240  -13.0950   31.2020 C.3   207  GLU207      0.0415
    183  CG        17.7590  -12.8470   32.6960 C.3   207  GLU207      0.1163
    184  CD        16.7370  -13.5190   33.5990 C.2   207  GLU207      0.3649
    185  OE1       15.9560  -14.3610   33.1160 O.co2 207  GLU207     -0.2457
    186  OE2       16.7100  -13.1960   34.8050 O.co2 207  GLU207     -0.2457
    187  N         21.2010  -10.8010   26.6890 N.3   210  GLN210     -0.1245
    188  CA        22.5460  -11.2960   26.9400 C.3   210  GLN210      0.1566
    189  C         22.7250  -12.7190   26.4170 C.2   210  GLN210      0.2260
    190  O         23.8220  -13.0910   25.9970 O.2   210  GLN210     -0.2867
    191  CB        22.9040  -11.2130   28.4270 C.3   210  GLN210      0.0367
    192  CG        23.8930  -10.0970   28.7360 C.3   210  GLN210      0.0905
    193  CD        25.2970  -10.4240   28.2540 C.2   210  GLN210      0.2608
    194  OE1       26.1200   -9.5360   28.0470 O.2   210  GLN210     -0.2717
    195  NE2       25.5730  -11.7070   28.0750 N.am  210  GLN210     -0.0878
@<TRIPOS>BOND
     1    50    51    2
     2    50    49    1
     3    68    69    2
     4    68    67    1
     5    59    60    1
     6    55    57   ar
     7    55    53   ar
     8    48    49    1
     9    52    49    1
    10    52    53    1
    11    66    67    1
    12    61    62    2
    13    61    60    1
    14   129   130    1
    15    57    58   ar
    16    53    54   ar
    17    67    70    1
    18    60    63    1
    19   133   130    1
    20   133   134    1
    21   130   131    1
    22    70    71    1
    23    58    56   ar
    24   135   134   ar
    25   135   137   ar
    26    63    64    1
    27    63    65    1
    28    54    56   ar
    29   134   136   ar
    30    71    72    1
    31    71    73    1
    32   190   189    2
    33   131   140   am
    34   131   132    2
    35    44    43    2
    36   137   139   ar
    37    43    42    1
    38   140   141    1
    39   189   188    1
    40   136   138   ar
    41   187   188    1
    42   149   147   ar
    43   149   150   ar
    44   188   191    1
    45   147   145   ar
    46   139   138   ar
    47    47    45    1
    48    42    45    1
    49    42    41    1
    50   141   144    1
    51   141   142    1
    52    46    45    1
    53   150   148   ar
    54   194   193    2
    55   195   193   am
    56   145   144    1
    57   145   146   ar
    58   142   143    2
    59   193   192    1
    60   181   180    2
    61   191   192    1
    62   175   173   ar
    63   175   177   ar
    64   180   179    1
    65   170   169    2
    66   173   172   ar
    67   148   146   ar
    68    87    88    1
    69    87    86    1
    70   167   168    1
    71   168   169    1
    72   168   171    1
    73   169   178   am
    74   177   176   ar
    75    88    89    2
    76   103   101   ar
    77    90    89    1
    78    89    91    1
    79   179   178    1
    80   179   182    1
    81   172   171    1
    82   172   174   ar
    83    86    85    1
    84   124   123    2
    85   101   100    1
    86   101   102   ar
    87    37    36    1
    88    37    38    2
    89   123   122    1
    90   157   156    2
    91   176   174   ar
    92    85    82    1
    93    36    35    1
    94   182   183    1
    95    40    38    1
    96   100    97    1
    97   154   153    2
    98    38    39    1
    99   125   122    1
   100   125   126    1
   101   152   151    1
   102   152   153    1
   103   152   155    1
   104   156   158   am
   105   156   155    1
   106    35    34    1
   107   128   126    1
   108   153   159   am
   109   122   121    1
   110   127   126    1
   111   162   161    2
   112    82    83    1
   113    82    81    1
   114    84    83    2
   115   183   184    1
   116   161   160    1
   117    99    98    2
   118    97    98    1
   119    97    96    1
   120   185   184   ar
   121    33    32    2
   122   159   160    1
   123   121   116   am
   124   117   116    2
   125    34    31    1
   126    81    76   am
   127    28    27   ar
   128   184   186   ar
   129   113   112    2
   130   160   163    1
   131    96    94   am
   132   116   115    1
   133    32    31    1
   134    29    27   ar
   135   112   111    1
   136    31    30    1
   137    27    26    1
   138    76    77    2
   139    76    75    1
   140   114   115    1
   141    94    95    2
   142    94    93    1
   143   163   165    1
   144   163   164    1
   145   115   118    1
   146   111   110    1
   147    78    80    1
   148    78    75    1
   149    78    79    1
   150   110   106   am
   151    26    25    1
   152    75    74    1
   153    93    92    1
   154    24    23    2
   155   104   105    1
   156   164   166    1
   157    19    18    2
   158    22    25    1
   159    22    23    1
   160    22    21    1
   161   118   120    1
   162   118   119    1
   163   106   107    2
   164   106   105    1
   165    18    21   am
   166    18    17    1
   167    20    17    1
   168   105   108    1
   169    17    16    1
   170    14    13    2
   171    15    12    1
   172   108   109    1
   173    12    13    1
   174    12    11    1
   175    10     9   ar
   176    10     8   ar
   177     9     7   ar
   178     8     6   ar
   179     4     3    2
   180     7     6   ar
   181     2     1    1
   182     2     3    1
   183     2     5    1
   184     6     5    1
