@<TRIPOS>MOLECULE
tmp/3hp2A00.pdb
 178 168 0 0 0
SMALL
GASTEIGER

@<TRIPOS>ATOM
      1  N         40.5960   35.7340   28.1190 N.3    27  VAL27      -0.1245
      2  CA        39.2010   36.0240   28.4610 C.3    27  VAL27       0.1561
      3  C         38.3010   34.7920   28.3790 C.2    27  VAL27       0.2260
      4  O         37.2430   34.7520   29.0070 O.2    27  VAL27      -0.2867
      5  CB        38.6090   37.1920   27.6150 C.3    27  VAL27       0.0252
      6  CG1       39.3660   38.4940   27.9090 C.3    27  VAL27       0.0019
      7  CG2       38.6310   36.8760   26.1510 C.3    27  VAL27       0.0019
      8  N         40.6190   32.7330   23.4360 N.3    35  VAL35      -0.1245
      9  CA        40.6170   34.1560   23.1790 C.3    35  VAL35       0.1561
     10  C         41.3730   34.8900   24.2720 C.2    35  VAL35       0.2260
     11  O         41.2680   34.5550   25.4620 O.2    35  VAL35      -0.2867
     12  CB        39.1780   34.7060   23.0610 C.3    35  VAL35       0.0252
     13  CG1       39.1830   36.1980   22.7890 C.3    35  VAL35       0.0019
     14  CG2       38.4080   33.9700   21.9570 C.3    35  VAL35       0.0019
     15  N         40.3560   41.6240   20.5690 N.3    48  ALA48      -0.1231
     16  CA        40.2690   40.2340   20.9690 C.3    48  ALA48       0.1694
     17  C         41.0510   39.4120   19.9370 C.2    48  ALA48       0.2592
     18  O         40.8650   39.5600   18.7180 O.2    48  ALA48      -0.2718
     19  CB        38.7970   39.7770   21.0540 C.3    48  ALA48       0.0304
     20  N         41.9440   38.5650   20.4300 N.am   49  VAL49      -0.1966
     21  CA        42.7430   37.7010   19.5870 C.3    49  VAL49       0.1727
     22  C         42.3290   36.2580   19.8550 C.2    49  VAL49       0.2616
     23  O         42.4700   35.7740   20.9770 O.2    49  VAL49      -0.2715
     24  CB        44.2520   37.8630   19.8790 C.3    49  VAL49       0.0290
     25  CG1       45.0910   37.0390   18.9030 C.3    49  VAL49       0.0023
     26  CG2       44.6700   39.3440   19.8540 C.3    49  VAL49       0.0023
     27  N         41.8210   35.5790   18.8280 N.am   50  LYS50      -0.1977
     28  CA        41.4660   34.1700   18.9270 C.3    50  LYS50       0.1596
     29  C         42.5400   33.3030   18.2730 C.2    50  LYS50       0.2287
     30  O         42.9300   33.5370   17.1190 O.2    50  LYS50      -0.2864
     31  CB        40.1050   33.9050   18.2590 C.3    50  LYS50       0.0298
     32  CG        39.5960   32.4730   18.4030 C.3    50  LYS50       0.0038
     33  CD        38.2440   32.3020   17.7180 C.3    50  LYS50       0.0206
     34  CE        37.7430   30.8650   17.8000 C.3    50  LYS50       0.1093
     35  NZ        36.5630   30.6050   16.9030 N.3    50  LYS50      -0.1314
     36  N         34.7240   35.4840    8.2650 N.3    72  LEU72      -0.1245
     37  CA        35.1750   36.6810    8.9790 C.3    72  LEU72       0.1561
     38  C         35.8090   37.7100    8.0420 C.2    72  LEU72       0.2260
     39  O         35.6380   38.9050    8.2320 O.2    72  LEU72      -0.2867
     40  CB        36.1300   36.2930   10.1130 C.3    72  LEU72       0.0270
     41  CG        35.4950   35.6240   11.3420 C.3    72  LEU72       0.0019
     42  CD1       36.5490   34.9690   12.2160 C.3    72  LEU72       0.0001
     43  CD2       34.7440   36.6680   12.1530 C.3    72  LEU72       0.0001
     44  N         30.8270   40.8010   13.8050 N.3    81  ILE81      -0.1245
     45  CA        32.2630   40.7030   14.0770 C.3    81  ILE81       0.1561
     46  C         32.9960   40.4760   12.7540 C.2    81  ILE81       0.2260
     47  O         32.6230   39.6170   11.9580 O.2    81  ILE81      -0.2867
     48  CB        32.5760   39.5750   15.1160 C.3    81  ILE81       0.0252
     49  CG1       31.9530   39.9250   16.4770 C.3    81  ILE81       0.0019
     50  CG2       34.0770   39.3230   15.2540 C.3    81  ILE81       0.0019
     51  CD1       32.7850   40.7910   17.3710 C.3    81  ILE81       0.0001
     52  N         37.2010   41.1330   10.7760 N.3    83  LEU83      -0.1245
     53  CA        38.6310   41.0340   11.0390 C.3    83  LEU83       0.1561
     54  C         39.3630   42.3610   10.9430 C.2    83  LEU83       0.2260
     55  O         39.2580   43.0540    9.9390 O.2    83  LEU83      -0.2867
     56  CB        39.2980   40.0760   10.0680 C.3    83  LEU83       0.0270
     57  CG        39.0360   38.5840   10.2020 C.3    83  LEU83       0.0019
     58  CD1       39.9050   37.8290    9.1750 C.3    83  LEU83       0.0001
     59  CD2       39.2870   38.0920   11.6450 C.3    83  LEU83       0.0001
     60  N         43.1710   35.0580   14.8160 N.3   101  LEU101     -0.1231
     61  CA        42.2290   36.0500   14.2840 C.3   101  LEU101      0.1693
     62  C         42.1140   37.2120   15.2690 C.2   101  LEU101      0.2592
     63  O         42.1200   36.9870   16.4810 O.2   101  LEU101     -0.2718
     64  CB        40.8590   35.4160   14.0900 C.3   101  LEU101      0.0284
     65  CG        40.8540   34.0920   13.3070 C.3   101  LEU101      0.0019
     66  CD1       39.4870   33.4320   13.3760 C.3   101  LEU101      0.0001
     67  CD2       41.2770   34.3390   11.8780 C.3   101  LEU101      0.0001
     68  N         42.0380   38.4430   14.7610 N.am  102  VAL102     -0.1966
     69  CA        41.8390   39.5950   15.6370 C.3   102  VAL102      0.1727
     70  C         40.6880   40.4990   15.2050 C.2   102  VAL102      0.2617
     71  O         40.4420   40.7330   14.0100 O.2   102  VAL102     -0.2715
     72  CB        43.1980   40.3350   16.0210 C.3   102  VAL102      0.0290
     73  CG1       44.3740   39.8570   15.1840 C.3   102  VAL102      0.0023
     74  CG2       43.0630   41.8580   16.1310 C.3   102  VAL102      0.0023
     75  N         39.9450   40.9410   16.2150 N.am  103  THR103     -0.1937
     76  CA        38.7830   41.8070   16.0320 C.3   103  THR103      0.2028
     77  C         38.7720   42.8310   17.1540 C.2   103  THR103      0.2642
     78  O         39.5170   42.6900   18.1410 O.2   103  THR103     -0.2714
     79  CB        37.4590   40.9800   15.9610 C.3   103  THR103      0.1808
     80  OG1       36.3870   41.7980   15.4710 O.3   103  THR103     -0.2208
     81  CG2       37.0750   40.3760   17.3180 C.3   103  THR103      0.0379
     82  N         37.9610   43.8820   16.9990 N.am  104  HIS104     -0.1959
     83  CA        37.8490   44.8820   18.0390 C.3   104  HIS104      0.1787
     84  C         37.1830   44.2500   19.2630 C.2   104  HIS104      0.2620
     85  O         36.1730   43.5740   19.1330 O.2   104  HIS104     -0.2715
     86  CB        37.0580   46.1180   17.5560 C.3   104  HIS104      0.0785
     87  CG        36.7930   47.1190   18.6360 C.ar  104  HIS104      0.0821
     88  ND1       37.7880   47.8910   19.1950 N.ar  104  HIS104     -0.2267
     89  CD2       35.6480   47.4570   19.2800 C.ar  104  HIS104      0.1154
     90  CE1       37.2690   48.6580   20.1390 C.ar  104  HIS104      0.1986
     91  NE2       35.9700   48.4210   20.2040 N.ar  104  HIS104     -0.2212
     92  N         37.7630   44.4720   20.4410 N.am  105  LEU105     -0.1963
     93  CA        37.2090   43.9670   21.6920 C.3   105  LEU105      0.1728
     94  C         35.9430   44.7260   22.0670 C.2   105  LEU105      0.2616
     95  O         35.9800   45.9290   22.2330 O.2   105  LEU105     -0.2715
     96  CB        38.2230   44.1260   22.8270 C.3   105  LEU105      0.0311
     97  CG        37.8290   43.5480   24.1910 C.3   105  LEU105      0.0022
     98  CD1       37.6650   42.0320   24.1290 C.3   105  LEU105      0.0001
     99  CD2       38.8700   43.9440   25.2370 C.3   105  LEU105      0.0001
    100  N         34.8300   44.0120   22.1930 N.am  106  MET106     -0.1963
    101  CA        33.5990   44.5820   22.7360 C.3   106  MET106      0.1736
    102  C         33.6640   44.5160   24.2580 C.2   106  MET106      0.2617
    103  O         33.5150   45.5420   24.9200 O.2   106  MET106     -0.2715
    104  CB        32.3700   43.8640   22.1740 C.3   106  MET106      0.0427
    105  CG        32.2680   43.9410   20.6520 C.3   106  MET106      0.0599
    106  SD        32.2260   45.6350   20.0040 S.3   106  MET106     -0.1393
    107  CE        30.5150   46.0880   20.2370 C.3   106  MET106      0.0692
    108  N         33.9250   43.3310   24.8100 N.am  107  GLY107     -0.1940
    109  CA        34.3190   43.2050   26.2220 C.3   107  GLY107      0.2014
    110  C         33.3300   42.4980   27.1460 C.2   107  GLY107      0.2639
    111  O         33.6340   42.2590   28.3140 O.2   107  GLY107     -0.2714
    112  N         32.1540   42.1660   26.6220 N.am  108  ALA108     -0.1963
    113  CA        31.1300   41.4410   27.3620 C.3   108  ALA108      0.1728
    114  C         30.2000   40.7960   26.3520 C.2   108  ALA108      0.2616
    115  O         30.2560   41.1150   25.1690 O.2   108  ALA108     -0.2715
    116  CB        30.3540   42.3880   28.2780 C.3   108  ALA108      0.0334
    117  N         29.3710   39.8670   26.8080 N.am  109  ASP109     -0.1971
    118  CA        28.3080   39.3270   25.9770 C.3   109  ASP109      0.1709
    119  C         26.9870   39.4380   26.7260 C.2   109  ASP109      0.2293
    120  O         26.9710   39.8540   27.8840 O.2   109  ASP109     -0.2864
    121  CB        28.6150   37.8850   25.5370 C.3   109  ASP109      0.1436
    122  CG        28.8130   36.9360   26.7120 C.2   109  ASP109      0.3671
    123  OD1       27.9200   36.8890   27.5680 O.co2 109  ASP109     -0.2456
    124  OD2       29.8510   36.2370   26.7650 O.co2 109  ASP109     -0.2456
    125  N         26.5470   37.4490   30.0660 N.3   112  ASN112     -0.1240
    126  CA        26.9890   38.2270   31.2370 C.3   112  ASN112      0.1653
    127  C         25.9610   39.2660   31.6960 C.2   112  ASN112      0.2266
    128  O         25.8490   39.5350   32.8930 O.2   112  ASN112     -0.2867
    129  CB        28.3170   38.9680   30.9580 C.3   112  ASN112      0.1155
    130  CG        29.3900   38.0800   30.3270 C.2   112  ASN112      0.2627
    131  OD1       30.2550   38.5680   29.5870 O.2   112  ASN112     -0.2716
    132  ND2       29.3410   36.7780   30.6150 N.am  112  ASN112     -0.0877
    133  N         25.4390   34.3540   24.4580 N.3   151  SER151     -0.1217
    134  CA        26.9040   34.3140   24.4260 C.3   151  SER151      0.1889
    135  C         27.5040   34.6740   23.0600 C.2   151  SER151      0.2288
    136  O         28.6870   35.0010   22.9810 O.2   151  SER151     -0.2866
    137  CB        27.4170   32.9420   24.8850 C.3   151  SER151      0.2089
    138  OG        27.2150   31.9530   23.8840 O.3   151  SER151     -0.2183
    139  N         28.1150   40.0260   21.4100 N.3   154  ALA154     -0.1245
    140  CA        29.1640   40.7480   22.1100 C.3   154  ALA154      0.1562
    141  C         28.7560   42.2150   22.2180 C.2   154  ALA154      0.2260
    142  O         28.2950   42.8230   21.2470 O.2   154  ALA154     -0.2867
    143  CB        30.5080   40.5840   21.3840 C.3   154  ALA154      0.0290
    144  N         28.6240   37.5040   17.0730 N.3   164  LEU164     -0.1231
    145  CA        29.7360   36.5960   17.0320 C.3   164  LEU164      0.1693
    146  C         29.3480   35.3200   16.2760 C.2   164  LEU164      0.2592
    147  O         28.3450   34.6530   16.5620 O.2   164  LEU164     -0.2718
    148  CB        30.2070   36.2060   18.4450 C.3   164  LEU164      0.0284
    149  CG        30.9620   37.2030   19.3290 C.3   164  LEU164      0.0019
    150  CD1       30.9910   36.6990   20.7680 C.3   164  LEU164      0.0001
    151  CD2       32.3860   37.4300   18.8450 C.3   164  LEU164      0.0001
    152  N         30.0740   35.1370   15.1920 N.am  165  ASP165     -0.1960
    153  CA        30.7490   33.9090   14.8260 C.3   165  ASP165      0.1840
    154  C         30.5470   32.7240   15.8300 C.2   165  ASP165      0.2622
    155  O         29.6090   31.9370   15.6800 O.2   165  ASP165     -0.2715
    156  CB        32.2020   34.4200   14.7220 C.3   165  ASP165      0.1450
    157  CG        33.1860   33.3780   14.4740 C.2   165  ASP165      0.3671
    158  OD1       33.0580   32.6810   13.4410 O.co2 165  ASP165     -0.2456
    159  OD2       34.1210   33.3250   15.3060 O.co2 165  ASP165     -0.2456
    160  N         31.4320   32.5910   16.8230 N.am  166  PHE166     -0.1974
    161  CA        31.2360   31.6920   17.9650 C.3   166  PHE166      0.1639
    162  C         31.5520   32.5010   19.2140 C.2   166  PHE166      0.2290
    163  O         32.4550   33.3500   19.2080 O.2   166  PHE166     -0.2864
    164  CB        32.1590   30.4690   17.9080 C.3   166  PHE166      0.0560
    165  CG        32.1010   29.7220   16.6070 C.ar  166  PHE166     -0.0200
    166  CD1       32.9500   30.0640   15.5590 C.ar  166  PHE166     -0.0042
    167  CD2       31.2000   28.6780   16.4300 C.ar  166  PHE166     -0.0042
    168  CE1       32.9110   29.3830   14.3600 C.ar  166  PHE166     -0.0003
    169  CE2       31.1460   27.9860   15.2210 C.ar  166  PHE166     -0.0003
    170  CZ        32.0110   28.3430   14.1780 C.ar  166  PHE166     -0.0000
    171  N         32.0240   32.7880   23.6730 N.3   168  LEU168     -0.1245
    172  CA        32.7840   32.1290   24.7300 C.3   168  LEU168      0.1561
    173  C         31.8860   31.1480   25.4820 C.2   168  LEU168      0.2260
    174  O         32.2230   29.9690   25.6310 O.2   168  LEU168     -0.2867
    175  CB        33.3670   33.1680   25.6920 C.3   168  LEU168      0.0270
    176  CG        34.2410   34.2660   25.0680 C.3   168  LEU168      0.0019
    177  CD1       34.5320   35.3520   26.1040 C.3   168  LEU168      0.0001
    178  CD2       35.5360   33.6950   24.5020 C.3   168  LEU168      0.0001
@<TRIPOS>BOND
     1    38    39    2
     2    38    37    1
     3    36    37    1
     4    37    40    1
     5    58    57    1
     6    55    54    2
     7    56    57    1
     8    56    53    1
     9    40    41    1
    10    57    59    1
    11    52    53    1
    12    54    53    1
    13    41    43    1
    14    41    42    1
    15    67    65    1
    16    47    46    2
    17    46    45    1
    18    65    66    1
    19    65    64    1
    20   158   157   ar
    21    44    45    1
    22    71    70    2
    23    45    48    1
    24    64    61    1
    25   170   168   ar
    26   170   169   ar
    27    61    60    1
    28    61    62    1
    29   168   166   ar
    30   157   156    1
    31   157   159   ar
    32   156   153    1
    33    68    62   am
    34    68    69    1
    35   153   152    1
    36   153   154    1
    37    48    50    1
    38    48    49    1
    39    73    72    1
    40   152   146   am
    41    70    69    1
    42    70    75   am
    43   169   167   ar
    44    62    63    2
    45    80    79    1
    46   166   165   ar
    47    69    72    1
    48   155   154    2
    49   154   160   am
    50    79    76    1
    51    79    81    1
    52    72    74    1
    53    76    75    1
    54    76    77    1
    55   146   147    2
    56   146   145    1
    57   167   165   ar
    58    49    51    1
    59   165   164    1
    60   160   161    1
    61    35    34    1
    62    82    77   am
    63    82    83    1
    64   145   144    1
    65   145   148    1
    66    30    29    2
    67    77    78    2
    68    86    83    1
    69    86    87    1
    70    33    34    1
    71    33    32    1
    72   164   161    1
    73   161   162    1
    74    83    84    1
    75    31    32    1
    76    31    28    1
    77    29    28    1
    78   148   149    1
    79    87    88   ar
    80    87    89   ar
    81    18    17    2
    82    27    28    1
    83    27    22   am
    84   151   149    1
    85    25    24    1
    86    85    84    2
    87    88    90   ar
    88   163   162    2
    89    84    92   am
    90    89    91   ar
    91   149   150    1
    92    21    22    1
    93    21    24    1
    94    21    20    1
    95    26    24    1
    96    22    23    2
    97    17    20   am
    98    17    16    1
    99   106   107    1
   100   106   105    1
   101    90    91   ar
   102    92    93    1
   103    15    16    1
   104   105   104    1
   105    16    19    1
   106   142   141    2
   107   143   140    1
   108   139   140    1
   109    93    94    1
   110    93    96    1
   111    14    12    1
   112    94   100   am
   113    94    95    2
   114   140   141    1
   115   104   101    1
   116   100   101    1
   117   101   102    1
   118    13    12    1
   119    96    97    1
   120   136   135    2
   121   135   134    1
   122    12     9    1
   123     9     8    1
   124     9    10    1
   125   171   172    1
   126   138   137    1
   127    98    97    1
   128    97    99    1
   129   102   108   am
   130   102   103    2
   131    10    11    2
   132   134   133    1
   133   134   137    1
   134   178   176    1
   135   172   173    1
   136   172   175    1
   137   108   109    1
   138   176   175    1
   139   176   177    1
   140   115   114    2
   141   173   174    2
   142   121   118    1
   143   121   122    1
   144   118   119    1
   145   118   117    1
   146     7     5    1
   147   109   110    1
   148   114   117   am
   149   114   113    1
   150   112   110   am
   151   112   113    1
   152   122   124   ar
   153   122   123   ar
   154   119   120    2
   155   110   111    2
   156   113   116    1
   157     5     6    1
   158     5     2    1
   159     1     2    1
   160     3     2    1
   161     3     4    2
   162   131   130    2
   163   125   126    1
   164   130   132   am
   165   130   129    1
   166   129   126    1
   167   126   127    1
   168   127   128    2
