@<TRIPOS>MOLECULE
tmp/3hp5A00.pdb
 172 162 0 0 0
SMALL
GASTEIGER

@<TRIPOS>ATOM
      1  N         40.3610   35.6970   27.7000 N.3    25  VAL25      -0.1245
      2  CA        38.9320   35.9020   27.9450 C.3    25  VAL25       0.1561
      3  C         38.2410   34.5460   28.0580 C.2    25  VAL25       0.2260
      4  O         38.6240   33.5830   27.3880 O.2    25  VAL25      -0.2867
      5  CB        38.2370   36.8220   26.8830 C.3    25  VAL25       0.0252
      6  CG1       39.2550   37.6970   26.1620 C.3    25  VAL25       0.0019
      7  CG2       37.4010   36.0200   25.8990 C.3    25  VAL25       0.0019
      8  N         40.7850   32.5250   23.0930 N.3    28  VAL28      -0.1245
      9  CA        40.6010   33.9600   22.8780 C.3    28  VAL28       0.1561
     10  C         41.3300   34.7820   23.9230 C.2    28  VAL28       0.2260
     11  O         41.2870   34.4700   25.1090 O.2    28  VAL28      -0.2867
     12  CB        39.1070   34.3470   22.9040 C.3    28  VAL28       0.0252
     13  CG1       38.9210   35.8260   22.5920 C.3    28  VAL28       0.0019
     14  CG2       38.3170   33.4750   21.9240 C.3    28  VAL28       0.0019
     15  N         40.0820   41.7380   20.1910 N.3    41  ALA41      -0.1231
     16  CA        39.9100   40.3420   20.5580 C.3    41  ALA41       0.1694
     17  C         40.6710   39.4920   19.5320 C.2    41  ALA41       0.2592
     18  O         40.4810   39.6410   18.3160 O.2    41  ALA41      -0.2718
     19  CB        38.4100   39.9670   20.6060 C.3    41  ALA41       0.0304
     20  N         41.5520   38.6270   20.0320 N.am   42  VAL42      -0.1966
     21  CA        42.3710   37.7620   19.1850 C.3    42  VAL42       0.1727
     22  C         42.0480   36.2950   19.4560 C.2    42  VAL42       0.2616
     23  O         42.1800   35.8390   20.6050 O.2    42  VAL42      -0.2715
     24  CB        43.8810   37.9730   19.4460 C.3    42  VAL42       0.0290
     25  CG1       44.7240   37.2020   18.4140 C.3    42  VAL42       0.0023
     26  CG2       44.2250   39.4440   19.4360 C.3    42  VAL42       0.0023
     27  N         41.6550   35.5730   18.3960 N.am   43  LYS43      -0.1977
     28  CA        41.3090   34.1460   18.4630 C.3    43  LYS43       0.1596
     29  C         42.4150   33.2710   17.8570 C.2    43  LYS43       0.2287
     30  O         42.8010   33.4580   16.7010 O.2    43  LYS43      -0.2864
     31  CB        40.0040   33.8970   17.6940 C.3    43  LYS43       0.0298
     32  CG        39.3420   32.5310   17.8930 C.3    43  LYS43       0.0038
     33  CD        38.2650   32.3140   16.8180 C.3    43  LYS43       0.0206
     34  CE        37.0550   31.5270   17.2820 C.3    43  LYS43       0.1093
     35  NZ        36.9520   30.1710   16.6880 N.3    43  LYS43      -0.1314
     36  N         35.5030   29.5290    8.5220 N.3    61  GLU61      -0.1245
     37  CA        35.4890   30.6480    9.4850 C.3    61  GLU61       0.1567
     38  C         36.2380   31.8420    8.9180 C.2    61  GLU61       0.2260
     39  O         35.7370   32.9610    8.9630 O.2    61  GLU61      -0.2867
     40  CB        36.0870   30.2520   10.8440 C.3    61  GLU61       0.0388
     41  CG        36.0290   31.3870   11.8830 C.3    61  GLU61       0.1160
     42  CD        36.3390   30.9540   13.3050 C.2    61  GLU61       0.3649
     43  OE1       36.2010   31.7860   14.2280 O.co2  61  GLU61      -0.2457
     44  OE2       36.7100   29.7900   13.5180 O.co2  61  GLU61      -0.2457
     45  N         34.6320   35.5410    7.9420 N.3    65  LEU65      -0.1245
     46  CA        35.1180   36.7620    8.6130 C.3    65  LEU65       0.1561
     47  C         35.7210   37.7670    7.6350 C.2    65  LEU65       0.2260
     48  O         35.6350   38.9700    7.8380 O.2    65  LEU65      -0.2867
     49  CB        36.1210   36.4120    9.7220 C.3    65  LEU65       0.0270
     50  CG        35.5520   35.6480   10.9260 C.3    65  LEU65       0.0019
     51  CD1       36.6490   35.0470   11.7740 C.3    65  LEU65       0.0001
     52  CD2       34.6640   36.5590   11.7900 C.3    65  LEU65       0.0001
     53  N         30.7280   40.8460   13.3740 N.3    74  ILE74      -0.1231
     54  CA        32.1590   40.6890   13.6020 C.3    74  ILE74       0.1692
     55  C         32.8760   40.4490   12.2710 C.2    74  ILE74       0.2593
     56  O         32.5280   39.5480   11.5120 O.2    74  ILE74      -0.2718
     57  CB        32.4390   39.5560   14.6240 C.3    74  ILE74       0.0266
     58  CG1       31.8770   39.9440   15.9950 C.3    74  ILE74       0.0019
     59  CG2       33.9410   39.2510   14.7540 C.3    74  ILE74       0.0020
     60  CD1       32.6400   41.0100   16.6990 C.3    74  ILE74       0.0001
     61  N         33.8500   41.3050   11.9920 N.am   75  GLY75      -0.1942
     62  CA        34.7310   41.1890   10.8370 C.3    75  GLY75       0.2014
     63  C         36.1760   41.2060   11.2950 C.2    75  GLY75       0.2638
     64  O         36.4520   41.2330   12.5070 O.2    75  GLY75      -0.2714
     65  N         37.0880   41.2210   10.3220 N.am   76  LEU76      -0.1977
     66  CA        38.5260   41.1060   10.5820 C.3    76  LEU76       0.1596
     67  C         39.2900   42.4230   10.5490 C.2    76  LEU76       0.2287
     68  O         39.3240   43.1010    9.5180 O.2    76  LEU76      -0.2864
     69  CB        39.1820   40.1740    9.5600 C.3    76  LEU76       0.0297
     70  CG        39.0040   38.6690    9.7110 C.3    76  LEU76       0.0022
     71  CD1       39.8360   37.9650    8.6390 C.3    76  LEU76       0.0001
     72  CD2       39.3850   38.1770   11.1210 C.3    76  LEU76       0.0001
     73  N         43.0100   35.2130   14.3410 N.3    94  LEU94      -0.1231
     74  CA        42.0500   36.1680   13.8270 C.3    94  LEU94       0.1693
     75  C         41.8670   37.2930   14.8560 C.2    94  LEU94       0.2592
     76  O         41.6760   37.0080   16.0390 O.2    94  LEU94      -0.2718
     77  CB        40.7050   35.4600   13.6160 C.3    94  LEU94       0.0284
     78  CG        40.6920   34.1690   12.7820 C.3    94  LEU94       0.0019
     79  CD1       39.4140   33.3520   13.0470 C.3    94  LEU94       0.0001
     80  CD2       40.8600   34.4930   11.2990 C.3    94  LEU94       0.0001
     81  N         41.9160   38.5500   14.4120 N.am   95  VAL95      -0.1966
     82  CA        41.6980   39.7000   15.3100 C.3    95  VAL95       0.1727
     83  C         40.5190   40.5980   14.8580 C.2    95  VAL95       0.2617
     84  O         40.2640   40.7790   13.6640 O.2    95  VAL95      -0.2715
     85  CB        43.0440   40.4770   15.6190 C.3    95  VAL95       0.0290
     86  CG1       44.1750   40.0470   14.6840 C.3    95  VAL95       0.0023
     87  CG2       42.8710   41.9870   15.6630 C.3    95  VAL95       0.0023
     88  N         39.7880   41.1120   15.8440 N.am   96  THR96      -0.1937
     89  CA        38.6140   41.9570   15.6190 C.3    96  THR96       0.2028
     90  C         38.5060   43.0230   16.7160 C.2    96  THR96       0.2642
     91  O         39.2130   42.9380   17.7190 O.2    96  THR96      -0.2714
     92  CB        37.3180   41.0970   15.5620 C.3    96  THR96       0.1808
     93  OG1       36.2360   41.8970   15.0970 O.3    96  THR96      -0.2208
     94  CG2       36.9610   40.5030   16.9220 C.3    96  THR96       0.0379
     95  N         37.6500   44.0310   16.5070 N.am   97  HIS97      -0.1959
     96  CA        37.3850   45.0720   17.5110 C.3    97  HIS97       0.1787
     97  C         36.8470   44.4200   18.7820 C.2    97  HIS97       0.2620
     98  O         35.8300   43.7320   18.7240 O.2    97  HIS97      -0.2715
     99  CB        36.2730   46.0510   17.0860 C.3    97  HIS97       0.0785
    100  CG        36.5250   46.8240   15.8280 C.ar   97  HIS97       0.0821
    101  ND1       36.2360   46.3230   14.5740 N.ar   97  HIS97      -0.2267
    102  CD2       36.9250   48.1020   15.6360 C.ar   97  HIS97       0.1154
    103  CE1       36.5060   47.2410   13.6620 C.ar   97  HIS97       0.1986
    104  NE2       36.9260   48.3290   14.2800 N.ar   97  HIS97      -0.2212
    105  N         37.4730   44.6800   19.9310 N.am   98  LEU98      -0.1963
    106  CA        36.9320   44.1900   21.1910 C.3    98  LEU98       0.1728
    107  C         35.7400   45.0380   21.6150 C.2    98  LEU98       0.2616
    108  O         35.7940   46.2640   21.5390 O.2    98  LEU98      -0.2715
    109  CB        37.9870   44.1880   22.2810 C.3    98  LEU98       0.0311
    110  CG        37.5280   43.6910   23.6490 C.3    98  LEU98       0.0022
    111  CD1       38.6460   42.9490   24.3140 C.3    98  LEU98       0.0001
    112  CD2       37.0470   44.8600   24.5390 C.3    98  LEU98       0.0001
    113  N         34.6670   44.3660   22.0370 N.am   99  MET99      -0.1963
    114  CA        33.4760   45.0160   22.5760 C.3    99  MET99       0.1736
    115  C         33.5270   44.9470   24.1000 C.2    99  MET99       0.2617
    116  O         33.3420   45.9500   24.7610 O.2    99  MET99      -0.2715
    117  CB        32.2090   44.3530   22.0370 C.3    99  MET99       0.0427
    118  CG        32.1230   44.3230   20.5050 C.3    99  MET99       0.0599
    119  SD        32.0540   45.9780   19.7810 S.3    99  MET99      -0.1393
    120  CE        30.2950   46.2510   19.6480 C.3    99  MET99       0.0692
    121  N         33.8020   43.7620   24.6470 N.am  100  GLY100     -0.1940
    122  CA        34.1690   43.6310   26.0660 C.3   100  GLY100      0.2014
    123  C         33.2660   42.7780   26.9400 C.2   100  GLY100      0.2639
    124  O         33.6320   42.4410   28.0690 O.2   100  GLY100     -0.2714
    125  N         32.0880   42.4400   26.4280 N.am  101  ALA101     -0.1963
    126  CA        31.1390   41.6110   27.1470 C.3   101  ALA101      0.1728
    127  C         30.1660   41.0050   26.1490 C.2   101  ALA101      0.2616
    128  O         30.1980   41.3420   24.9710 O.2   101  ALA101     -0.2715
    129  CB        30.3950   42.4350   28.1820 C.3   101  ALA101      0.0334
    130  N         29.3050   40.1110   26.6190 N.am  102  ASP102     -0.1971
    131  CA        28.2220   39.5810   25.7840 C.3   102  ASP102      0.1709
    132  C         26.8560   39.9500   26.3750 C.2   102  ASP102      0.2293
    133  O         26.7860   40.5590   27.4410 O.2   102  ASP102     -0.2864
    134  CB        28.3800   38.0730   25.5610 C.3   102  ASP102      0.1436
    135  CG        28.3150   37.2760   26.8360 C.2   102  ASP102      0.3671
    136  OD1       27.4300   37.5500   27.6640 O.co2 102  ASP102     -0.2456
    137  OD2       29.1440   36.3600   27.0040 O.co2 102  ASP102     -0.2456
    138  N         26.0140   38.6820   29.7550 N.3   105  ASN105     -0.1240
    139  CA        26.6550   39.5060   30.7960 C.3   105  ASN105      0.1653
    140  C         25.7890   40.6940   31.1930 C.2   105  ASN105      0.2266
    141  O         25.8180   41.1270   32.3470 O.2   105  ASN105     -0.2867
    142  CB        28.0190   40.0470   30.3290 C.3   105  ASN105      0.1155
    143  CG        29.1330   39.0090   30.3930 C.2   105  ASN105      0.2627
    144  OD1       29.8090   38.7360   29.3900 O.2   105  ASN105     -0.2716
    145  ND2       29.3460   38.4430   31.5810 N.am  105  ASN105     -0.0877
    146  N         25.2240   34.8040   24.3130 N.3   144  SER144     -0.1217
    147  CA        26.6700   34.6720   24.3420 C.3   144  SER144      0.1889
    148  C         27.3410   34.8270   22.9740 C.2   144  SER144      0.2288
    149  O         28.5680   34.9490   22.9090 O.2   144  SER144     -0.2866
    150  CB        27.0690   33.3510   24.9810 C.3   144  SER144      0.2089
    151  OG        26.2350   32.3190   24.5270 O.3   144  SER144     -0.2183
    152  N         28.1090   40.2760   21.0520 N.3   147  ALA147     -0.1245
    153  CA        29.1570   41.0240   21.7460 C.3   147  ALA147      0.1562
    154  C         28.6970   42.4600   21.8720 C.2   147  ALA147      0.2260
    155  O         28.2550   43.0530   20.8910 O.2   147  ALA147     -0.2867
    156  CB        30.4880   40.9380   20.9710 C.3   147  ALA147      0.0290
    157  N         28.4790   37.4710   16.6050 N.3   157  LEU157     -0.1231
    158  CA        29.6300   36.6120   16.3560 C.3   157  LEU157      0.1693
    159  C         29.2160   35.1280   16.1850 C.2   157  LEU157      0.2592
    160  O         28.1400   34.7310   16.6350 O.2   157  LEU157     -0.2718
    161  CB        30.6580   36.8370   17.4840 C.3   157  LEU157      0.0284
    162  CG        30.5980   36.2040   18.8800 C.3   157  LEU157      0.0019
    163  CD1       31.8320   35.3370   19.0970 C.3   157  LEU157      0.0001
    164  CD2       30.5800   37.2750   19.9640 C.3   157  LEU157      0.0001
    165  N         30.0370   34.3570   15.4640 N.am  158  ASP158     -0.1974
    166  CA        30.0520   32.8570   15.4830 C.3   158  ASP158      0.1709
    167  C         29.0200   32.0980   14.6360 C.2   158  ASP158      0.2293
    168  O         28.4940   31.0730   15.0650 O.2   158  ASP158     -0.2864
    169  CB        30.0020   32.3100   16.9300 C.3   158  ASP158      0.1436
    170  CG        31.3380   32.4210   17.6550 C.2   158  ASP158      0.3671
    171  OD1       32.3230   32.9020   17.0410 O.co2 158  ASP158     -0.2456
    172  OD2       31.3960   32.0280   18.8520 O.co2 158  ASP158     -0.2456
@<TRIPOS>BOND
     1    47    48    2
     2    47    46    1
     3    45    46    1
     4    36    37    1
     5    46    49    1
     6    71    70    1
     7    38    39    2
     8    38    37    1
     9    37    40    1
    10    68    67    2
    11    69    70    1
    12    69    66    1
    13    70    72    1
    14    49    50    1
    15    65    66    1
    16    65    63   am
    17    67    66    1
    18    62    63    1
    19    62    61    1
    20    40    41    1
    21    50    51    1
    22    50    52    1
    23    63    64    2
    24    80    78    1
    25    56    55    2
    26    41    42    1
    27    61    55   am
    28    55    54    1
    29    78    79    1
    30    78    77    1
    31    42    44   ar
    32    42    43   ar
    33    53    54    1
    34    54    57    1
    35    77    74    1
    36   103   104   ar
    37   103   101   ar
    38    84    83    2
    39    74    73    1
    40    74    75    1
    41   104   102   ar
    42    81    75   am
    43    81    82    1
    44   101   100   ar
    45    57    59    1
    46    57    58    1
    47   167   168    2
    48   167   166    1
    49    86    85    1
    50    75    76    2
    51    83    82    1
    52    83    88   am
    53    93    92    1
    54    82    85    1
    55   165   166    1
    56   165   159   am
    57   166   169    1
    58    92    89    1
    59    92    94    1
    60    85    87    1
    61    89    88    1
    62    89    90    1
    63   102   100   ar
    64   100    99    1
    65    58    60    1
    66   159   158    1
    67   159   160    2
    68   158   157    1
    69   158   161    1
    70    95    90   am
    71    95    96    1
    72    35    34    1
    73    30    29    2
    74    90    91    2
    75    33    34    1
    76    33    32    1
    77   169   170    1
    78   171   170   ar
    79    99    96    1
    80   161   162    1
    81    96    97    1
    82   170   172   ar
    83    31    32    1
    84    31    28    1
    85    29    28    1
    86    18    17    2
    87    27    28    1
    88    27    22   am
    89    25    24    1
    90    98    97    2
    91    97   105   am
    92   162   163    1
    93   162   164    1
    94    21    24    1
    95    21    22    1
    96    21    20    1
    97    26    24    1
    98    22    23    2
    99    17    20   am
   100    17    16    1
   101   120   119    1
   102   119   118    1
   103   105   106    1
   104    15    16    1
   105   118   117    1
   106    16    19    1
   107   155   154    2
   108   156   153    1
   109   152   153    1
   110   106   107    1
   111   106   109    1
   112   108   107    2
   113   107   113   am
   114   153   154    1
   115    14    12    1
   116   117   114    1
   117   113   114    1
   118   109   110    1
   119   114   115    1
   120    13    12    1
   121     9    12    1
   122     9     8    1
   123     9    10    1
   124   149   148    2
   125   148   147    1
   126   110   111    1
   127   110   112    1
   128    10    11    2
   129   115   121   am
   130   115   116    2
   131   146   147    1
   132   147   150    1
   133   151   150    1
   134   121   122    1
   135   128   127    2
   136   134   131    1
   137   134   135    1
   138   131   132    1
   139   131   130    1
   140     7     5    1
   141   122   123    1
   142   127   130   am
   143   127   126    1
   144     6     5    1
   145   132   133    2
   146   125   123   am
   147   125   126    1
   148   135   137   ar
   149   135   136   ar
   150     5     2    1
   151   123   124    2
   152   126   129    1
   153     4     3    2
   154     1     2    1
   155     2     3    1
   156   144   143    2
   157   138   139    1
   158   142   143    1
   159   142   139    1
   160   143   145   am
   161   139   140    1
   162   140   141    2
