@<TRIPOS>MOLECULE
tmp/3hp8B00.pdb
 101 98 0 0 0
SMALL
GASTEIGER

@<TRIPOS>ATOM
      1  N         -5.2850    2.3990   40.2180 N.3    42  GLY42      -0.1210
      2  CA        -4.7460    3.3120   41.2360 C.3    42  GLY42       0.1956
      3  C         -3.2620    3.5690   41.0590 C.2    42  GLY42       0.2612
      4  O         -2.6240    2.9550   40.2130 O.2    42  GLY42      -0.2717
      5  N         -2.7300    4.5030   41.8510 N.am   43  ASN43      -0.1960
      6  CA        -1.3050    4.7810   41.9550 C.3    43  ASN43       0.1819
      7  C         -0.8420    4.3810   43.3620 C.2    43  ASN43       0.2621
      8  O         -1.3250    4.9250   44.3810 O.2    43  ASN43      -0.2715
      9  CB        -1.0540    6.2680   41.7010 C.3    43  ASN43       0.1195
     10  CG         0.3840    6.6990   42.0060 C.2    43  ASN43       0.2630
     11  OD1        1.3130    5.8960   41.9490 O.2    43  ASN43      -0.2716
     12  ND2        0.5710    7.9940   42.2630 N.am   43  ASN43      -0.0877
     13  N         -0.0140    3.3350   43.4120 N.am   44  ASN44      -0.1958
     14  CA         0.3610    2.7080   44.6740 C.3    44  ASN44       0.1819
     15  C          1.8550    2.8370   44.8020 C.2    44  ASN44       0.2621
     16  O          2.5860    2.0810   44.1740 O.2    44  ASN44      -0.2715
     17  CB        -0.0220    1.2250   44.6810 C.3    44  ASN44       0.1195
     18  CG         0.4820    0.4990   45.9220 C.2    44  ASN44       0.2630
     19  OD1        1.1040    1.1000   46.8050 O.2    44  ASN44      -0.2716
     20  ND2        0.2160   -0.8010   45.9930 N.am   44  ASN44      -0.0877
     21  N          2.2980    3.8740   45.5000 N.am   45  ASP45      -0.1957
     22  CA         3.7280    4.1750   45.6350 C.3    45  ASP45       0.1840
     23  C          4.4150    4.3000   44.2760 C.2    45  ASP45       0.2622
     24  O          5.4980    3.7530   44.0470 O.2    45  ASP45      -0.2715
     25  CB         4.4080    3.1300   46.5410 C.3    45  ASP45       0.1450
     26  CG         5.8050    3.5380   46.9670 C.2    45  ASP45       0.3671
     27  OD1        6.1060    4.7410   46.9470 O.co2  45  ASP45      -0.2456
     28  OD2        6.6240    2.6420   47.2600 O.co2  45  ASP45      -0.2456
     29  N          3.7520    4.9910   43.3540 N.am   46  GLY46      -0.1954
     30  CA         4.3440    5.2980   42.0580 C.3    46  GLY46       0.1869
     31  C          4.3170    4.1900   41.0280 C.2    46  GLY46       0.2309
     32  O          5.1140    4.2150   40.0900 O.2    46  GLY46      -0.2863
     33  N         -7.8420    3.2000   42.6270 N.3    53  GLN53      -0.1231
     34  CA        -8.6290    4.3040   42.0740 C.3    53  GLN53       0.1698
     35  C         -7.7420    5.5260   41.8800 C.2    53  GLN53       0.2592
     36  O         -6.7330    5.6550   42.5570 O.2    53  GLN53      -0.2718
     37  CB        -9.7580    4.6860   43.0200 C.3    53  GLN53       0.0381
     38  CG       -10.8110    3.6320   43.2020 C.3    53  GLN53       0.0905
     39  CD       -12.0660    4.2130   43.8200 C.2    53  GLN53       0.2608
     40  OE1      -13.1470    4.1570   43.2260 O.2    53  GLN53      -0.2717
     41  NE2      -11.9110    4.8600   44.9780 N.am   53  GLN53      -0.0878
     42  N         -8.1100    6.4030   40.9440 N.am   54  ASN54      -0.1960
     43  CA        -7.5740    7.7760   40.8500 C.3    54  ASN54       0.1819
     44  C         -6.1080    7.9080   40.4450 C.2    54  ASN54       0.2621
     45  O         -5.4380    8.8570   40.8450 O.2    54  ASN54      -0.2715
     46  CB        -7.8050    8.5690   42.1440 C.3    54  ASN54       0.1195
     47  CG        -9.2560    8.5510   42.5990 C.2    54  ASN54       0.2630
     48  OD1       -9.5370    8.2820   43.7680 O.2    54  ASN54      -0.2716
     49  ND2      -10.1860    8.7850   41.6730 N.am   54  ASN54      -0.0877
     50  N         -5.6150    6.9720   39.6490 N.am   55  PHE55      -0.1974
     51  CA        -4.2800    7.1000   39.0780 C.3    55  PHE55       0.1639
     52  C         -4.0310    8.4350   38.3580 C.2    55  PHE55       0.2290
     53  O         -2.8780    8.8330   38.1850 O.2    55  PHE55      -0.2864
     54  CB        -3.9740    5.9160   38.1520 C.3    55  PHE55       0.0560
     55  CG        -4.3760    6.1430   36.7240 C.ar   55  PHE55      -0.0200
     56  CD1       -5.6380    5.8000   36.2840 C.ar   55  PHE55      -0.0042
     57  CD2       -3.4830    6.6900   35.8150 C.ar   55  PHE55      -0.0042
     58  CE1       -6.0160    6.0210   34.9710 C.ar   55  PHE55      -0.0003
     59  CE2       -3.8590    6.9220   34.4900 C.ar   55  PHE55      -0.0003
     60  CZ        -5.1340    6.5780   34.0740 C.ar   55  PHE55      -0.0000
     61  N         -4.9310   11.4220   39.3080 N.3    57  GLU57      -0.1231
     62  CA        -4.9050   12.5420   40.2460 C.3    57  GLU57       0.1699
     63  C         -3.6990   13.4990   40.1150 C.2    57  GLU57       0.2592
     64  O         -3.8920   14.7120   40.0600 O.2    57  GLU57      -0.2718
     65  CB        -5.0750   12.0460   41.6810 C.3    57  GLU57       0.0402
     66  CG        -5.4170   13.1450   42.6700 C.3    57  GLU57       0.1161
     67  CD        -5.1240   12.7360   44.0820 C.2    57  GLU57       0.3649
     68  OE1       -6.1010   12.5920   44.8520 O.co2  57  GLU57      -0.2457
     69  OE2       -3.9290   12.5270   44.4070 O.co2  57  GLU57      -0.2457
     70  N         -2.4810   12.9660   40.0170 N.am   58  THR58      -0.1953
     71  CA        -1.3020   13.7860   39.7550 C.3    58  THR58       0.1897
     72  C         -0.3720   13.1880   38.7200 C.2    58  THR58       0.2313
     73  O          0.7710   13.6110   38.6040 O.2    58  THR58      -0.2863
     74  CB        -0.4620   14.0530   41.0380 C.3    58  THR58       0.1794
     75  OG1       -0.0140   12.8080   41.6090 O.3    58  THR58      -0.2208
     76  CG2       -1.2740   14.8140   42.0710 C.3    58  THR58       0.0378
     77  N          3.4600    9.5490   40.7270 N.3    81  ARG81      -0.1231
     78  CA         4.0360   10.1160   41.9430 C.3    81  ARG81       0.1694
     79  C          4.1800    9.0760   43.0730 C.2    81  ARG81       0.2592
     80  O          3.1790    8.6390   43.6650 O.2    81  ARG81      -0.2718
     81  CB         3.1580   11.2840   42.4060 C.3    81  ARG81       0.0321
     82  CG         3.5290   11.8690   43.7500 C.3    81  ARG81       0.0489
     83  CD         2.9530   13.2590   43.9070 C.3    81  ARG81       0.2205
     84  NE         3.6500   14.0220   44.9370 N.pl3  81  ARG81      -0.0865
     85  CZ         3.4920   13.8330   46.2420 C.cat  81  ARG81       0.5346
     86  NH1        2.6540   12.9110   46.6780 N.pl3  81  ARG81       0.1354
     87  NH2        4.1530   14.5870   47.1160 N.pl3  81  ARG81       0.1354
     88  N          5.4180    8.7350   43.4260 N.am   82  ASP82      -0.1960
     89  CA         5.6470    7.7710   44.5270 C.3    82  ASP82       0.1840
     90  C          5.4290    8.3720   45.9180 C.2    82  ASP82       0.2622
     91  O          5.0900    9.5470   46.0280 O.2    82  ASP82      -0.2715
     92  CB         7.0030    7.0440   44.4070 C.3    82  ASP82       0.1450
     93  CG         8.1950    7.9050   44.8150 C.2    82  ASP82       0.3671
     94  OD1        8.0240    8.9260   45.5230 O.co2  82  ASP82      -0.2456
     95  OD2        9.3220    7.5340   44.4080 O.co2  82  ASP82      -0.2456
     96  N          5.5910    7.5630   46.9660 N.am   83  CYS83      -0.1968
     97  CA         5.2680    7.9990   48.3440 C.3    83  CYS83       0.1712
     98  C          6.1140    9.1650   48.8650 C.2    83  CYS83       0.2296
     99  O          5.7200    9.8670   49.7920 O.2    83  CYS83      -0.2864
    100  CB         5.3780    6.8340   49.3260 C.3    83  CYS83       0.0983
    101  SG         4.0340    5.6810   49.1930 S.3    83  CYS83      -0.0798
@<TRIPOS>BOND
     1    60    59   ar
     2    60    58   ar
     3    59    57   ar
     4    58    56   ar
     5    57    55   ar
     6    56    55   ar
     7    55    54    1
     8    54    51    1
     9    53    52    2
    10    52    51    1
    11    73    72    2
    12    72    71    1
    13    51    50    1
    14    61    62    1
    15    50    44   am
    16    71    70    1
    17    71    74    1
    18    70    63   am
    19    64    63    2
    20    32    31    2
    21    63    62    1
    22     4     3    2
    23     1     2    1
    24    62    65    1
    25    44    45    2
    26    44    43    1
    27    77    78    1
    28    43    42    1
    29    43    46    1
    30    42    35   am
    31    31    30    1
    32    74    75    1
    33    74    76    1
    34     3     2    1
    35     3     5   am
    36    49    47   am
    37    65    66    1
    38     9     6    1
    39     9    10    1
    40     5     6    1
    41    35    34    1
    42    35    36    2
    43    78    81    1
    44    78    79    1
    45    11    10    2
    46     6     7    1
    47    10    12   am
    48    30    29    1
    49    34    33    1
    50    34    37    1
    51    46    47    1
    52    81    82    1
    53    47    48    2
    54    66    67    1
    55    37    38    1
    56    79    88   am
    57    79    80    2
    58    38    39    1
    59    40    39    2
    60    29    23   am
    61     7    13   am
    62     7     8    2
    63    13    14    1
    64    88    89    1
    65    82    83    1
    66    39    41   am
    67    83    84    1
    68    24    23    2
    69    67    69   ar
    70    67    68   ar
    71    16    15    2
    72    23    22    1
    73    92    89    1
    74    92    93    1
    75    95    93   ar
    76    89    90    1
    77    14    17    1
    78    14    15    1
    79    17    18    1
    80    15    21   am
    81    93    94   ar
    82    84    85    2
    83    21    22    1
    84    22    25    1
    85    90    91    2
    86    90    96   am
    87    18    20   am
    88    18    19    2
    89    85    86    1
    90    85    87    1
    91    25    26    1
    92    27    26   ar
    93    96    97    1
    94    26    28   ar
    95    97    98    1
    96    97   100    1
    97    98    99    2
    98   101   100    1
