@<TRIPOS>MOLECULE
tmp/3hp8B01.pdb
 105 101 0 0 0
SMALL
GASTEIGER

@<TRIPOS>ATOM
      1  N         -5.6290  -12.6680   26.5760 N.3     1  MET1       -0.1230
      2  CA        -6.7290  -11.9400   25.8740 C.3     1  MET1        0.1702
      3  C         -7.1220  -10.6680   26.6420 C.2     1  MET1        0.2593
      4  O         -7.0980  -10.6360   27.8750 O.2     1  MET1       -0.2718
      5  CB        -7.9550  -12.8420   25.6920 C.3     1  MET1        0.0401
      6  CG        -8.8370  -12.9190   26.9390 C.3     1  MET1        0.0596
      7  SD       -10.4630  -13.6920   26.6960 S.3     1  MET1       -0.1393
      8  CE       -11.1280  -13.5470   28.3710 C.3     1  MET1        0.0692
      9  N         -7.4760   -9.6260   25.9030 N.am    2  SER2       -0.1938
     10  CA        -8.0200   -8.4080   26.4990 C.3     2  SER2        0.2055
     11  C         -9.2030   -7.9170   25.6680 C.2     2  SER2        0.2643
     12  O         -9.4220   -8.3880   24.5450 O.2     2  SER2       -0.2714
     13  CB        -6.9490   -7.3210   26.5190 C.3     2  SER2        0.2130
     14  OG        -6.7270   -6.8360   25.2030 O.3     2  SER2       -0.2179
     15  N         -9.9390   -6.9460   26.1900 N.am    3  TYR3       -0.1973
     16  CA       -10.9660   -6.2800   25.3810 C.3     3  TYR3        0.1639
     17  C        -10.4470   -6.0450   23.9530 C.2     3  TYR3        0.2290
     18  O        -11.2100   -6.0940   22.9940 O.2     3  TYR3       -0.2864
     19  CB       -11.3570   -4.9380   26.0150 C.3     3  TYR3        0.0560
     20  CG       -10.3220   -3.8820   25.7650 C.ar    3  TYR3       -0.0198
     21  CD1      -10.3920   -3.0750   24.6290 C.ar    3  TYR3       -0.0009
     22  CD2       -9.2170   -3.7490   26.6020 C.ar    3  TYR3       -0.0009
     23  CE1       -9.4120   -2.1520   24.3520 C.ar    3  TYR3        0.0417
     24  CE2       -8.2390   -2.7990   26.3400 C.ar    3  TYR3        0.0417
     25  CZ        -8.3420   -2.0030   25.2180 C.ar    3  TYR3        0.1957
     26  OH        -7.3620   -1.0620   24.9330 O.3     3  TYR3       -0.2866
     27  N         -8.8110   -7.6270   21.7520 N.3     5  ASP5       -0.1225
     28  CA        -8.9860   -8.6830   20.7590 C.3     5  ASP5        0.1805
     29  C        -10.3170   -8.6300   20.0030 C.2     5  ASP5        0.2598
     30  O        -10.4780   -9.3020   18.9850 O.2     5  ASP5       -0.2718
     31  CB        -8.8180  -10.0380   21.4270 C.3     5  ASP5        0.1424
     32  CG        -7.4350  -10.2150   22.0040 C.2     5  ASP5        0.3668
     33  OD1       -6.4570   -9.9320   21.2690 O.co2   5  ASP5       -0.2456
     34  OD2       -7.3310  -10.6100   23.1850 O.co2   5  ASP5       -0.2456
     35  N        -11.2810   -7.8810   20.5250 N.am    6  SER6       -0.1952
     36  CA       -12.6030   -7.8270   19.9190 C.3     6  SER6        0.1924
     37  C        -13.1560   -6.4060   20.0390 C.2     6  SER6        0.2314
     38  O        -14.3610   -6.1970   20.2570 O.2     6  SER6       -0.2863
     39  CB       -13.5270   -8.8200   20.6100 C.3     6  SER6        0.2116
     40  OG       -13.6750   -8.4850   21.9780 O.3     6  SER6       -0.2180
     41  N        -17.1530   -5.2840   19.6770 N.3    24  ARG24      -0.1231
     42  CA       -18.0440   -6.2690   19.0630 C.3    24  ARG24       0.1694
     43  C        -18.8290   -7.0720   20.1040 C.2    24  ARG24       0.2592
     44  O        -18.2550   -7.7070   21.0080 O.2    24  ARG24      -0.2718
     45  CB       -17.2830   -7.1980   18.1300 C.3    24  ARG24       0.0321
     46  CG       -18.1970   -7.9450   17.1480 C.3    24  ARG24       0.0489
     47  CD       -17.4080   -8.8240   16.1760 C.3    24  ARG24       0.2205
     48  NE       -16.5290   -9.7060   16.9240 N.pl3  24  ARG24      -0.0865
     49  CZ       -15.2130   -9.7440   16.7830 C.cat  24  ARG24       0.5346
     50  NH1      -14.6190   -9.0380   15.8230 N.pl3  24  ARG24       0.1354
     51  NH2      -14.4900  -10.5140   17.5970 N.pl3  24  ARG24       0.1354
     52  N        -20.1480   -7.0290   20.0070 N.am   25  ASN25      -0.1960
     53  CA       -20.9450   -7.7840   20.9660 C.3    25  ASN25       0.1819
     54  C        -21.0900   -9.2690   20.5840 C.2    25  ASN25       0.2621
     55  O        -20.5250   -9.7140   19.5930 O.2    25  ASN25      -0.2715
     56  CB       -22.2840   -7.0890   21.2480 C.3    25  ASN25       0.1195
     57  CG       -23.2130   -7.0540   20.0290 C.2    25  ASN25       0.2630
     58  OD1      -23.0690   -7.8340   19.0890 O.2    25  ASN25      -0.2716
     59  ND2      -24.1790   -6.1500   20.0570 N.am   25  ASN25      -0.0877
     60  N        -21.8510  -10.0260   21.3700 N.am   26  ALA26      -0.1977
     61  CA       -22.0990  -11.4450   21.0860 C.3    26  ALA26       0.1597
     62  C        -22.7650  -11.7670   19.7310 C.2    26  ALA26       0.2287
     63  O        -22.4060  -12.7600   19.1040 O.2    26  ALA26      -0.2864
     64  CB       -22.8400  -12.1190   22.2620 C.3    26  ALA26       0.0319
     65  N        -11.8440   -6.3850   29.8420 N.3    98  GLN98      -0.1231
     66  CA       -12.3710   -7.3140   28.8370 C.3    98  GLN98       0.1698
     67  C        -13.5580   -6.6560   28.1240 C.2    98  GLN98       0.2592
     68  O        -14.1690   -5.7420   28.6740 O.2    98  GLN98      -0.2718
     69  CB       -12.8420   -8.6110   29.5160 C.3    98  GLN98       0.0381
     70  CG       -11.7420   -9.4510   30.2040 C.3    98  GLN98       0.0905
     71  CD       -10.4860   -9.6250   29.3780 C.2    98  GLN98       0.2608
     72  OE1      -10.5250   -9.8060   28.1540 O.2    98  GLN98      -0.2717
     73  NE2       -9.3550   -9.5940   30.0520 N.am   98  GLN98      -0.0878
     74  N        -13.8690   -7.1150   26.9110 N.am   99  ASN99      -0.1960
     75  CA       -15.1270   -6.7680   26.2500 C.3    99  ASN99       0.1819
     76  C        -16.1720   -7.8530   26.5250 C.2    99  ASN99       0.2621
     77  O        -16.0540   -8.9830   26.0680 O.2    99  ASN99      -0.2715
     78  CB       -14.8830   -6.5520   24.7530 C.3    99  ASN99       0.1195
     79  CG       -16.1300   -6.7640   23.8880 C.2    99  ASN99       0.2630
     80  OD1      -17.2540   -6.7160   24.3640 O.2    99  ASN99      -0.2716
     81  ND2      -15.9160   -7.0210   22.6080 N.am   99  ASN99      -0.0877
     82  N        -17.1780   -7.5170   27.3150 N.am  100  VAL100     -0.1963
     83  CA       -18.1940   -8.4790   27.6700 C.3   100  VAL100      0.1727
     84  C        -19.4710   -8.0770   26.9750 C.2   100  VAL100      0.2616
     85  O        -20.1100   -7.0950   27.3660 O.2   100  VAL100     -0.2715
     86  CB       -18.4100   -8.5130   29.1900 C.3   100  VAL100      0.0290
     87  CG1      -19.5930   -9.4080   29.5480 C.3   100  VAL100      0.0023
     88  CG2      -17.1410   -8.9930   29.8640 C.3   100  VAL100      0.0023
     89  N        -19.8000   -8.8150   25.9110 N.am  101  ASN101     -0.1972
     90  CA       -20.9400   -8.5240   25.0400 C.3   101  ASN101      0.1688
     91  C        -21.0520   -7.0460   24.6450 C.2   101  ASN101      0.2292
     92  O        -22.0850   -6.4280   24.8300 O.2   101  ASN101     -0.2864
     93  CB       -22.2310   -9.0230   25.6860 C.3   101  ASN101      0.1181
     94  CG       -23.3990   -9.0580   24.7170 C.2   101  ASN101      0.2629
     95  OD1      -23.2150   -9.1990   23.5220 O.2   101  ASN101     -0.2716
     96  ND2      -24.6050   -8.8860   25.2340 N.am  101  ASN101     -0.0877
     97  N        -11.8850   -6.8840   34.7960 N.3   107  GLN107     -0.1245
     98  CA       -11.8410   -8.2130   35.3860 C.3   107  GLN107      0.1566
     99  C        -10.5400   -8.5670   36.1080 C.2   107  GLN107      0.2260
    100  O        -10.4870   -8.3620   37.3250 O.2   107  GLN107     -0.2867
    101  CB       -12.3150   -9.2710   34.3880 C.3   107  GLN107      0.0367
    102  CG       -13.8460   -9.2490   34.3110 C.3   107  GLN107      0.0905
    103  CD       -14.4360  -10.1600   33.2560 C.2   107  GLN107      0.2608
    104  OE1      -13.7500  -10.6170   32.3400 O.2   107  GLN107     -0.2717
    105  NE2      -15.7310  -10.4250   33.3830 N.am  107  GLN107     -0.0878
@<TRIPOS>BOND
     1    50    49    1
     2    47    48    1
     3    47    46    1
     4    49    48    2
     5    49    51    1
     6    46    45    1
     7    45    42    1
     8    30    29    2
     9    42    41    1
    10    42    43    1
    11    58    57    2
    12    63    62    2
    13    55    54    2
    14    62    61    1
    15    36    37    1
    16    36    35    1
    17    36    39    1
    18    29    35   am
    19    29    28    1
    20    52    43   am
    21    52    53    1
    22    57    59   am
    23    57    56    1
    24    37    38    2
    25    43    44    2
    26    54    53    1
    27    54    60   am
    28    39    40    1
    29    28    31    1
    30    28    27    1
    31    53    56    1
    32    61    60    1
    33    61    64    1
    34    33    32   ar
    35    31    32    1
    36    32    34   ar
    37    81    79   am
    38    18    17    2
    39    95    94    2
    40    79    80    2
    41    79    78    1
    42    17    16    1
    43    23    21   ar
    44    23    25   ar
    45    12    11    2
    46    21    20   ar
    47    91    92    2
    48    91    90    1
    49    94    96   am
    50    94    93    1
    51    78    75    1
    52    26    25    1
    53    90    93    1
    54    90    89    1
    55    14    13    1
    56    25    24   ar
    57    16    19    1
    58    16    15    1
    59    11    15   am
    60    11    10    1
    61     5     2    1
    62     5     6    1
    63    20    19    1
    64    20    22   ar
    65     2     1    1
    66     2     3    1
    67     9    10    1
    68     9     3   am
    69    89    84   am
    70    77    76    2
    71    75    76    1
    72    75    74    1
    73    24    22   ar
    74    10    13    1
    75    76    82   am
    76     3     4    2
    77     7     6    1
    78     7     8    1
    79    74    67   am
    80    84    85    2
    81    84    83    1
    82    82    83    1
    83    83    86    1
    84    67    68    2
    85    67    66    1
    86    72    71    2
    87    66    69    1
    88    66    65    1
    89    86    87    1
    90    86    88    1
    91    71    73   am
    92    71    70    1
    93    69    70    1
    94   104   103    2
    95   103   105   am
    96   103   102    1
    97   102   101    1
    98   101    98    1
    99    97    98    1
   100    98    99    1
   101    99   100    2
