@<TRIPOS>MOLECULE
tmp/3hp9A00.pdb
 104 99 0 0 0
SMALL
GASTEIGER

@<TRIPOS>ATOM
      1  N         29.9440   -3.0840   47.1740 N.3   218  LYS218     -0.1231
      2  CA        31.0830   -2.3620   47.7170 C.3   218  LYS218      0.1678
      3  C         30.7630   -0.8700   47.8730 C.2   218  LYS218      0.2434
      4  O         30.3840   -0.2180   46.9090 O.2   218  LYS218     -0.2733
      5  CB        32.3100   -2.5610   46.8240 C.3   218  LYS218      0.0284
      6  CG        33.5140   -1.7100   47.2090 C.3   218  LYS218      0.0035
      7  CD        34.8090   -2.3100   46.6730 C.3   218  LYS218      0.0206
      8  CE        35.7770   -1.2260   46.2210 C.3   218  LYS218      0.1093
      9  NZ        35.4180   -0.6910   44.8700 N.3   218  LYS218     -0.1314
     10  N         30.9130   -0.3350   49.1010 N.am  219  PRO219     -0.2729
     11  CA        30.5490    1.0550   49.3520 C.3   219  PRO219      0.1401
     12  C         31.5160    2.0520   48.7100 C.2   219  PRO219      0.2269
     13  O         32.7180    1.7950   48.6240 O.2   219  PRO219     -0.2865
     14  CB        30.6070    1.1640   50.8810 C.3   219  PRO219      0.0296
     15  CG        31.6060    0.1500   51.2900 C.3   219  PRO219      0.0237
     16  CD        31.4180   -1.0010   50.3190 C.3   219  PRO219      0.0939
     17  N         27.8420    8.1760   51.5220 N.3   236  TRP236     -0.1241
     18  CA        28.3060    6.8440   51.1560 C.3   236  TRP236      0.1605
     19  C         27.1710    6.0860   50.4790 C.2   236  TRP236      0.2264
     20  O         26.0290    6.0820   50.9690 O.2   236  TRP236     -0.2867
     21  CB        28.7880    6.0910   52.3870 C.3   236  TRP236      0.0550
     22  CG        30.1970    6.4540   52.8320 C.ar  236  TRP236      0.0003
     23  CD1       31.3450    6.3560   52.0920 C.ar  236  TRP236      0.0946
     24  CD2       30.5890    6.9530   54.1150 C.ar  236  TRP236      0.0152
     25  NE1       32.4270    6.7650   52.8380 N.ar  236  TRP236     -0.2442
     26  CE2       31.9920    7.1410   54.0830 C.ar  236  TRP236      0.0810
     27  CE3       29.8910    7.2580   55.2970 C.ar  236  TRP236      0.0012
     28  CZ2       32.7090    7.6290   55.1800 C.ar  236  TRP236      0.0191
     29  CZ3       30.6050    7.7400   56.3880 C.ar  236  TRP236      0.0001
     30  CH2       32.0000    7.9170   56.3240 C.ar  236  TRP236      0.0015
     31  N         23.3130    5.0480   51.5780 N.3   255  LEU255     -0.1245
     32  CA        23.4220    4.3190   52.8470 C.3   255  LEU255      0.1561
     33  C         23.0510    5.1790   54.0570 C.2   255  LEU255      0.2260
     34  O         22.7390    4.6590   55.1180 O.2   255  LEU255     -0.2867
     35  CB        24.8350    3.7370   53.0230 C.3   255  LEU255      0.0270
     36  CG        25.2980    2.6820   52.0130 C.3   255  LEU255      0.0019
     37  CD1       26.8020    2.4400   52.1250 C.3   255  LEU255      0.0001
     38  CD2       24.5170    1.3650   52.1930 C.3   255  LEU255      0.0001
     39  N         36.6600    5.3520   46.3100 N.3   294  GLN294     -0.1231
     40  CA        36.6040    4.3480   47.3780 C.3   294  GLN294      0.1698
     41  C         36.1530    4.9880   48.6920 C.2   294  GLN294      0.2592
     42  O         36.4130    6.1770   48.9500 O.2   294  GLN294     -0.2718
     43  CB        37.9480    3.6220   47.5440 C.3   294  GLN294      0.0381
     44  CG        39.0910    4.5000   48.0170 C.3   294  GLN294      0.0905
     45  CD        40.4020    3.7360   48.1580 C.2   294  GLN294      0.2608
     46  OE1       41.2890    3.8440   47.3100 O.2   294  GLN294     -0.2717
     47  NE2       40.5270    2.9610   49.2300 N.am  294  GLN294     -0.0878
     48  N         35.4670    4.2030   49.5110 N.am  295  ALA295     -0.1966
     49  CA        34.7720    4.7220   50.6890 C.3   295  ALA295      0.1728
     50  C         35.6620    5.5090   51.6670 C.2   295  ALA295      0.2616
     51  O         35.2160    6.4940   52.2430 O.2   295  ALA295     -0.2715
     52  CB        34.0470    3.5970   51.4090 C.3   295  ALA295      0.0334
     53  N         36.9140    5.0810   51.8350 N.am  296  ASN296     -0.1972
     54  CA        37.8020    5.7370   52.7930 C.3   296  ASN296      0.1688
     55  C         38.3650    7.0740   52.3020 C.2   296  ASN296      0.2292
     56  O         39.1150    7.7340   53.0130 O.2   296  ASN296     -0.2864
     57  CB        38.9140    4.7830   53.2880 C.3   296  ASN296      0.1181
     58  CG        40.0200    4.5580   52.2620 C.2   296  ASN296      0.2629
     59  OD1       40.0100    5.1190   51.1650 O.2   296  ASN296     -0.2716
     60  ND2       40.9930    3.7230   52.6280 N.am  296  ASN296     -0.0877
     61  N         28.4630    7.4060   60.2270 N.3   310  ARG310     -0.1245
     62  CA        29.1440    6.2250   59.6930 C.3   310  ARG310      0.1563
     63  C         28.4640    4.9340   60.1330 C.2   310  ARG310      0.2260
     64  O         28.2710    4.0220   59.3250 O.2   310  ARG310     -0.2867
     65  CB        30.6020    6.2200   60.1300 C.3   310  ARG310      0.0307
     66  CG        31.4660    5.1900   59.4420 C.3   310  ARG310      0.0489
     67  CD        32.8180    5.1450   60.1010 C.3   310  ARG310      0.2205
     68  NE        33.7960    4.4110   59.3120 N.pl3 310  ARG310     -0.0865
     69  CZ        34.6970    4.9850   58.5210 C.cat 310  ARG310      0.5346
     70  NH1       34.7410    6.3120   58.4090 N.pl3 310  ARG310      0.1354
     71  NH2       35.5530    4.2370   57.8430 N.pl3 310  ARG310      0.1354
     72  N         25.2600    4.1680   58.2530 N.3   313  CYS313     -0.1221
     73  CA        25.5970    3.6910   56.9090 C.3   313  CYS313      0.1808
     74  C         26.0620    2.2310   56.9170 C.2   313  CYS313      0.2601
     75  O         25.6290    1.4430   56.0850 O.2   313  CYS313     -0.2717
     76  CB        26.6580    4.5920   56.2670 C.3   313  CYS313      0.0970
     77  SG        26.0810    6.2790   55.8460 S.3   313  CYS313     -0.0800
     78  N         26.9260    1.8840   57.8750 N.am  314  LEU314     -0.1979
     79  CA        27.4370    0.5070   58.0250 C.3   314  LEU314      0.1596
     80  C         26.3170   -0.4750   58.3630 C.2   314  LEU314      0.2287
     81  O         26.2690   -1.5870   57.8200 O.2   314  LEU314     -0.2864
     82  CB        28.5310    0.4390   59.1050 C.3   314  LEU314      0.0297
     83  CG        29.9110    1.0410   58.7990 C.3   314  LEU314      0.0022
     84  CD1       30.7410    1.1900   60.0740 C.3   314  LEU314      0.0001
     85  CD2       30.6580    0.2110   57.7580 C.3   314  LEU314      0.0001
     86  N         24.3460   -1.0350   55.2560 N.3   317  LEU317     -0.1245
     87  CA        25.1190   -1.8440   54.3140 C.3   317  LEU317      0.1561
     88  C         25.0030   -3.3280   54.6550 C.2   317  LEU317      0.2260
     89  O         24.7820   -4.1490   53.7720 O.2   317  LEU317     -0.2867
     90  CB        26.5910   -1.4200   54.2920 C.3   317  LEU317      0.0270
     91  CG        27.4940   -2.1930   53.3200 C.3   317  LEU317      0.0019
     92  CD1       27.0370   -1.9960   51.8750 C.3   317  LEU317      0.0001
     93  CD2       28.9460   -1.7910   53.4950 C.3   317  LEU317      0.0001
     94  N         23.1920   -6.2670   52.2780 N.3   321  ARG321     -0.1245
     95  CA        23.9840   -7.4380   51.8770 C.3   321  ARG321      0.1563
     96  C         23.3210   -8.7580   52.2900 C.2   321  ARG321      0.2260
     97  O         23.4920   -9.7770   51.6200 O.2   321  ARG321     -0.2867
     98  CB        25.3980   -7.3620   52.4570 C.3   321  ARG321      0.0307
     99  CG        26.3030   -6.3650   51.7530 C.3   321  ARG321      0.0489
    100  CD        27.6320   -6.2070   52.4730 C.3   321  ARG321      0.2205
    101  NE        28.6100   -5.5100   51.6380 N.pl3 321  ARG321     -0.0865
    102  CZ        29.8050   -5.0970   52.0560 C.cat 321  ARG321      0.5346
    103  NH1       30.1850   -5.2960   53.3180 N.pl3 321  ARG321      0.1354
    104  NH2       30.6190   -4.4820   51.2140 N.pl3 321  ARG321      0.1354
@<TRIPOS>BOND
     1     9     8    1
     2     8     7    1
     3    39    40    1
     4     7     6    1
     5     5     6    1
     6     5     2    1
     7     4     3    2
     8     1     2    1
     9    46    45    2
    10    40    43    1
    11    40    41    1
    12    43    44    1
    13     2     3    1
    14     3    10   am
    15    44    45    1
    16    45    47   am
    17    13    12    2
    18    41    42    2
    19    41    48   am
    20    12    11    1
    21    10    11    1
    22    10    16    1
    23    11    14    1
    24    48    49    1
    25    16    15    1
    26    19    20    2
    27    19    18    1
    28    49    52    1
    29    49    50    1
    30    14    15    1
    31    18    17    1
    32    18    21    1
    33    59    58    2
    34   104   102    1
    35    31    32    1
    36    97    96    2
    37   101   102    2
    38   101   100    1
    39    50    53   am
    40    50    51    2
    41    99    98    1
    42    99   100    1
    43    53    54    1
    44    92    91    1
    45    95    94    1
    46    95    96    1
    47    95    98    1
    48    36    37    1
    49    36    38    1
    50    36    35    1
    51   102   103    1
    52    23    22   ar
    53    23    25   ar
    54    58    60   am
    55    58    57    1
    56    55    54    1
    57    55    56    2
    58    21    22    1
    59    54    57    1
    60    22    24   ar
    61    25    26   ar
    62    32    35    1
    63    32    33    1
    64    91    93    1
    65    91    90    1
    66    89    88    2
    67    33    34    2
    68    26    24   ar
    69    26    28   ar
    70    24    27   ar
    71    90    87    1
    72    87    88    1
    73    87    86    1
    74    28    30   ar
    75    27    29   ar
    76    77    76    1
    77    75    74    2
    78    76    73    1
    79    30    29   ar
    80    73    74    1
    81    73    72    1
    82    74    78   am
    83    85    83    1
    84    81    80    2
    85    71    69    1
    86    78    79    1
    87    79    80    1
    88    79    82    1
    89    70    69    1
    90    69    68    2
    91    83    82    1
    92    83    84    1
    93    68    67    1
    94    64    63    2
    95    66    67    1
    96    66    65    1
    97    62    65    1
    98    62    63    1
    99    62    61    1
