@<TRIPOS>MOLECULE
tmp/3hpfA00.pdb
 170 161 0 0 0
SMALL
GASTEIGER

@<TRIPOS>ATOM
      1  N        -59.1690   15.1310    1.4350 N.3    15  ARG15      -0.1245
      2  CA       -58.3800   16.0100    2.2790 C.3    15  ARG15       0.1563
      3  C        -58.7250   15.5830    3.6990 C.2    15  ARG15       0.2260
      4  O        -59.7410   14.9210    3.9190 O.2    15  ARG15      -0.2867
      5  CB       -58.7650   17.4740    2.0440 C.3    15  ARG15       0.0307
      6  CG       -58.5510   17.8980    0.6030 C.3    15  ARG15       0.0489
      7  CD       -58.7840   19.3770    0.3660 C.3    15  ARG15       0.2205
      8  NE       -58.5060   19.7010   -1.0330 N.pl3  15  ARG15      -0.0865
      9  CZ       -58.4720   20.9310   -1.5380 C.cat  15  ARG15       0.5346
     10  NH1      -58.7010   21.9850   -0.7650 N.pl3  15  ARG15       0.1354
     11  NH2      -58.1980   21.1030   -2.8250 N.pl3  15  ARG15       0.1354
     12  N        -56.2550   18.8080   -9.3880 N.3    42  ASP42      -0.1239
     13  CA       -57.5870   19.1540   -8.9150 C.3    42  ASP42       0.1674
     14  C        -58.6260   19.5500   -9.9570 C.2    42  ASP42       0.2266
     15  O        -58.8530   20.7390  -10.1920 O.2    42  ASP42      -0.2867
     16  CB       -57.4480   20.2900   -7.9000 C.3    42  ASP42       0.1410
     17  CG       -58.6820   20.4760   -7.0580 C.2    42  ASP42       0.3668
     18  OD1      -58.7050   21.4330   -6.2550 O.co2  42  ASP42      -0.2456
     19  OD2      -59.6230   19.6670   -7.1910 O.co2  42  ASP42      -0.2456
     20  N        -63.4310   21.3590   -9.4950 N.3    45  HIS45      -0.1241
     21  CA       -63.8630   22.7530   -9.4380 C.3    45  HIS45       0.1621
     22  C        -64.9700   22.8990  -10.4870 C.2    45  HIS45       0.2264
     23  O        -65.0270   22.1180  -11.4420 O.2    45  HIS45      -0.2867
     24  CB       -62.7100   23.6930   -9.8110 C.3    45  HIS45       0.0745
     25  CG       -61.7310   23.9390   -8.7040 C.ar   45  HIS45       0.0817
     26  ND1      -61.9890   24.8020   -7.6610 N.ar   45  HIS45      -0.2268
     27  CD2      -60.4830   23.4560   -8.4940 C.ar   45  HIS45       0.1154
     28  CE1      -60.9410   24.8430   -6.8570 C.ar   45  HIS45       0.1986
     29  NE2      -60.0130   24.0350   -7.3410 N.ar   45  HIS45      -0.2212
     30  N        -61.2130   31.1920  -14.5540 N.3    89  TYR89      -0.1227
     31  CA       -60.3520   30.7110  -13.4820 C.3    89  TYR89       0.1736
     32  C        -60.1170   29.1980  -13.5270 C.2    89  TYR89       0.2595
     33  O        -58.9750   28.7410  -13.5920 O.2    89  TYR89      -0.2718
     34  CB       -60.9890   31.1280  -12.1420 C.3    89  TYR89       0.0548
     35  CG       -60.1490   30.9610  -10.8880 C.ar   89  TYR89      -0.0200
     36  CD1      -58.8710   30.4010  -10.9290 C.ar   89  TYR89      -0.0009
     37  CD2      -60.6570   31.3500   -9.6460 C.ar   89  TYR89      -0.0009
     38  CE1      -58.1230   30.2270   -9.7550 C.ar   89  TYR89       0.0417
     39  CE2      -59.9190   31.1800   -8.4690 C.ar   89  TYR89       0.0417
     40  CZ       -58.6590   30.6160   -8.5310 C.ar   89  TYR89       0.1957
     41  OH       -57.9470   30.4150   -7.3670 O.3    89  TYR89      -0.2866
     42  N        -61.2000   28.4280  -13.5260 N.am   90  PHE90      -0.1976
     43  CA       -61.1030   26.9710  -13.5030 C.3    90  PHE90       0.1639
     44  C        -61.3250   26.2110  -14.8150 C.2    90  PHE90       0.2290
     45  O        -61.9550   25.1490  -14.8220 O.2    90  PHE90      -0.2864
     46  CB       -62.0570   26.4290  -12.4340 C.3    90  PHE90       0.0560
     47  CG       -61.8010   26.9820  -11.0540 C.ar   90  PHE90      -0.0200
     48  CD1      -62.8200   27.6080  -10.3420 C.ar   90  PHE90      -0.0042
     49  CD2      -60.5430   26.8810  -10.4690 C.ar   90  PHE90      -0.0042
     50  CE1      -62.5900   28.1260   -9.0650 C.ar   90  PHE90      -0.0003
     51  CE2      -60.3020   27.3950   -9.1940 C.ar   90  PHE90      -0.0003
     52  CZ       -61.3290   28.0190   -8.4910 C.ar   90  PHE90      -0.0000
     53  N        -53.9130   32.1890    5.5870 N.3   162  ARG162     -0.1245
     54  CA       -54.6730   33.0480    4.6970 C.3   162  ARG162      0.1563
     55  C        -56.1060   32.6760    5.0380 C.2   162  ARG162      0.2260
     56  O        -56.3760   31.5420    5.4400 O.2   162  ARG162     -0.2867
     57  CB       -54.3590   32.8100    3.2150 C.3   162  ARG162      0.0307
     58  CG       -54.4790   31.3930    2.6910 C.3   162  ARG162      0.0489
     59  CD       -54.3230   31.4400    1.1800 C.3   162  ARG162      0.2205
     60  NE       -54.3490   30.1240    0.5630 N.pl3 162  ARG162     -0.0865
     61  CZ       -54.7450   29.8990   -0.6840 C.cat 162  ARG162      0.5346
     62  NH1      -54.7320   28.6680   -1.1710 N.pl3 162  ARG162      0.1354
     63  NH2      -55.1630   30.9070   -1.4410 N.pl3 162  ARG162      0.1354
     64  N        -60.2360   32.7370    3.8090 N.3   164  TYR164     -0.1241
     65  CA       -61.2410   32.9540    2.7750 C.3   164  TYR164      0.1605
     66  C        -62.3490   33.7190    3.4880 C.2   164  TYR164      0.2264
     67  O        -62.7740   33.3260    4.5760 O.2   164  TYR164     -0.2867
     68  CB       -61.7750   31.6190    2.2580 C.3   164  TYR164      0.0534
     69  CG       -60.7700   30.8450    1.4400 C.ar  164  TYR164     -0.0201
     70  CD1      -60.4550   31.2310    0.1370 C.ar  164  TYR164     -0.0009
     71  CD2      -60.1220   29.7350    1.9720 C.ar  164  TYR164     -0.0009
     72  CE1      -59.5130   30.5240   -0.6180 C.ar  164  TYR164      0.0417
     73  CE2      -59.1830   29.0250    1.2330 C.ar  164  TYR164      0.0417
     74  CZ       -58.8810   29.4230   -0.0560 C.ar  164  TYR164      0.1957
     75  OH       -57.9330   28.7200   -0.7670 O.3   164  TYR164     -0.2866
     76  N        -59.0340   36.3580    1.2520 N.3   193  ASP193     -0.1239
     77  CA       -59.4370   35.9890   -0.1000 C.3   193  ASP193      0.1674
     78  C        -60.9570   35.9900   -0.2680 C.2   193  ASP193      0.2266
     79  O        -61.6520   35.1470    0.2950 O.2   193  ASP193     -0.2867
     80  CB       -58.8810   34.5970   -0.4220 C.3   193  ASP193      0.1410
     81  CG       -58.8400   34.3100   -1.9070 C.2   193  ASP193      0.3668
     82  OD1      -59.8030   34.6750   -2.6150 O.co2 193  ASP193     -0.2456
     83  OD2      -57.8460   33.7060   -2.3650 O.co2 193  ASP193     -0.2456
     84  N        -62.5750   35.4060   -3.0540 N.3   195  SER195     -0.1217
     85  CA       -62.9990   34.4610   -4.0870 C.3   195  SER195      0.1889
     86  C        -64.0090   35.0270   -5.0920 C.2   195  SER195      0.2288
     87  O        -64.9190   34.3200   -5.5300 O.2   195  SER195     -0.2866
     88  CB       -63.5720   33.1920   -3.4390 C.3   195  SER195      0.2089
     89  OG       -62.6320   32.5970   -2.5570 O.3   195  SER195     -0.2183
     90  N        -57.0750   39.4590   -1.7600 N.3   221  GLU221     -0.1245
     91  CA       -57.1840   38.7440   -3.0280 C.3   221  GLU221      0.1567
     92  C        -58.5860   38.5960   -3.5980 C.2   221  GLU221      0.2260
     93  O        -59.5430   38.3310   -2.8720 O.2   221  GLU221     -0.2867
     94  CB       -56.5480   37.3490   -2.8970 C.3   221  GLU221      0.0388
     95  CG       -56.2910   36.6520   -4.2350 C.3   221  GLU221      0.1160
     96  CD       -55.2490   35.5460   -4.1360 C.2   221  GLU221      0.3649
     97  OE1      -55.6330   34.3530   -4.0620 O.co2 221  GLU221     -0.2457
     98  OE2      -54.0410   35.8770   -4.1220 O.co2 221  GLU221     -0.2457
     99  N        -55.6440   36.2360   -9.3380 N.3   246  HIS246     -0.1241
    100  CA       -55.1370   35.0860  -10.0740 C.3   246  HIS246      0.1621
    101  C        -55.0160   35.3880  -11.5600 C.2   246  HIS246      0.2264
    102  O        -55.7950   36.1700  -12.1100 O.2   246  HIS246     -0.2867
    103  CB       -56.0900   33.9010   -9.8990 C.3   246  HIS246      0.0745
    104  CG       -56.1280   33.3550   -8.5080 C.ar  246  HIS246      0.0817
    105  ND1      -55.2380   32.4040   -8.0590 N.ar  246  HIS246     -0.2268
    106  CD2      -56.9450   33.6300   -7.4640 C.ar  246  HIS246      0.1154
    107  CE1      -55.5060   32.1150   -6.7980 C.ar  246  HIS246      0.1986
    108  NE2      -56.5380   32.8450   -6.4130 N.ar  246  HIS246     -0.2212
    109  N        -53.5170   26.9380  -13.1880 N.3   271  PHE271     -0.1241
    110  CA       -54.5240   27.8520  -13.7280 C.3   271  PHE271      0.1605
    111  C        -54.1330   28.5470  -15.0260 C.2   271  PHE271      0.2264
    112  O        -54.9820   29.1320  -15.6980 O.2   271  PHE271     -0.2867
    113  CB       -54.8820   28.9140  -12.6890 C.3   271  PHE271      0.0534
    114  CG       -55.3880   28.3450  -11.3970 C.ar  271  PHE271     -0.0203
    115  CD1      -56.4600   27.4550  -11.3850 C.ar  271  PHE271     -0.0042
    116  CD2      -54.7950   28.7040  -10.1880 C.ar  271  PHE271     -0.0042
    117  CE1      -56.9380   26.9270  -10.1870 C.ar  271  PHE271     -0.0003
    118  CE2      -55.2670   28.1820   -8.9820 C.ar  271  PHE271     -0.0003
    119  CZ       -56.3350   27.2960   -8.9810 C.ar  271  PHE271     -0.0000
    120  N        -52.1470   28.5460   -5.8350 N.3   296  THR296     -0.1203
    121  CA       -52.3220   27.1050   -5.8140 C.3   296  THR296      0.1994
    122  C        -53.7660   26.6710   -5.9800 C.2   296  THR296      0.2619
    123  O        -54.6930   27.4540   -5.7630 O.2   296  THR296     -0.2717
    124  CB       -51.8270   26.5420   -4.4650 C.3   296  THR296      0.1784
    125  OG1      -51.8020   25.1110   -4.5040 O.3   296  THR296     -0.2211
    126  CG2      -52.7530   26.9890   -3.3450 C.3   296  THR296      0.0376
    127  N        -53.9420   25.4120   -6.3770 N.am  297  THR297     -0.1938
    128  CA       -55.2670   24.8290   -6.4810 C.3   297  THR297      0.2028
    129  C        -55.2310   23.7050   -5.4490 C.2   297  THR297      0.2642
    130  O        -56.2110   22.9880   -5.2540 O.2   297  THR297     -0.2714
    131  CB       -55.5500   24.2100   -7.8600 C.3   297  THR297      0.1808
    132  OG1      -56.9310   23.8270   -7.9140 O.3   297  THR297     -0.2208
    133  CG2      -54.6890   22.9620   -8.0860 C.3   297  THR297      0.0379
    134  N        -54.0740   23.5990   -4.7910 N.am  298  GLN298     -0.1976
    135  CA       -53.7730   22.5780   -3.7880 C.3   298  GLN298      0.1601
    136  C        -53.5540   21.2780   -4.5500 C.2   298  GLN298      0.2287
    137  O        -54.4620   20.4600   -4.7210 O.2   298  GLN298     -0.2864
    138  CB       -54.9030   22.4510   -2.7630 C.3   298  GLN298      0.0394
    139  CG       -55.1860   23.7530   -1.9910 C.3   298  GLN298      0.0908
    140  CD       -53.9980   24.2720   -1.1750 C.2   298  GLN298      0.2608
    141  OE1      -52.8760   23.7810   -1.2940 O.2   298  GLN298     -0.2717
    142  NE2      -54.2480   25.2910   -0.3510 N.am  298  GLN298     -0.0878
    143  N        -48.9540   30.3770   -1.5280 N.3   322  ASP322     -0.1239
    144  CA       -50.0340   29.4880   -1.0760 C.3   322  ASP322      0.1674
    145  C        -50.0330   27.9550   -1.1820 C.2   322  ASP322      0.2266
    146  O        -50.8350   27.3100   -0.5070 O.2   322  ASP322     -0.2867
    147  CB       -51.3500   29.9340   -1.7340 C.3   322  ASP322      0.1410
    148  CG       -51.5270   31.4390   -1.7480 C.2   322  ASP322      0.3668
    149  OD1      -51.0730   32.1060   -0.7970 O.co2 322  ASP322     -0.2456
    150  OD2      -52.1420   31.9530   -2.7090 O.co2 322  ASP322     -0.2456
    151  N        -67.0160   26.1300   -3.7670 N.3   383  GLN383     -0.1245
    152  CA       -66.3270   27.4040   -3.6740 C.3   383  GLN383      0.1566
    153  C        -65.5320   27.5470   -2.3770 C.2   383  GLN383      0.2260
    154  O        -64.5600   28.3000   -2.3270 O.2   383  GLN383     -0.2867
    155  CB       -67.3220   28.5630   -3.8460 C.3   383  GLN383      0.0367
    156  CG       -68.5080   28.5500   -2.9070 C.3   383  GLN383      0.0905
    157  CD       -69.6170   29.4970   -3.3580 C.2   383  GLN383      0.2608
    158  OE1      -70.5250   29.8080   -2.5920 O.2   383  GLN383     -0.2717
    159  NE2      -69.5510   29.9430   -4.6090 N.am  383  GLN383     -0.0878
    160  N        -64.3980   24.6600   -0.6150 N.3   385  ARG385     -0.1245
    161  CA       -63.5830   23.4540   -0.4710 C.3   385  ARG385      0.1563
    162  C        -63.8570   22.7500    0.8580 C.2   385  ARG385      0.2260
    163  O        -62.9470   22.2020    1.4900 O.2   385  ARG385     -0.2867
    164  CB       -62.0930   23.8050   -0.5850 C.3   385  ARG385      0.0307
    165  CG       -61.7780   24.8350   -1.6690 C.3   385  ARG385      0.0489
    166  CD       -62.4080   24.4690   -3.0130 C.3   385  ARG385      0.2205
    167  NE       -61.7010   23.3920   -3.7010 N.pl3 385  ARG385     -0.0865
    168  CZ       -62.2000   22.7160   -4.7330 C.cat 385  ARG385      0.5346
    169  NH1      -63.4150   23.0050   -5.1890 N.pl3 385  ARG385      0.1354
    170  NH2      -61.4850   21.7620   -5.3180 N.pl3 385  ARG385      0.1354
@<TRIPOS>BOND
     1   112   111    2
     2   111   110    1
     3    45    44    2
     4    44    43    1
     5    30    31    1
     6   110   109    1
     7   110   113    1
     8    33    32    2
     9    32    42   am
    10    32    31    1
    11    42    43    1
    12    43    46    1
    13    31    34    1
    14   113   114    1
    15    46    47    1
    16    34    35    1
    17   102   101    2
    18   101   100    1
    19    23    22    2
    20   114   115   ar
    21   114   116   ar
    22   115   117   ar
    23    47    49   ar
    24    47    48   ar
    25    36    35   ar
    26    36    38   ar
    27    35    37   ar
    28    22    21    1
    29    49    51   ar
    30    48    50   ar
    31    15    14    2
    32   116   118   ar
    33   117   119   ar
    34   100   103    1
    35   100    99    1
    36    14    13    1
    37   103   104    1
    38    24    21    1
    39    24    25    1
    40    38    40   ar
    41    37    39   ar
    42    20    21    1
    43    12    13    1
    44    51    52   ar
    45    50    52   ar
    46   118   119   ar
    47    13    16    1
    48    25    27   ar
    49    25    26   ar
    50    40    39   ar
    51    40    41    1
    52   104   105   ar
    53   104   106   ar
    54    27    29   ar
    55   133   131    1
    56   105   107   ar
    57   132   131    1
    58    16    17    1
    59   131   128    1
    60    26    28   ar
    61   106   108   ar
    62    29    28   ar
    63    19    17   ar
    64    17    18   ar
    65   107   108   ar
    66   128   127    1
    67   128   129    1
    68   127   122   am
    69   122   121    1
    70   122   123    2
    71   120   121    1
    72   121   124    1
    73    87    86    2
    74   129   130    2
    75   129   134   am
    76   170   168    1
    77   169   168    1
    78    86    85    1
    79   134   135    1
    80   168   167    2
    81   137   136    2
    82   159   157   am
    83   136   135    1
    84   125   124    1
    85   124   126    1
    86    95    96    1
    87    95    94    1
    88    96    98   ar
    89    96    97   ar
    90    85    88    1
    91    85    84    1
    92   155   152    1
    93   155   156    1
    94   135   138    1
    95   151   152    1
    96   167   166    1
    97   152   153    1
    98    92    91    1
    99    92    93    2
   100    88    89    1
   101   157   156    1
   102   157   158    2
   103    91    94    1
   104    91    90    1
   105   166   165    1
   106    11     9    1
   107   138   139    1
   108   150   148   ar
   109    82    81   ar
   110   153   154    2
   111    83    81   ar
   112   139   140    1
   113    81    80    1
   114   148   147    1
   115   148   149   ar
   116   147   144    1
   117   165   164    1
   118     9     8    2
   119     9    10    1
   120   143   144    1
   121    63    61    1
   122   141   140    2
   123   145   144    1
   124   145   146    2
   125   140   142   am
   126    62    61    1
   127     8     7    1
   128    75    74    1
   129    61    60    2
   130    72    74   ar
   131    72    70   ar
   132   160   161    1
   133   164   161    1
   134   161   162    1
   135    80    77    1
   136    78    77    1
   137    78    79    2
   138    77    76    1
   139    74    73   ar
   140    70    69   ar
   141     7     6    1
   142    60    59    1
   143     6     5    1
   144   162   163    2
   145    59    58    1
   146    73    71   ar
   147     1     2    1
   148    69    71   ar
   149    69    68    1
   150     5     2    1
   151    68    65    1
   152     2     3    1
   153    58    57    1
   154    65    66    1
   155    65    64    1
   156    57    54    1
   157    66    67    2
   158     3     4    2
   159    54    55    1
   160    54    53    1
   161    55    56    2
