@<TRIPOS>MOLECULE
tmp/3hpiB00.pdb
 170 169 0 0 0
SMALL
GASTEIGER

@<TRIPOS>ATOM
      1  N          1.1120    2.7120  -11.5600 N.3    11  ASN11      -0.1240
      2  CA        -0.3110    2.9870  -11.7500 C.3    11  ASN11       0.1653
      3  C         -0.5690    4.4900  -11.9290 C.2    11  ASN11       0.2266
      4  O         -0.1430    5.3120  -11.1100 O.2    11  ASN11      -0.2867
      5  CB        -1.0790    2.4670  -10.5360 C.3    11  ASN11       0.1155
      6  CG        -2.5750    2.4470  -10.7480 C.2    11  ASN11       0.2627
      7  OD1       -3.1630    3.4060  -11.2580 O.2    11  ASN11      -0.2716
      8  ND2       -3.2070    1.3520  -10.3420 N.am   11  ASN11      -0.0877
      9  N         -2.8870    6.3360  -11.2450 N.3    13  LEU13      -0.1231
     10  CA        -3.6170    6.9890  -10.1710 C.3    13  LEU13       0.1693
     11  C         -2.6870    7.5980   -9.1320 C.2    13  LEU13       0.2592
     12  O         -3.0560    8.5470   -8.4390 O.2    13  LEU13      -0.2718
     13  CB        -4.5440    5.9870   -9.4740 C.3    13  LEU13       0.0284
     14  CG        -5.8190    5.5630  -10.2090 C.3    13  LEU13       0.0019
     15  CD1       -6.6040    4.5910   -9.3260 C.3    13  LEU13       0.0001
     16  CD2       -6.6610    6.7960  -10.5490 C.3    13  LEU13       0.0001
     17  N         -1.4790    7.0540   -9.0290 N.am   14  PHE14      -0.1976
     18  CA        -0.5220    7.5410   -8.0500 C.3    14  PHE14       0.1639
     19  C          0.3640    8.6830   -8.5490 C.2    14  PHE14       0.2290
     20  O          0.2420    9.1350   -9.6920 O.2    14  PHE14      -0.2864
     21  CB         0.3380    6.3800   -7.5530 C.3    14  PHE14       0.0560
     22  CG        -0.4560    5.1450   -7.1900 C.ar   14  PHE14      -0.0200
     23  CD1       -1.6770    5.2470   -6.5400 C.ar   14  PHE14      -0.0042
     24  CD2        0.0350    3.8770   -7.4800 C.ar   14  PHE14      -0.0042
     25  CE1       -2.4000    4.1000   -6.1800 C.ar   14  PHE14      -0.0003
     26  CE2       -0.6790    2.7250   -7.1240 C.ar   14  PHE14      -0.0003
     27  CZ        -1.8950    2.8360   -6.4750 C.ar   14  PHE14      -0.0000
     28  N         -0.8580   -3.8420  -14.8760 N.3    43  GLU43      -0.1245
     29  CA        -0.8060   -5.0910  -14.1140 C.3    43  GLU43       0.1567
     30  C         -1.0620   -6.3250  -14.9750 C.2    43  GLU43       0.2260
     31  O         -0.7490   -7.4450  -14.5830 O.2    43  GLU43      -0.2867
     32  CB        -1.8020   -5.0630  -12.9480 C.3    43  GLU43       0.0388
     33  CG        -3.2570   -5.3230  -13.3240 C.3    43  GLU43       0.1160
     34  CD        -3.9420   -4.1220  -13.9470 C.2    43  GLU43       0.3649
     35  OE1       -3.3010   -3.0570  -14.0850 O.co2  43  GLU43      -0.2457
     36  OE2       -5.1300   -4.2440  -14.2920 O.co2  43  GLU43      -0.2457
     37  N          3.1740   -1.6610   -8.1540 N.3    61  TYR61      -0.1227
     38  CA         1.7490   -1.9950   -8.1710 C.3    61  TYR61       0.1736
     39  C          1.3800   -2.6410   -6.8510 C.2    61  TYR61       0.2595
     40  O          2.2590   -3.0240   -6.0860 O.2    61  TYR61      -0.2718
     41  CB         1.4220   -2.9580   -9.3180 C.3    61  TYR61       0.0548
     42  CG        -0.0380   -2.9560   -9.7150 C.ar   61  TYR61      -0.0200
     43  CD1       -0.5340   -1.9840  -10.5820 C.ar   61  TYR61      -0.0009
     44  CD2       -0.9350   -3.8890   -9.1850 C.ar   61  TYR61      -0.0009
     45  CE1       -1.8820   -1.9340  -10.9160 C.ar   61  TYR61       0.0417
     46  CE2       -2.2920   -3.8440   -9.5070 C.ar   61  TYR61       0.0417
     47  CZ        -2.7530   -2.8600  -10.3770 C.ar   61  TYR61       0.1957
     48  OH        -4.0780   -2.7860  -10.7140 O.3    61  TYR61      -0.2866
     49  N          0.0880   -2.7450   -6.5660 N.am   62  ALA62      -0.1980
     50  CA        -0.3400   -3.3740   -5.3220 C.3    62  ALA62       0.1597
     51  C          0.2630   -4.7790   -5.2320 C.2    62  ALA62       0.2287
     52  O          0.4700   -5.4480   -6.2470 O.2    62  ALA62      -0.2864
     53  CB        -1.8580   -3.4460   -5.2630 C.3    62  ALA62       0.0319
     54  N         -0.9840   -7.6770   -4.2190 N.3    64  ASP64      -0.1225
     55  CA        -1.7740   -8.8620   -4.5460 C.3    64  ASP64       0.1805
     56  C         -1.4130   -9.4920   -5.8870 C.2    64  ASP64       0.2597
     57  O         -1.5490  -10.7020   -6.0610 O.2    64  ASP64      -0.2718
     58  CB        -3.2700   -8.5360   -4.5060 C.3    64  ASP64       0.1424
     59  CG        -3.6660   -7.4800   -5.5240 C.2    64  ASP64       0.3668
     60  OD1       -3.2160   -6.3180   -5.3890 O.co2  64  ASP64      -0.2456
     61  OD2       -4.4220   -7.8200   -6.4590 O.co2  64  ASP64      -0.2456
     62  N         -0.9530   -8.6640   -6.8230 N.am   65  ARG65      -0.1979
     63  CA        -0.5700   -9.0900   -8.1620 C.3    65  ARG65       0.1597
     64  C          0.8030   -9.7430   -8.2520 C.2    65  ARG65       0.2287
     65  O          1.0770  -10.4820   -9.1960 O.2    65  ARG65      -0.2864
     66  CB        -0.5790   -7.8850   -9.1030 C.3    65  ARG65       0.0334
     67  CG        -1.9620   -7.3640   -9.4320 C.3    65  ARG65       0.0492
     68  CD        -2.6250   -8.2410  -10.4820 C.3    65  ARG65       0.2205
     69  NE        -4.0200   -7.8760  -10.6760 N.pl3  65  ARG65      -0.0865
     70  CZ        -4.7770   -8.3320  -11.6590 C.cat  65  ARG65       0.5346
     71  NH1       -4.2710   -9.1740  -12.5580 N.pl3  65  ARG65       0.1354
     72  NH2       -6.0420   -7.9550  -11.7340 N.pl3  65  ARG65       0.1354
     73  N         -2.4720    1.0220    1.8580 N.3   110  TYR110     -0.1241
     74  CA        -3.7000    1.7780    1.6730 C.3   110  TYR110      0.1605
     75  C         -4.9740    0.9470    1.6300 C.2   110  TYR110      0.2264
     76  O         -4.9460   -0.2710    1.4130 O.2   110  TYR110     -0.2867
     77  CB        -3.6000    2.6370    0.3960 C.3   110  TYR110      0.0534
     78  CG        -3.3660    1.8680   -0.8960 C.ar  110  TYR110     -0.0201
     79  CD1       -4.3480    1.0200   -1.4270 C.ar  110  TYR110     -0.0009
     80  CD2       -2.1590    1.9910   -1.5900 C.ar  110  TYR110     -0.0009
     81  CE1       -4.1330    0.3140   -2.6070 C.ar  110  TYR110      0.0417
     82  CE2       -1.9340    1.2920   -2.7820 C.ar  110  TYR110      0.0417
     83  CZ        -2.9250    0.4550   -3.2810 C.ar  110  TYR110      0.1957
     84  OH        -2.7070   -0.2340   -4.4530 O.3   110  TYR110     -0.2866
     85  N        -14.7040   -1.0320  -11.3230 N.3   152  GLU152     -0.1231
     86  CA       -13.6250   -1.8540  -10.7750 C.3   152  GLU152      0.1684
     87  C        -14.0430   -2.5130   -9.4720 C.2   152  GLU152      0.2434
     88  O        -14.4300   -1.8340   -8.5250 O.2   152  GLU152     -0.2733
     89  CB       -12.3650   -1.0110  -10.5390 C.3   152  GLU152      0.0402
     90  CG       -11.5930   -0.6260  -11.8030 C.3   152  GLU152      0.1161
     91  CD       -11.1090   -1.8360  -12.5930 C.2   152  GLU152      0.3649
     92  OE1      -10.8000   -2.8840  -11.9770 O.co2 152  GLU152     -0.2457
     93  OE2      -11.0240   -1.7290  -13.8360 O.co2 152  GLU152     -0.2457
     94  N        -13.9360   -3.8500   -9.3970 N.am  153  PRO153     -0.2718
     95  CA       -14.3150   -4.6130   -8.2030 C.3   153  PRO153      0.1535
     96  C        -13.6710   -4.2190   -6.8730 C.2   153  PRO153      0.2599
     97  O        -14.1950   -4.5510   -5.8090 O.2   153  PRO153     -0.2715
     98  CB       -14.0100   -6.0560   -8.6030 C.3   153  PRO153      0.0310
     99  CG       -12.9120   -5.9090   -9.5910 C.3   153  PRO153      0.0237
    100  CD       -13.3720   -4.7410  -10.4220 C.3   153  PRO153      0.0939
    101  N        -12.5380   -3.5290   -6.9170 N.am  154  TYR154     -0.1960
    102  CA       -11.8780   -3.1080   -5.6840 C.3   154  TYR154      0.1771
    103  C        -12.7910   -2.1550   -4.8960 C.2   154  TYR154      0.2619
    104  O        -12.8070   -2.1580   -3.6700 O.2   154  TYR154     -0.2715
    105  CB       -10.5630   -2.4000   -6.0090 C.3   154  TYR154      0.0574
    106  CG        -9.7210   -2.0630   -4.7980 C.ar  154  TYR154     -0.0198
    107  CD1       -9.1540   -3.0690   -4.0200 C.ar  154  TYR154     -0.0009
    108  CD2       -9.4750   -0.7340   -4.4400 C.ar  154  TYR154     -0.0009
    109  CE1       -8.3600   -2.7690   -2.9150 C.ar  154  TYR154      0.0417
    110  CE2       -8.6750   -0.4200   -3.3320 C.ar  154  TYR154      0.0417
    111  CZ        -8.1210   -1.4470   -2.5770 C.ar  154  TYR154      0.1957
    112  OH        -7.3080   -1.1550   -1.5050 O.3   154  TYR154     -0.2866
    113  N        -13.5500   -1.3440   -5.6210 N.am  155  PHE155     -0.1974
    114  CA       -14.4510   -0.3780   -5.0120 C.3   155  PHE155      0.1639
    115  C        -15.7370   -0.9910   -4.4700 C.2   155  PHE155      0.2290
    116  O        -16.2980   -0.4950   -3.4930 O.2   155  PHE155     -0.2864
    117  CB       -14.7970    0.7080   -6.0370 C.3   155  PHE155      0.0560
    118  CG       -13.6460    1.6260   -6.3610 C.ar  155  PHE155     -0.0200
    119  CD1      -13.4190    2.7760   -5.6000 C.ar  155  PHE155     -0.0042
    120  CD2      -12.7690    1.3280   -7.3990 C.ar  155  PHE155     -0.0042
    121  CE1      -12.3300    3.6130   -5.8710 C.ar  155  PHE155     -0.0003
    122  CE2      -11.6710    2.1560   -7.6840 C.ar  155  PHE155     -0.0003
    123  CZ       -11.4530    3.3020   -6.9150 C.ar  155  PHE155     -0.0000
    124  N         -4.8390    8.4710   -2.6620 N.3   229  TRP229     -0.1241
    125  CA        -4.3980    9.1420   -3.8900 C.3   229  TRP229      0.1605
    126  C         -5.3670   10.1810   -4.4190 C.2   229  TRP229      0.2264
    127  O         -4.9670   11.0790   -5.1490 O.2   229  TRP229     -0.2867
    128  CB        -4.1420    8.1140   -4.9970 C.3   229  TRP229      0.0550
    129  CG        -5.3390    7.2910   -5.3050 C.ar  229  TRP229      0.0003
    130  CD1       -6.3710    7.6120   -6.1360 C.ar  229  TRP229      0.0946
    131  CD2       -5.6470    6.0100   -4.7550 C.ar  229  TRP229      0.0152
    132  NE1       -7.3120    6.6020   -6.1400 N.ar  229  TRP229     -0.2442
    133  CE2       -6.8890    5.6060   -5.3000 C.ar  229  TRP229      0.0810
    134  CE3       -4.9930    5.1600   -3.8540 C.ar  229  TRP229      0.0012
    135  CZ2       -7.4910    4.3860   -4.9730 C.ar  229  TRP229      0.0191
    136  CZ3       -5.5960    3.9400   -3.5280 C.ar  229  TRP229      0.0001
    137  CH2       -6.8310    3.5720   -4.0890 C.ar  229  TRP229      0.0015
    138  N         -4.9030   -8.0550    1.3490 N.3   329  MET329     -0.1245
    139  CA        -5.1780   -8.9640    0.2420 C.3   329  MET329      0.1570
    140  C         -4.1700  -10.1040    0.1700 C.2   329  MET329      0.2261
    141  O         -3.0480   -9.9930    0.6660 O.2   329  MET329     -0.2867
    142  CB        -5.1470   -8.2160   -1.1060 C.3   329  MET329      0.0387
    143  CG        -6.2810   -7.2210   -1.3450 C.3   329  MET329      0.0595
    144  SD        -6.2030   -6.4050   -2.9650 S.3   329  MET329     -0.1393
    145  CE        -4.9900   -5.1450   -2.6500 C.3   329  MET329      0.0692
    146  N         -9.9750  -11.5220   -9.3390 N.3   339  TRP339     -0.1241
    147  CA       -10.3340  -10.1710   -9.7510 C.3   339  TRP339      0.1605
    148  C        -11.0610  -10.1500  -11.0900 C.2   339  TRP339      0.2264
    149  O        -12.1020   -9.5100  -11.2260 O.2   339  TRP339     -0.2867
    150  CB        -9.0900   -9.2850   -9.7980 C.3   339  TRP339      0.0550
    151  CG        -8.6470   -8.8150   -8.4370 C.ar  339  TRP339      0.0003
    152  CD1       -7.3810   -8.8600   -7.9250 C.ar  339  TRP339      0.0946
    153  CD2       -9.4630   -8.1870   -7.4350 C.ar  339  TRP339      0.0152
    154  NE1       -7.3600   -8.2940   -6.6660 N.ar  339  TRP339     -0.2442
    155  CE2       -8.6230   -7.8750   -6.3440 C.ar  339  TRP339      0.0810
    156  CE3      -10.8230   -7.8560   -7.3550 C.ar  339  TRP339      0.0012
    157  CZ2       -9.0990   -7.2440   -5.1840 C.ar  339  TRP339      0.0191
    158  CZ3      -11.2950   -7.2290   -6.2030 C.ar  339  TRP339      0.0001
    159  CH2      -10.4340   -6.9290   -5.1340 C.ar  339  TRP339      0.0015
    160  N        -14.9130   -8.8760  -11.3770 N.3   343  ARG343     -0.1245
    161  CA       -15.1810   -7.6770  -12.1630 C.3   343  ARG343      0.1563
    162  C        -16.3110   -7.9820  -13.1370 C.2   343  ARG343      0.2260
    163  O        -17.2980   -7.2500  -13.2110 O.2   343  ARG343     -0.2867
    164  CB       -13.9320   -7.2310  -12.9240 C.3   343  ARG343      0.0307
    165  CG       -14.1820   -6.1010  -13.9210 C.3   343  ARG343      0.0489
    166  CD       -12.8730   -5.4460  -14.3230 C.3   343  ARG343      0.2205
    167  NE       -11.8260   -6.4480  -14.4980 N.pl3 343  ARG343     -0.0865
    168  CZ       -10.6620   -6.4330  -13.8550 C.cat 343  ARG343      0.5346
    169  NH1      -10.3890   -5.4600  -12.9950 N.pl3 343  ARG343      0.1354
    170  NH2       -9.7780   -7.4050  -14.0570 N.pl3 343  ARG343      0.1354
@<TRIPOS>BOND
     1    30    31    2
     2    30    29    1
     3    28    29    1
     4   167   166    1
     5   167   168    2
     6   166   165    1
     7    36    34   ar
     8    29    32    1
     9    35    34   ar
    10   170   168    1
    11    34    33    1
    12   165   164    1
    13   168   169    1
    14    93    91   ar
    15    33    32    1
    16   163   162    2
    17   162   161    1
    18   164   161    1
    19    91    92   ar
    20    91    90    1
    21    71    70    1
    22   161   160    1
    23     3     2    1
    24     3     4    2
    25    90    89    1
    26     2     1    1
    27     2     5    1
    28    72    70    1
    29    70    69    2
    30    85    86    1
    31     7     6    2
    32     9    10    1
    33   149   148    2
    34   148   147    1
    35    45    43   ar
    36    45    47   ar
    37    86    89    1
    38    86    87    1
    39     6     5    1
    40     6     8   am
    41    48    47    1
    42    69    68    1
    43    43    42   ar
    44    16    14    1
    45    68    67    1
    46   100    99    1
    47   100    94    1
    48    47    46   ar
    49    14    13    1
    50    14    15    1
    51    10    13    1
    52    10    11    1
    53   150   147    1
    54   150   151    1
    55   147   146    1
    56    42    41    1
    57    42    44   ar
    58    20    19    2
    59    99    98    1
    60    46    44   ar
    61    87    94   am
    62    87    88    2
    63    67    66    1
    64    94    95    1
    65    41    38    1
    66    65    64    2
    67    11    17   am
    68    11    12    2
    69    66    63    1
    70    17    18    1
    71    98    95    1
    72    19    18    1
    73   151   152   ar
    74   151   153   ar
    75    64    63    1
    76    95    96    1
    77    38    37    1
    78    38    39    1
    79    63    62    1
    80    18    21    1
    81   152   154   ar
    82   122   120   ar
    83   122   123   ar
    84    21    22    1
    85    24    22   ar
    86    24    26   ar
    87   153   156   ar
    88   153   155   ar
    89   120   118   ar
    90   156   158   ar
    91    22    23   ar
    92    26    27   ar
    93   101    96   am
    94   101   102    1
    95   123   121   ar
    96    96    97    2
    97    39    49   am
    98    39    40    2
    99    62    56   am
   100   154   155   ar
   101    49    50    1
   102    23    25   ar
   103    27    25   ar
   104    61    59   ar
   105   118   117    1
   106   118   119   ar
   107   155   157   ar
   108    52    51    2
   109   158   159   ar
   110   132   130   ar
   111   132   133   ar
   112   130   129   ar
   113    57    56    2
   114   117   114    1
   115   105   102    1
   116   105   106    1
   117    56    55    1
   118   121   119   ar
   119   102   103    1
   120   113   114    1
   121   113   103   am
   122    59    60   ar
   123    59    58    1
   124    50    53    1
   125    50    51    1
   126   129   128    1
   127   129   131   ar
   128   133   135   ar
   129   133   131   ar
   130   157   159   ar
   131   127   126    2
   132   114   115    1
   133   128   125    1
   134   135   137   ar
   135   103   104    2
   136   106   108   ar
   137   106   107   ar
   138   131   134   ar
   139    55    58    1
   140    55    54    1
   141   115   116    2
   142    84    83    1
   143   108   110   ar
   144   126   125    1
   145   137   136   ar
   146   107   109   ar
   147   125   124    1
   148   134   136   ar
   149   110   111   ar
   150    83    82   ar
   151    83    81   ar
   152   144   145    1
   153   144   143    1
   154   109   111   ar
   155    82    80   ar
   156    81    79   ar
   157   111   112    1
   158    80    78   ar
   159    79    78   ar
   160   143   142    1
   161   142   139    1
   162    78    77    1
   163   140   139    1
   164   140   141    2
   165   139   138    1
   166    77    74    1
   167    76    75    2
   168    75    74    1
   169    74    73    1
