@<TRIPOS>MOLECULE
tmp/3hprB00.pdb
 198 193 0 0 0
SMALL
GASTEIGER

@<TRIPOS>ATOM
      1  N         21.0040   16.1050   37.2530 N.3     9  PRO9       -0.2102
      2  CA        20.3410   16.1230   38.5560 C.3     9  PRO9        0.1504
      3  C         20.3270   14.7350   39.2180 C.2     9  PRO9        0.2576
      4  O         20.0260   13.7360   38.5450 O.2     9  PRO9       -0.2718
      5  CB        18.9220   16.5590   38.2090 C.3     9  PRO9        0.0282
      6  CG        19.0860   17.3980   36.9670 C.3     9  PRO9        0.0208
      7  CD        20.2180   16.7860   36.2080 C.3     9  PRO9        0.0893
      8  N         20.6560   14.6800   40.5120 N.am   10  GLY10      -0.1943
      9  CA        20.6110   13.4360   41.2750 C.3    10  GLY10       0.2014
     10  C         21.7260   12.4380   40.9670 C.2    10  GLY10       0.2639
     11  O         21.6760   11.2910   41.4270 O.2    10  GLY10      -0.2714
     12  N         22.7320   12.8730   40.2060 N.am   11  ALA11      -0.1963
     13  CA        23.8740   12.0220   39.8550 C.3    11  ALA11       0.1728
     14  C         24.7060   11.5670   41.0770 C.2    11  ALA11       0.2617
     15  O         25.3700   10.5250   41.0390 O.2    11  ALA11      -0.2715
     16  CB        24.7580   12.7240   38.8590 C.3    11  ALA11       0.0334
     17  N         24.6880   12.3650   42.1410 N.am   12  GLY12      -0.1940
     18  CA        25.4150   12.0360   43.3560 C.3    12  GLY12       0.2014
     19  C         26.4950   13.0400   43.7200 C.2    12  GLY12       0.2639
     20  O         27.3560   12.7510   44.5530 O.2    12  GLY12      -0.2714
     21  N         26.4430   14.2230   43.1120 N.am   13  LYS13      -0.1963
     22  CA        27.5010   15.2170   43.2890 C.3    13  LYS13       0.1728
     23  C         27.6280   15.6780   44.7340 C.2    13  LYS13       0.2617
     24  O         28.7210   15.7050   45.2860 O.2    13  LYS13      -0.2715
     25  CB        27.2860   16.4180   42.3660 C.3    13  LYS13       0.0311
     26  CG        27.1690   16.0170   40.8980 C.3    13  LYS13       0.0038
     27  CD        26.9700   17.2160   39.9820 C.3    13  LYS13       0.0206
     28  CE        25.6560   17.9320   40.2650 C.3    13  LYS13       0.1093
     29  NZ        24.4380   17.1450   39.9340 N.3    13  LYS13      -0.1314
     30  N         26.5020   16.0330   45.3350 N.am   14  GLY14      -0.1940
     31  CA        26.4980   16.5380   46.6940 C.3    14  GLY14       0.2014
     32  C         26.9190   15.4720   47.6740 C.2    14  GLY14       0.2640
     33  O         27.6360   15.7400   48.6470 O.2    14  GLY14      -0.2714
     34  N         26.4650   14.2520   47.4120 N.am   15  THR15      -0.1936
     35  CA        26.8170   13.1140   48.2370 C.3    15  THR15       0.2028
     36  C         28.3280   12.9510   48.2490 C.2    15  THR15       0.2642
     37  O         28.9260   12.8250   49.3160 O.2    15  THR15      -0.2714
     38  CB        26.1230   11.8520   47.7250 C.3    15  THR15       0.1808
     39  OG1       24.7070   12.0280   47.8390 O.3    15  THR15      -0.2208
     40  CG2       26.5440   10.6170   48.5170 C.3    15  THR15       0.0379
     41  N         28.9530   12.9810   47.0720 N.am   16  GLN16      -0.1976
     42  CA        30.3960   12.7420   47.0020 C.3    16  GLN16       0.1601
     43  C         31.1920   13.9600   47.4550 C.2    16  GLN16       0.2287
     44  O         32.3260   13.8410   47.9250 O.2    16  GLN16      -0.2864
     45  CB        30.8220   12.3160   45.5900 C.3    16  GLN16       0.0394
     46  CG        30.3830   10.9010   45.1910 C.3    16  GLN16       0.0908
     47  CD        30.7560    9.8270   46.2190 C.2    16  GLN16       0.2608
     48  OE1       29.9640    8.9240   46.5080 O.2    16  GLN16      -0.2717
     49  NE2       31.9650    9.8980   46.7360 N.am   16  GLN16      -0.0878
     50  N         29.9000   22.8720   43.3540 N.3    84  ASP84      -0.1239
     51  CA        28.9200   21.8080   43.2650 C.3    84  ASP84       0.1674
     52  C         27.5870   22.4080   42.8440 C.2    84  ASP84       0.2266
     53  O         26.7990   22.8680   43.6850 O.2    84  ASP84      -0.2867
     54  CB        28.7940   21.1200   44.6220 C.3    84  ASP84       0.1410
     55  CG        27.6910   20.1010   44.6550 C.2    84  ASP84       0.3668
     56  OD1       27.3660   19.5400   43.5880 O.co2  84  ASP84      -0.2456
     57  OD2       27.1580   19.8540   45.7570 O.co2  84  ASP84      -0.2456
     58  N         26.5730   26.2290   35.7830 N.3    88  ARG88      -0.1245
     59  CA        25.4050   25.4670   35.3570 C.3    88  ARG88       0.1563
     60  C         25.0340   25.7890   33.9040 C.2    88  ARG88       0.2260
     61  O         24.2180   25.1060   33.3040 O.2    88  ARG88      -0.2867
     62  CB        24.2220   25.7790   36.2670 C.3    88  ARG88       0.0307
     63  CG        23.0850   24.7900   36.1430 C.3    88  ARG88       0.0489
     64  CD        23.3450   23.5340   36.9640 C.3    88  ARG88       0.2205
     65  NE        22.0890   22.8750   37.3080 N.pl3  88  ARG88      -0.0865
     66  CZ        21.6340   22.7080   38.5480 C.cat  88  ARG88       0.5346
     67  NH1       22.3410   23.1340   39.5920 N.pl3  88  ARG88       0.1354
     68  NH2       20.4670   22.1090   38.7410 N.pl3  88  ARG88       0.1354
     69  N         15.8260    8.2260   42.5340 N.3   119  ARG119     -0.1231
     70  CA        16.8540    8.7300   43.4270 C.3   119  ARG119      0.1694
     71  C         16.2940    9.9440   44.1330 C.2   119  ARG119      0.2591
     72  O         16.3940   10.0830   45.3510 O.2   119  ARG119     -0.2718
     73  CB        18.1070    9.1270   42.6430 C.3   119  ARG119      0.0321
     74  CG        19.0010    7.9570   42.3120 C.3   119  ARG119      0.0489
     75  CD        20.3820    8.4140   41.9410 C.3   119  ARG119      0.2205
     76  NE        21.2590    7.2850   41.6870 N.pl3 119  ARG119     -0.0865
     77  CZ        22.5530    7.3950   41.4110 C.cat 119  ARG119      0.5346
     78  NH1       23.1250    8.5910   41.3630 N.pl3 119  ARG119      0.1354
     79  NH2       23.2740    6.3120   41.1820 N.pl3 119  ARG119      0.1354
     80  N         15.6810   10.8180   43.3490 N.am  120  ILE120     -0.1980
     81  CA        15.2200   12.0890   43.8620 C.3   120  ILE120      0.1595
     82  C         13.9430   12.0000   44.6990 C.2   120  ILE120      0.2287
     83  O         13.7790   12.7660   45.6360 O.2   120  ILE120     -0.2864
     84  CB        15.1190   13.1580   42.7460 C.3   120  ILE120      0.0276
     85  CG1       16.5320   13.5500   42.3110 C.3   120  ILE120      0.0022
     86  CG2       14.3700   14.3680   43.2460 C.3   120  ILE120      0.0022
     87  CD1       16.6040   14.7690   41.4710 C.3   120  ILE120      0.0001
     88  N         15.0340   11.1980   48.2320 N.3   123  ARG123     -0.1245
     89  CA        16.0160   12.0830   48.8580 C.3   123  ARG123      0.1563
     90  C         15.4530   12.7870   50.0850 C.2   123  ARG123      0.2260
     91  O         14.3570   13.3470   50.0420 O.2   123  ARG123     -0.2867
     92  CB        16.5430   13.1210   47.8730 C.3   123  ARG123      0.0307
     93  CG        17.6260   14.0110   48.4620 C.3   123  ARG123      0.0489
     94  CD        18.4480   14.6710   47.3620 C.3   123  ARG123      0.2205
     95  NE        17.6530   15.4930   46.4520 N.pl3 123  ARG123     -0.0865
     96  CZ        18.1850   16.1770   45.4460 C.cat 123  ARG123      0.5346
     97  NH1       19.4970   16.1260   45.2520 N.pl3 123  ARG123      0.1354
     98  NH2       17.4180   16.9080   44.6420 N.pl3 123  ARG123      0.1354
     99  N         22.9520   15.1150   52.4930 N.3   132  VAL132     -0.1231
    100  CA        21.8630   14.4300   51.8150 C.3   132  VAL132      0.1692
    101  C         21.8760   12.9310   52.0800 C.2   132  VAL132      0.2592
    102  O         22.9300   12.3310   52.2690 O.2   132  VAL132     -0.2718
    103  CB        21.9130   14.6710   50.2930 C.3   132  VAL132      0.0266
    104  CG1       20.9540   13.7450   49.5790 C.3   132  VAL132      0.0020
    105  CG2       21.5880   16.1160   49.9910 C.3   132  VAL132      0.0020
    106  N         20.6860   12.3420   52.0730 N.am  133  TYR133     -0.1962
    107  CA        20.4950   10.9180   52.3170 C.3   133  TYR133      0.1771
    108  C         19.5050   10.3410   51.3220 C.2   133  TYR133      0.2619
    109  O         18.8500   11.0850   50.5810 O.2   133  TYR133     -0.2715
    110  CB        19.9480   10.7180   53.7290 C.3   133  TYR133      0.0574
    111  CG        20.8710   11.2610   54.7760 C.ar  133  TYR133     -0.0198
    112  CD1       21.8580   10.4630   55.3360 C.ar  133  TYR133     -0.0009
    113  CD2       20.7700   12.5790   55.1950 C.ar  133  TYR133     -0.0009
    114  CE1       22.7080   10.9650   56.2930 C.ar  133  TYR133      0.0417
    115  CE2       21.6140   13.0830   56.1450 C.ar  133  TYR133      0.0417
    116  CZ        22.5770   12.2770   56.6910 C.ar  133  TYR133      0.1957
    117  OH        23.4220   12.7940   57.6330 O.3   133  TYR133     -0.2866
    118  N         19.4010    9.0200   51.2950 N.am  134  HIS134     -0.1973
    119  CA        18.3520    8.3740   50.5200 C.3   134  HIS134      0.1656
    120  C         17.6860    7.2710   51.3300 C.2   134  HIS134      0.2291
    121  O         18.3600    6.4020   51.8760 O.2   134  HIS134     -0.2864
    122  CB        18.8950    7.8260   49.2020 C.3   134  HIS134      0.0771
    123  CG        17.8160    7.4210   48.2480 C.ar  134  HIS134      0.0820
    124  ND1       17.1670    6.2110   48.3370 N.ar  134  HIS134     -0.2267
    125  CD2       17.2280    8.0950   47.2300 C.ar  134  HIS134      0.1154
    126  CE1       16.2440    6.1410   47.3920 C.ar  134  HIS134      0.1986
    127  NE2       16.2590    7.2710   46.7090 N.ar  134  HIS134     -0.2212
    128  N         18.6520    3.9050   49.2390 N.3   137  PHE137     -0.1227
    129  CA        19.9540    3.6900   48.6220 C.3   137  PHE137      0.1736
    130  C         21.0970    4.1320   49.5220 C.2   137  PHE137      0.2595
    131  O         22.2030    3.6030   49.4350 O.2   137  PHE137     -0.2718
    132  CB        20.0510    4.4370   47.2900 C.3   137  PHE137      0.0547
    133  CG        18.9120    4.1660   46.3480 C.ar  137  PHE137     -0.0202
    134  CD1       18.2360    2.9560   46.3780 C.ar  137  PHE137     -0.0042
    135  CD2       18.5480    5.1120   45.3980 C.ar  137  PHE137     -0.0042
    136  CE1       17.2000    2.7000   45.5000 C.ar  137  PHE137     -0.0003
    137  CE2       17.5160    4.8610   44.5080 C.ar  137  PHE137     -0.0003
    138  CZ        16.8390    3.6550   44.5580 C.ar  137  PHE137     -0.0000
    139  N         20.8340    5.1220   50.3710 N.am  138  ASN138     -0.1974
    140  CA        21.8620    5.6800   51.2350 C.3   138  ASN138      0.1688
    141  C         21.2510    6.2780   52.5120 C.2   138  ASN138      0.2292
    142  O         21.2490    7.4960   52.7120 O.2   138  ASN138     -0.2864
    143  CB        22.6650    6.7350   50.4720 C.3   138  ASN138      0.1181
    144  CG        23.9820    7.0520   51.1410 C.2   138  ASN138      0.2629
    145  OD1       24.5470    6.2160   51.8450 O.2   138  ASN138     -0.2716
    146  ND2       24.4730    8.2740   50.9430 N.am  138  ASN138     -0.0877
    147  N         12.8970   18.0660   50.2120 N.3   156  ARG156     -0.1245
    148  CA        12.7960   19.2620   49.3770 C.3   156  ARG156      0.1563
    149  C         11.4720   19.3880   48.6150 C.2   156  ARG156      0.2260
    150  O         10.8990   18.4060   48.1430 O.2   156  ARG156     -0.2867
    151  CB        13.9880   19.3540   48.4360 C.3   156  ARG156      0.0307
    152  CG        15.2340   19.8030   49.1660 C.3   156  ARG156      0.0489
    153  CD        16.4430   19.6690   48.3000 C.3   156  ARG156      0.2205
    154  NE        16.1640   20.0780   46.9330 N.pl3 156  ARG156     -0.0865
    155  CZ        17.0400   19.9570   45.9520 C.cat 156  ARG156      0.5346
    156  NH1       18.2260   19.4420   46.2220 N.pl3 156  ARG156      0.1354
    157  NH2       16.7340   20.3450   44.7170 N.pl3 156  ARG156      0.1354
    158  N         28.6850    6.8110   38.0880 N.3   198  GLY198     -0.1210
    159  CA        27.9620    7.2790   39.2630 C.3   198  GLY198      0.1956
    160  C         26.8170    6.3630   39.6210 C.2   198  GLY198      0.2613
    161  O         25.9340    6.7430   40.3800 O.2   198  GLY198     -0.2717
    162  N         26.8250    5.1590   39.0490 N.am  199  THR199     -0.1938
    163  CA        25.8380    4.1490   39.3870 C.3   199  THR199      0.2028
    164  C         26.4300    3.1150   40.3410 C.2   199  THR199      0.2642
    165  O         25.7180    2.2340   40.8270 O.2   199  THR199     -0.2714
    166  CB        25.2780    3.4220   38.1350 C.3   199  THR199      0.1808
    167  OG1       26.3030    2.6150   37.5510 O.3   199  THR199     -0.2208
    168  CG2       24.7920    4.4090   37.1170 C.3   199  THR199      0.0379
    169  N         27.7300    3.2170   40.6030 N.am  200  LYS200     -0.1963
    170  CA        28.3590    2.3830   41.6280 C.3   200  LYS200      0.1713
    171  C         27.8140    2.7520   43.0020 C.2   200  LYS200      0.2458
    172  O         27.2760    3.8400   43.1920 O.2   200  LYS200     -0.2730
    173  CB        29.8790    2.5570   41.6260 C.3   200  LYS200      0.0311
    174  CG        30.5890    1.9470   40.4380 C.3   200  LYS200      0.0038
    175  CD        32.0890    2.0720   40.6100 C.3   200  LYS200      0.0206
    176  CE        32.8450    1.5640   39.3860 C.3   200  LYS200      0.1093
    177  NZ        34.2990    1.4050   39.6940 N.3   200  LYS200     -0.1314
    178  N         27.9420    1.8390   43.9670 N.am  201  PRO201     -0.2716
    179  CA        27.5480    2.1650   45.3380 C.3   201  PRO201      0.1536
    180  C         28.3280    3.3790   45.8350 C.2   201  PRO201      0.2598
    181  O         29.4880    3.5650   45.4710 O.2   201  PRO201     -0.2715
    182  CB        27.9360    0.9030   46.1180 C.3   201  PRO201      0.0310
    183  CG        27.8610   -0.1980   45.0800 C.3   201  PRO201      0.0237
    184  CD        28.3730    0.4350   43.8290 C.3   201  PRO201      0.0939
    185  N         27.6880    4.1980   46.6580 N.am  202  VAL202     -0.1978
    186  CA        28.3190    5.4000   47.1990 C.3   202  VAL202      0.1596
    187  C         29.7920    5.2210   47.5630 C.2   202  VAL202      0.2287
    188  O         30.6280    6.0470   47.2160 O.2   202  VAL202     -0.2864
    189  CB        27.5610    5.8940   48.4410 C.3   202  VAL202      0.0276
    190  CG1       28.3420    7.0030   49.1460 C.3   202  VAL202      0.0022
    191  CG2       26.1750    6.3760   48.0540 C.3   202  VAL202      0.0022
    192  N         32.0990    4.8760   44.3740 N.3   205  VAL205     -0.1245
    193  CA        32.2930    6.1480   43.6860 C.3   205  VAL205      0.1561
    194  C         33.3360    6.9610   44.4740 C.2   205  VAL205      0.2260
    195  O         34.2700    7.5290   43.9060 O.2   205  VAL205     -0.2867
    196  CB        30.9590    6.9210   43.5560 C.3   205  VAL205      0.0252
    197  CG1       31.1660    8.2160   42.7990 C.3   205  VAL205      0.0019
    198  CG2       29.9010    6.0630   42.8550 C.3   205  VAL205      0.0019
@<TRIPOS>BOND
     1    61    60    2
     2    60    59    1
     3    59    58    1
     4    59    62    1
     5    63    62    1
     6    63    64    1
     7     7     6    1
     8     7     1    1
     9    64    65    1
    10     6     5    1
    11   168   166    1
    12     1     2    1
    13    65    66    2
    14   167   166    1
    15   158   159    1
    16   166   163    1
    17     5     2    1
    18     4     3    2
    19    66    68    1
    20    66    67    1
    21     2     3    1
    22    16    13    1
    23   162   163    1
    24   162   160   am
    25     3     8   am
    26   159   160    1
    27   176   177    1
    28   176   175    1
    29   163   164    1
    30   160   161    2
    31    13    12    1
    32    13    14    1
    33    29    28    1
    34    27    28    1
    35    27    26    1
    36    12    10   am
    37   164   169   am
    38   164   165    2
    39   174   175    1
    40   174   173    1
    41     8     9    1
    42   169   170    1
    43    26    25    1
    44    10     9    1
    45    10    11    2
    46    15    14    2
    47    14    17   am
    48    79    77    1
    49    78    77    1
    50    77    76    2
    51    87    85    1
    52   173   170    1
    53   170   171    1
    54    76    75    1
    55    75    74    1
    56    17    18    1
    57    85    84    1
    58    74    73    1
    59    25    22    1
    60    69    70    1
    61    73    70    1
    62    84    86    1
    63    84    81    1
    64   197   196    1
    65    52    51    1
    66    52    53    2
    67   198   196    1
    68   171   172    2
    69   171   178   am
    70    21    22    1
    71    21    19   am
    72    51    50    1
    73    51    54    1
    74    22    23    1
    75    80    81    1
    76    80    71   am
    77    18    19    1
    78    70    71    1
    79   196   193    1
    80    56    55   ar
    81   193   192    1
    82   193   194    1
    83    19    20    2
    84   184   178    1
    85   184   183    1
    86    81    82    1
    87   195   194    2
    88   178   179    1
    89    71    72    2
    90   137   138   ar
    91   137   135   ar
    92   138   136   ar
    93    54    55    1
    94    98    96    1
    95    55    57   ar
    96    82    83    2
    97   157   155    1
    98    23    24    2
    99    23    30   am
   100   183   182    1
   101    46    45    1
   102    46    47    1
   103    97    96    1
   104    30    31    1
   105   179   180    1
   106   179   182    1
   107   135   133   ar
   108    96    95    2
   109   181   180    2
   110   136   134   ar
   111    45    42    1
   112   180   185   am
   113   155   156    1
   114   155   154    2
   115    47    48    2
   116    47    49   am
   117   133   134   ar
   118   133   132    1
   119    95    94    1
   120   185   186    1
   121    31    32    1
   122   127   125   ar
   123   127   126   ar
   124   154   153    1
   125    42    41    1
   126    42    43    1
   127    41    36   am
   128   186   187    1
   129   186   189    1
   130   188   187    2
   131   125   123   ar
   132   132   129    1
   133    94    93    1
   134   126   124   ar
   135    34    32   am
   136    34    35    1
   137    43    44    2
   138    32    33    2
   139    38    39    1
   140    38    35    1
   141    38    40    1
   142    92    93    1
   143    92    89    1
   144   191   189    1
   145   150   149    2
   146    88    89    1
   147    35    36    1
   148   123   124   ar
   149   123   122    1
   150    36    37    2
   151   153   152    1
   152   151   152    1
   153   151   148    1
   154   189   190    1
   155   149   148    1
   156   129   128    1
   157   129   130    1
   158    89    90    1
   159   122   119    1
   160   148   147    1
   161   131   130    2
   162   130   139   am
   163   104   103    1
   164   105   103    1
   165    91    90    2
   166   103   100    1
   167   139   140    1
   168   143   144    1
   169   143   140    1
   170   119   118    1
   171   119   120    1
   172   109   108    2
   173   146   144   am
   174   144   145    2
   175   140   141    1
   176   118   108   am
   177   108   107    1
   178   120   121    2
   179   100   101    1
   180   100    99    1
   181   106   101   am
   182   106   107    1
   183   101   102    2
   184   107   110    1
   185   141   142    2
   186   110   111    1
   187   111   113   ar
   188   111   112   ar
   189   113   115   ar
   190   112   114   ar
   191   115   116   ar
   192   114   116   ar
   193   116   117    1
