@<TRIPOS>MOLECULE
tmp/3hpsB01.pdb
 65 63 0 0 0
SMALL
GASTEIGER

@<TRIPOS>ATOM
      1  N         53.6810  -13.1390  -11.3080 N.3   525  ALA525     -0.1245
      2  CA        55.0990  -13.2430  -10.9290 C.3   525  ALA525      0.1562
      3  C         55.4760  -12.0000  -10.1510 C.2   525  ALA525      0.2260
      4  O         54.9920  -10.8870  -10.4600 O.2   525  ALA525     -0.2867
      5  CB        55.9740  -13.3600  -12.2150 C.3   525  ALA525      0.0290
      6  N         62.0320  -14.0960  -14.5980 N.3   529  GLY529     -0.1210
      7  CA        62.6960  -15.3870  -14.3820 C.3   529  GLY529      0.1956
      8  C         61.6820  -16.5070  -14.1390 C.2   529  GLY529      0.2612
      9  O         60.6410  -16.3160  -13.4900 O.2   529  GLY529     -0.2717
     10  N         61.9930  -17.6840  -14.6550 N.am  530  ASP530     -0.1959
     11  CA        61.1130  -18.8490  -14.4870 C.3   530  ASP530      0.1840
     12  C         61.0770  -19.3020  -13.0170 C.2   530  ASP530      0.2622
     13  O         60.1410  -19.9790  -12.6020 O.2   530  ASP530     -0.2715
     14  CB        61.6010  -19.9800  -15.3790 C.3   530  ASP530      0.1450
     15  CG        62.9920  -20.4810  -14.9590 C.2   530  ASP530      0.3671
     16  OD1       63.9720  -19.7520  -15.1290 O.co2 530  ASP530     -0.2456
     17  OD2       63.1180  -21.5950  -14.4460 O.co2 530  ASP530     -0.2456
     18  N         62.0890  -18.8950  -12.2440 N.am  531  ASP531     -0.1957
     19  CA        62.1830  -19.2160  -10.8210 C.3   531  ASP531      0.1840
     20  C         61.6180  -18.1200   -9.9170 C.2   531  ASP531      0.2622
     21  O         61.7480  -18.1800   -8.6990 O.2   531  ASP531     -0.2715
     22  CB        63.6390  -19.5010  -10.4540 C.3   531  ASP531      0.1450
     23  CG        64.5320  -18.2720  -10.5940 C.2   531  ASP531      0.3671
     24  OD1       64.1560  -17.3060  -11.3120 O.co2 531  ASP531     -0.2456
     25  OD2       65.6360  -18.2820   -9.9970 O.co2 531  ASP531     -0.2456
     26  N         60.9530  -17.1300  -10.4950 N.am  532  ALA532     -0.1963
     27  CA        60.2900  -16.1170   -9.6740 C.3   532  ALA532      0.1728
     28  C         59.2650  -16.7010   -8.6810 C.2   532  ALA532      0.2616
     29  O         58.6430  -17.7770   -8.9040 O.2   532  ALA532     -0.2715
     30  CB        59.6070  -15.0130  -10.5770 C.3   532  ALA532      0.0334
     31  N         59.0940  -15.9620   -7.5890 N.am  533  GLN533     -0.1963
     32  CA        57.9550  -16.1300   -6.6990 C.3   533  GLN533      0.1733
     33  C         56.6550  -15.7340   -7.3800 C.2   533  GLN533      0.2616
     34  O         56.6060  -14.7720   -8.1540 O.2   533  GLN533     -0.2715
     35  CB        58.1050  -15.2700   -5.4320 C.3   533  GLN533      0.0408
     36  CG        59.4130  -15.5340   -4.6300 C.3   533  GLN533      0.0908
     37  CD        59.3480  -16.8600   -3.8900 C.2   533  GLN533      0.2608
     38  OE1       60.1630  -17.7620   -4.1280 O.2   533  GLN533     -0.2717
     39  NE2       58.3720  -16.9890   -2.9900 N.am  533  GLN533     -0.0878
     40  N         55.5960  -16.4630   -7.0370 N.am  534  ALA534     -0.1977
     41  CA        54.2610  -16.1750   -7.5130 C.3   534  ALA534      0.1597
     42  C         53.4330  -15.6690   -6.3230 C.2   534  ALA534      0.2287
     43  O         53.5960  -16.1530   -5.2090 O.2   534  ALA534     -0.2864
     44  CB        53.6430  -17.4420   -8.0860 C.3   534  ALA534      0.0319
     45  N         57.3100  -20.0520   -4.3040 N.3   558  PRO558     -0.2102
     46  CA        58.0770  -20.2270   -5.5150 C.3   558  PRO558      0.1504
     47  C         57.3480  -21.0960   -6.5570 C.2   558  PRO558      0.2576
     48  O         57.7210  -21.0630   -7.7160 O.2   558  PRO558     -0.2718
     49  CB        59.3500  -20.9540   -5.0350 C.3   558  PRO558      0.0282
     50  CG        58.9740  -21.5930   -3.7600 C.3   558  PRO558      0.0208
     51  CD        57.9580  -20.6680   -3.1280 C.3   558  PRO558      0.0893
     52  N         56.3580  -21.8770   -6.1240 N.am  559  SER559     -0.1938
     53  CA        55.5030  -22.6540   -7.0410 C.3   559  SER559      0.2055
     54  C         54.1840  -21.9550   -7.2790 C.2   559  SER559      0.2642
     55  O         53.4820  -21.6280   -6.3260 O.2   559  SER559     -0.2714
     56  CB        55.1650  -24.0190   -6.4180 C.3   559  SER559      0.2130
     57  OG        54.0810  -24.6600   -7.0890 O.3   559  SER559     -0.2179
     58  N         53.8360  -21.7710   -8.5450 N.am  560  ILE560     -0.1977
     59  CA        52.5330  -21.2190   -8.8500 C.3   560  ILE560      0.1596
     60  C         51.4020  -22.0450   -8.2280 C.2   560  ILE560      0.2287
     61  O         50.3630  -21.4710   -7.8390 O.2   560  ILE560     -0.2864
     62  CB        52.3070  -21.0330  -10.3600 C.3   560  ILE560      0.0276
     63  CG1       52.4380  -22.3640  -11.1050 C.3   560  ILE560      0.0022
     64  CG2       53.2560  -19.9820  -10.9150 C.3   560  ILE560      0.0022
     65  CD1       51.4960  -22.4610  -12.2460 C.3   560  ILE560      0.0001
@<TRIPOS>BOND
     1    14    15    1
     2    14    11    1
     3    16    15   ar
     4    15    17   ar
     5    10    11    1
     6    10     8   am
     7     6     7    1
     8    11    12    1
     9     7     8    1
    10     8     9    2
    11    12    13    2
    12    12    18   am
    13    65    63    1
    14    18    19    1
    15     5     2    1
    16    24    23   ar
    17     1     2    1
    18    63    62    1
    19     2     3    1
    20    64    62    1
    21    19    22    1
    22    19    20    1
    23    23    22    1
    24    23    25   ar
    25    30    27    1
    26    26    20   am
    27    26    27    1
    28     4     3    2
    29    62    59    1
    30    20    21    2
    31    27    28    1
    32    29    28    2
    33    59    58    1
    34    59    60    1
    35    28    31   am
    36    58    54   am
    37    60    61    2
    38    34    33    2
    39    44    41    1
    40    48    47    2
    41    31    32    1
    42    41    40    1
    43    41    42    1
    44    33    40   am
    45    33    32    1
    46    54    53    1
    47    54    55    2
    48    57    56    1
    49    53    56    1
    50    53    52    1
    51    32    35    1
    52    47    52   am
    53    47    46    1
    54    42    43    2
    55    46    49    1
    56    46    45    1
    57    35    36    1
    58    49    50    1
    59    36    37    1
    60    45    51    1
    61    38    37    2
    62    37    39   am
    63    50    51    1
