@<TRIPOS>MOLECULE
tmp/3hpsB02.pdb
 115 108 0 0 0
SMALL
GASTEIGER

@<TRIPOS>ATOM
      1  N         22.9180    8.2720  -32.5820 N.3    62  ARG62      -0.1231
      2  CA        22.7770    9.3580  -33.5270 C.3    62  ARG62       0.1694
      3  C         23.3980   10.6600  -32.9690 C.2    62  ARG62       0.2592
      4  O         24.4900   11.0790  -33.4280 O.2    62  ARG62      -0.2718
      5  CB        21.2840    9.5420  -33.9310 C.3    62  ARG62       0.0321
      6  CG        21.0260   10.4930  -35.1510 C.3    62  ARG62       0.0489
      7  CD        21.1880   11.9820  -34.8150 C.3    62  ARG62       0.2205
      8  NE        20.2020   12.4500  -33.8170 N.pl3  62  ARG62      -0.0865
      9  CZ        20.1750   13.6850  -33.3190 C.cat  62  ARG62       0.5346
     10  NH1       21.1310   14.5660  -33.6440 N.pl3  62  ARG62       0.1354
     11  NH2       19.2140   14.0360  -32.4630 N.pl3  62  ARG62       0.1354
     12  N         22.7180   11.3080  -32.0080 N.am   63  ASP63      -0.1974
     13  CA        23.2460   12.5620  -31.4080 C.3    63  ASP63       0.1709
     14  C         24.5950   12.2440  -30.7560 C.2    63  ASP63       0.2293
     15  O         25.5760   12.9800  -30.9250 O.2    63  ASP63      -0.2864
     16  CB        22.2730   13.1250  -30.3280 C.3    63  ASP63       0.1436
     17  CG        22.2600   14.6590  -30.2610 C.2    63  ASP63       0.3671
     18  OD1       23.3260   15.3060  -30.4620 O.co2  63  ASP63      -0.2456
     19  OD2       21.1710   15.1840  -29.9050 O.co2  63  ASP63      -0.2456
     20  N         16.5680    9.6670  -37.9700 N.3   125  LEU125     -0.1245
     21  CA        16.4630   11.1310  -38.1390 C.3   125  LEU125      0.1561
     22  C         16.5990   11.4910  -39.5960 C.2   125  LEU125      0.2260
     23  O         17.4380   10.8930  -40.3030 O.2   125  LEU125     -0.2867
     24  CB        17.5590   11.8490  -37.3440 C.3   125  LEU125      0.0270
     25  CG        17.4900   13.3890  -37.3940 C.3   125  LEU125      0.0019
     26  CD1       16.3080   13.9160  -36.6250 C.3   125  LEU125      0.0001
     27  CD2       18.7960   13.9830  -36.8510 C.3   125  LEU125      0.0001
     28  N         11.6980   10.5020  -37.7630 N.3   149  HIS149     -0.1241
     29  CA        11.8550   11.7520  -37.0520 C.3   149  HIS149      0.1621
     30  C         12.3920   12.7750  -38.0400 C.2   149  HIS149      0.2264
     31  O         13.5270   12.6790  -38.4790 O.2   149  HIS149     -0.2867
     32  CB        12.8190   11.5230  -35.8810 C.3   149  HIS149      0.0745
     33  CG        13.1230   12.7540  -35.0840 C.ar  149  HIS149      0.0817
     34  ND1       14.1250   12.7900  -34.1500 N.ar  149  HIS149     -0.2268
     35  CD2       12.5650   13.9980  -35.0930 C.ar  149  HIS149      0.1154
     36  CE1       14.1770   14.0000  -33.6080 C.ar  149  HIS149      0.1986
     37  NE2       13.2370   14.7480  -34.1580 N.ar  149  HIS149     -0.2212
     38  N         12.8500   17.0770  -38.9600 N.3   151  TYR151     -0.1241
     39  CA        13.0370   18.3230  -38.2260 C.3   151  TYR151      0.1605
     40  C         13.4380   19.4520  -39.1430 C.2   151  TYR151      0.2264
     41  O         13.9570   19.2380  -40.2500 O.2   151  TYR151     -0.2867
     42  CB        14.0970   18.1700  -37.1550 C.3   151  TYR151      0.0534
     43  CG        15.4900   18.0870  -37.6810 C.ar  151  TYR151     -0.0201
     44  CD1       15.9650   16.9200  -38.2770 C.ar  151  TYR151     -0.0009
     45  CD2       16.3400   19.1940  -37.5890 C.ar  151  TYR151     -0.0009
     46  CE1       17.2940   16.8390  -38.7510 C.ar  151  TYR151      0.0417
     47  CE2       17.6580   19.1340  -38.0470 C.ar  151  TYR151      0.0417
     48  CZ        18.1240   17.9590  -38.6210 C.ar  151  TYR151      0.1957
     49  OH        19.4130   17.9360  -39.0810 O.3   151  TYR151     -0.2866
     50  N         10.4680   17.6250  -34.6900 N.3   198  SER198     -0.1217
     51  CA        11.1190   18.5860  -33.7990 C.3   198  SER198      0.1889
     52  C         11.2710   19.9660  -34.4660 C.2   198  SER198      0.2288
     53  O         11.8440   20.0710  -35.5550 O.2   198  SER198     -0.2866
     54  CB        12.5450   18.1240  -33.3570 C.3   198  SER198      0.2089
     55  OG        12.5270   16.8870  -32.6340 O.3   198  SER198     -0.2183
     56  N         13.5750   22.4120  -34.3900 N.3   200  GLU200     -0.1245
     57  CA        14.9460   22.3430  -33.9210 C.3   200  GLU200      0.1567
     58  C         15.3130   23.7570  -33.4300 C.2   200  GLU200      0.2260
     59  O         14.8280   24.7130  -34.0070 O.2   200  GLU200     -0.2867
     60  CB        15.8550   21.8540  -35.0630 C.3   200  GLU200      0.0388
     61  CG        17.3000   21.4700  -34.5970 C.3   200  GLU200      0.1160
     62  CD        18.3110   22.5720  -34.8510 C.2   200  GLU200      0.3649
     63  OE1       17.9050   23.7510  -35.0070 O.co2 200  GLU200     -0.2457
     64  OE2       19.5300   22.2660  -34.9180 O.co2 200  GLU200     -0.2457
     65  N          8.7480   16.7160  -30.3320 N.3   232  ASN232     -0.1240
     66  CA         9.9490   16.6710  -29.5160 C.3   232  ASN232      0.1653
     67  C         10.4770   18.1110  -29.4530 C.2   232  ASN232      0.2266
     68  O         10.6570   18.7440  -30.4790 O.2   232  ASN232     -0.2867
     69  CB        10.9570   15.6920  -30.1530 C.3   232  ASN232      0.1155
     70  CG        12.2790   15.6130  -29.4050 C.2   232  ASN232      0.2627
     71  OD1       12.3330   15.0910  -28.2860 O.2   232  ASN232     -0.2716
     72  ND2       13.3670   16.0030  -30.0710 N.am  232  ASN232     -0.0877
     73  N         13.4410   20.3620  -28.4050 N.3   234  PRO234     -0.2116
     74  CA        14.8390   20.2980  -27.9480 C.3   234  PRO234      0.1372
     75  C         15.3650   21.6080  -27.3870 C.2   234  PRO234      0.2244
     76  O         15.1050   22.6780  -27.9590 O.2   234  PRO234     -0.2868
     77  CB        15.6080   20.0000  -29.2410 C.3   234  PRO234      0.0268
     78  CG        14.7690   20.6720  -30.3280 C.3   234  PRO234      0.0207
     79  CD        13.3410   20.4490  -29.8760 C.3   234  PRO234      0.0892
     80  N         18.2100   22.6490  -28.0590 N.3   236  THR236     -0.1218
     81  CA        19.3000   22.4010  -28.9980 C.3   236  THR236      0.1862
     82  C         20.5500   23.0640  -28.4230 C.2   236  THR236      0.2287
     83  O         21.6370   22.4560  -28.3670 O.2   236  THR236     -0.2866
     84  CB        18.9130   22.9520  -30.3890 C.3   236  THR236      0.1770
     85  OG1       17.6900   22.3270  -30.7910 O.3   236  THR236     -0.2211
     86  CG2       19.9930   22.6750  -31.4190 C.3   236  THR236      0.0375
     87  N         14.1730   17.0680  -25.2770 N.3   267  HIS267     -0.1241
     88  CA        15.4960   16.7510  -25.8230 C.3   267  HIS267      0.1621
     89  C         16.4730   17.8210  -25.3400 C.2   267  HIS267      0.2264
     90  O         16.8410   18.7140  -26.0930 O.2   267  HIS267     -0.2867
     91  CB        15.4260   16.6280  -27.3580 C.3   267  HIS267      0.0745
     92  CG        16.7230   16.2370  -28.0060 C.ar  267  HIS267      0.0817
     93  ND1       16.9210   14.9890  -28.5670 N.ar  267  HIS267     -0.2268
     94  CD2       17.8580   16.9390  -28.2330 C.ar  267  HIS267      0.1154
     95  CE1       18.1400   14.9350  -29.0840 C.ar  267  HIS267      0.1986
     96  NE2       18.7180   16.1110  -28.9130 N.ar  267  HIS267     -0.2212
     97  N         19.9470   19.6430  -24.0970 N.3   269  HIS269     -0.1241
     98  CA        21.4130   19.6080  -24.0610 C.3   269  HIS269      0.1621
     99  C         21.9080   20.3140  -22.8070 C.2   269  HIS269      0.2264
    100  O         21.1200   20.9220  -22.0750 O.2   269  HIS269     -0.2867
    101  CB        22.0170   20.1830  -25.3740 C.3   269  HIS269      0.0745
    102  CG        21.9230   19.2320  -26.5290 C.ar  269  HIS269      0.0817
    103  ND1       22.8950   18.2900  -26.7910 N.ar  269  HIS269     -0.2268
    104  CD2       20.9330   19.0090  -27.4350 C.ar  269  HIS269      0.1154
    105  CE1       22.5350   17.5580  -27.8330 C.ar  269  HIS269      0.1986
    106  NE2       21.3420   17.9670  -28.2390 N.ar  269  HIS269     -0.2212
    107  N         26.2220   16.2200  -28.6870 N.3   299  GLU299     -0.1245
    108  CA        26.8740   17.4240  -29.2090 C.3   299  GLU299      0.1567
    109  C         27.3920   18.3360  -28.0710 C.2   299  GLU299      0.2260
    110  O         26.6800   18.6180  -27.1030 O.2   299  GLU299     -0.2867
    111  CB        25.9210   18.2030  -30.1580 C.3   299  GLU299      0.0388
    112  CG        25.7570   17.5940  -31.5560 C.3   299  GLU299      0.1160
    113  CD        26.9360   17.8250  -32.5050 C.2   299  GLU299      0.3649
    114  OE1       26.9500   17.1830  -33.5950 O.co2 299  GLU299     -0.2457
    115  OE2       27.8400   18.6430  -32.1820 O.co2 299  GLU299     -0.2457
@<TRIPOS>BOND
     1    23    22    2
     2    41    40    2
     3    22    21    1
     4    40    39    1
     5    49    48    1
     6    38    39    1
     7    46    48   ar
     8    46    44   ar
     9    48    47   ar
    10    31    30    2
    11    44    43   ar
    12    39    42    1
    13    21    20    1
    14    21    24    1
    15    47    45   ar
    16    30    29    1
    17    28    29    1
    18    43    45   ar
    19    43    42    1
    20    25    24    1
    21    25    27    1
    22    25    26    1
    23    29    32    1
    24    32    33    1
    25    53    52    2
    26     6     7    1
    27     6     5    1
    28    35    33   ar
    29    35    37   ar
    30    33    34   ar
    31    60    61    1
    32    60    57    1
    33    63    62   ar
    34    64    62   ar
    35    62    61    1
    36     7     8    1
    37    50    51    1
    38    52    51    1
    39    56    57    1
    40    37    36   ar
    41    34    36   ar
    42    59    58    2
    43     5     2    1
    44    57    58    1
    45     8     9    2
    46    51    54    1
    47    10     9    1
    48   114   113   ar
    49     2     3    1
    50     2     1    1
    51     4     3    2
    52    54    55    1
    53     9    11    1
    54     3    12   am
    55   113   115   ar
    56   113   112    1
    57    12    13    1
    58   112   111    1
    59    86    84    1
    60    13    14    1
    61    13    16    1
    62    15    14    2
    63    85    84    1
    64    68    67    2
    65    18    17   ar
    66    84    81    1
    67    65    66    1
    68    16    17    1
    69    78    79    1
    70    78    77    1
    71    17    19   ar
    72   111   108    1
    73    69    66    1
    74    69    70    1
    75    72    70   am
    76    79    73    1
    77    66    67    1
    78    70    71    2
    79    77    74    1
    80   108   107    1
    81   108   109    1
    82    95    96   ar
    83    95    93   ar
    84    81    82    1
    85    81    80    1
    86    96    94   ar
    87    93    92   ar
    88    82    83    2
    89    73    74    1
    90   106   105   ar
    91   106   104   ar
    92    94    92   ar
    93   109   110    2
    94    92    91    1
    95    76    75    2
    96    74    75    1
    97   105   103   ar
    98   104   102   ar
    99    91    88    1
   100   103   102   ar
   101   102   101    1
   102    90    89    2
   103    88    89    1
   104    88    87    1
   105   101    98    1
   106    97    98    1
   107    98    99    1
   108    99   100    2
