@<TRIPOS>MOLECULE
tmp/3hptB00.pdb
 194 193 0 0 0
SMALL
GASTEIGER

@<TRIPOS>ATOM
      1  N          1.9580    4.9530   40.4840 N.3    46  GLN46      -0.1245
      2  CA         0.8800    4.4230   39.6430 C.3    46  GLN46       0.1566
      3  C          0.2810    3.1020   40.1570 C.2    46  GLN46       0.2260
      4  O         -0.4550    2.4170   39.4400 O.2    46  GLN46      -0.2867
      5  CB         1.3480    4.3190   38.1780 C.3    46  GLN46       0.0367
      6  CG         1.7460    5.6760   37.5910 C.3    46  GLN46       0.0905
      7  CD         2.0470    5.6530   36.1130 C.2    46  GLN46       0.2608
      8  OE1        2.7390    4.7710   35.6090 O.2    46  GLN46      -0.2717
      9  NE2        1.5370    6.6500   35.4050 N.am   46  GLN46      -0.0878
     10  N          8.2470   15.5820   38.8410 N.3    82  LYS82      -0.1231
     11  CA         6.9920   15.1100   38.2630 C.3    82  LYS82       0.1693
     12  C          6.6110   15.8410   36.9840 C.2    82  LYS82       0.2592
     13  O          6.0980   15.2260   36.0570 O.2    82  LYS82      -0.2718
     14  CB         5.8630   15.1920   39.3090 C.3    82  LYS82       0.0285
     15  CG         6.1500   14.3360   40.5700 C.3    82  LYS82       0.0035
     16  CD         5.3680   14.7770   41.8120 C.3    82  LYS82       0.0206
     17  CE         5.4980   13.7520   42.9480 C.3    82  LYS82       0.1093
     18  NZ         4.7590   14.1570   44.1960 N.3    82  LYS82      -0.1314
     19  N          6.8700   17.1440   36.9140 N.am   83  GLU83      -0.1966
     20  CA         6.4600   17.8980   35.7230 C.3    83  GLU83       0.1733
     21  C          7.3520   17.6850   34.4970 C.2    83  GLU83       0.2617
     22  O          6.8990   17.8950   33.3730 O.2    83  GLU83      -0.2715
     23  CB         6.1730   19.3830   36.0080 C.3    83  GLU83       0.0429
     24  CG         6.9790   20.0340   37.0910 C.3    83  GLU83       0.1163
     25  CD         6.5990   19.5810   38.4840 C.2    83  GLU83       0.3649
     26  OE1        7.3800   18.8120   39.0700 O.co2  83  GLU83      -0.2457
     27  OE2        5.5310   19.9850   38.9920 O.co2  83  GLU83      -0.2457
     28  N          8.5960   17.2470   34.6990 N.am   84  THR84      -0.1937
     29  CA         9.4940   17.0200   33.5690 C.3    84  THR84       0.2028
     30  C          9.8770   15.5420   33.3710 C.2    84  THR84       0.2642
     31  O         10.2880   15.1550   32.2760 O.2    84  THR84      -0.2714
     32  CB        10.7780   17.8710   33.6750 C.3    84  THR84       0.1808
     33  OG1       11.4880   17.5310   34.8730 O.3    84  THR84      -0.2208
     34  CG2       10.4420   19.3860   33.6690 C.3    84  THR84       0.0379
     35  N          9.7140   14.7350   34.4250 N.am   85  TYR85      -0.1973
     36  CA        10.2290   13.3430   34.4900 C.3    85  TYR85       0.1639
     37  C         11.7570   13.2920   34.4880 C.2    85  TYR85       0.2290
     38  O         12.3540   12.2780   34.1170 O.2    85  TYR85      -0.2864
     39  CB         9.6590   12.4610   33.3740 C.3    85  TYR85       0.0560
     40  CG         8.2810   11.9020   33.6450 C.ar   85  TYR85      -0.0198
     41  CD1        7.3670   12.5860   34.4570 C.ar   85  TYR85      -0.0009
     42  CD2        7.8750   10.7030   33.0610 C.ar   85  TYR85      -0.0009
     43  CE1        6.0910   12.0750   34.6990 C.ar   85  TYR85       0.0417
     44  CE2        6.6070   10.1890   33.2860 C.ar   85  TYR85       0.0417
     45  CZ         5.7200   10.8750   34.1130 C.ar   85  TYR85       0.1957
     46  OH         4.4580   10.3640   34.3370 O.3    85  TYR85      -0.2866
     47  N         -0.4260    2.4370   19.8950 N.3   135  GLU135     -0.1245
     48  CA        -0.9250    3.4850   20.7650 C.3   135  GLU135      0.1567
     49  C         -2.3860    3.2340   21.1590 C.2   135  GLU135      0.2260
     50  O         -2.7780    3.4770   22.3050 O.2   135  GLU135     -0.2867
     51  CB        -0.7700    4.8290   20.0680 C.3   135  GLU135      0.0388
     52  CG        -1.0930    6.0140   20.9310 C.3   135  GLU135      0.1160
     53  CD        -1.0020    7.3000   20.1630 C.2   135  GLU135      0.3649
     54  OE1       -0.0460    7.4510   19.3660 O.co2 135  GLU135     -0.2457
     55  OE2       -1.8890    8.1550   20.3540 O.co2 135  GLU135     -0.2457
     56  N          8.3050   18.7630   24.7340 N.3   162  PHE162     -0.1227
     57  CA         8.7170   18.9510   26.1160 C.3   162  PHE162      0.1736
     58  C         10.2300   18.8810   26.2750 C.2   162  PHE162      0.2595
     59  O         10.9270   18.3420   25.4130 O.2   162  PHE162     -0.2718
     60  CB         8.0370   17.9140   27.0170 C.3   162  PHE162      0.0547
     61  CG         6.5490   17.8490   26.8450 C.ar  162  PHE162     -0.0202
     62  CD1        5.7270   18.8370   27.3850 C.ar  162  PHE162     -0.0042
     63  CD2        5.9640   16.8000   26.1410 C.ar  162  PHE162     -0.0042
     64  CE1        4.3360   18.7780   27.2240 C.ar  162  PHE162     -0.0003
     65  CE2        4.5830   16.7280   25.9780 C.ar  162  PHE162     -0.0003
     66  CZ         3.7690   17.7180   26.5160 C.ar  162  PHE162     -0.0000
     67  N         10.7190   19.4330   27.3860 N.am  163  ILE163     -0.1980
     68  CA        12.1500   19.5020   27.7010 C.3   163  ILE163      0.1595
     69  C         12.8090   18.1110   27.7040 C.2   163  ILE163      0.2287
     70  O         12.3260   17.1960   28.3700 O.2   163  ILE163     -0.2864
     71  CB        12.3740   20.1440   29.0950 C.3   163  ILE163      0.0276
     72  CG1       11.7590   21.5530   29.1810 C.3   163  ILE163      0.0022
     73  CG2       13.8630   20.1020   29.4860 C.3   163  ILE163      0.0022
     74  CD1       12.6030   22.6710   28.5640 C.3   163  ILE163      0.0001
     75  N          8.0030    1.2510   18.3430 N.3   179  ASP179     -0.1225
     76  CA         8.3180    2.0450   19.5290 C.3   179  ASP179      0.1805
     77  C          8.0300    1.2270   20.7890 C.2   179  ASP179      0.2598
     78  O          7.4250    0.1520   20.7190 O.2   179  ASP179     -0.2718
     79  CB         7.4670    3.3230   19.5500 C.3   179  ASP179      0.1424
     80  CG         8.0270    4.4050   20.4740 C.2   179  ASP179      0.3668
     81  OD1        7.3420    5.4410   20.6220 O.co2 179  ASP179     -0.2456
     82  OD2        9.1290    4.2400   21.0520 O.co2 179  ASP179     -0.2456
     83  N          8.4850    1.7340   21.9320 N.am  180  ALA180     -0.1966
     84  CA         7.9470    1.3340   23.2160 C.3   180  ALA180      0.1728
     85  C          6.6040    2.0620   23.3950 C.2   180  ALA180      0.2616
     86  O          6.2640    2.9670   22.6300 O.2   180  ALA180     -0.2715
     87  CB         8.9070    1.6870   24.3230 C.3   180  ALA180      0.0334
     88  N          5.8370    1.6790   24.4000 N.am  181  CYS181     -0.1954
     89  CA         4.5380    2.2930   24.5850 C.3   181  CYS181      0.1843
     90  C          4.1610    2.2960   26.0680 C.2   181  CYS181      0.2625
     91  O          4.9980    2.0190   26.9280 O.2   181  CYS181     -0.2714
     92  CB         3.4970    1.5550   23.7170 C.3   181  CYS181      0.0997
     93  SG         1.9170    2.4070   23.4180 S.3   181  CYS181     -0.0797
     94  N          2.9150    2.6430   26.3550 N.am  182  GLN182     -0.1977
     95  CA         2.3650    2.5570   27.7010 C.3   182  GLN182      0.1601
     96  C          2.3700    1.1190   28.2130 C.2   182  GLN182      0.2287
     97  O          1.8930    0.1970   27.5310 O.2   182  GLN182     -0.2864
     98  CB         0.9350    3.0770   27.7090 C.3   182  GLN182      0.0394
     99  CG         0.8310    4.5640   27.7730 C.3   182  GLN182      0.0908
    100  CD        -0.5990    5.0150   27.9160 C.2   182  GLN182      0.2608
    101  OE1       -1.4060    4.8710   26.9910 O.2   182  GLN182     -0.2717
    102  NE2       -0.9270    5.5590   29.0720 N.am  182  GLN182     -0.0878
    103  N          7.0320    1.3520   30.4040 N.3   185  SER185     -0.1217
    104  CA         7.7000    2.2580   31.3440 C.3   185  SER185      0.1889
    105  C          8.3740    1.5350   32.4900 C.2   185  SER185      0.2288
    106  O          7.7890    0.6230   33.0710 O.2   185  SER185     -0.2866
    107  CB         6.6920    3.2390   31.9120 C.3   185  SER185      0.2089
    108  OG         6.3690    4.1870   30.9400 O.3   185  SER185     -0.2183
    109  N         12.7990    2.8420   30.2360 N.3   203  VAL203     -0.1231
    110  CA        11.6600    3.3670   29.4790 C.3   203  VAL203      0.1692
    111  C         10.9860    4.4480   30.3380 C.2   203  VAL203      0.2593
    112  O         10.5380    4.1820   31.4590 O.2   203  VAL203     -0.2718
    113  CB        10.6540    2.2540   29.1120 C.3   203  VAL203      0.0266
    114  CG1        9.4980    2.7940   28.2580 C.3   203  VAL203      0.0020
    115  CG2       11.3600    1.0790   28.4040 C.3   203  VAL203      0.0020
    116  N         10.9450    5.6740   29.8320 N.am  204  SER204     -0.1938
    117  CA        10.4510    6.7890   30.6470 C.3   204  SER204      0.2055
    118  C          9.1260    7.3700   30.1380 C.2   204  SER204      0.2643
    119  O          8.0960    7.2300   30.8000 O.2   204  SER204     -0.2714
    120  CB        11.5250    7.8700   30.8000 C.3   204  SER204      0.2130
    121  OG        11.0980    8.8980   31.6750 O.3   204  SER204     -0.2179
    122  N          9.1480    8.0050   28.9670 N.am  205  TRP205     -0.1959
    123  CA         7.9680    8.6790   28.4430 C.3   205  TRP205      0.1771
    124  C          8.0210    8.8820   26.9310 C.2   205  TRP205      0.2620
    125  O          9.0460    8.6030   26.2790 O.2   205  TRP205     -0.2715
    126  CB         7.7160   10.0240   29.1510 C.3   205  TRP205      0.0590
    127  CG         8.8010   11.0740   29.0080 C.ar  205  TRP205      0.0006
    128  CD1        9.9020   11.2190   29.8010 C.ar  205  TRP205      0.0946
    129  CD2        8.8660   12.1360   28.0390 C.ar  205  TRP205      0.0152
    130  NE1       10.6500   12.2910   29.3860 N.ar  205  TRP205     -0.2442
    131  CE2       10.0400   12.8730   28.3090 C.ar  205  TRP205      0.0810
    132  CE3        8.0510   12.5310   26.9650 C.ar  205  TRP205      0.0012
    133  CZ2       10.4200   13.9910   27.5500 C.ar  205  TRP205      0.0191
    134  CZ3        8.4310   13.6460   26.2050 C.ar  205  TRP205      0.0001
    135  CH2        9.6020   14.3570   26.5030 C.ar  205  TRP205      0.0015
    136  N          6.9000    9.3520   26.3860 N.am  206  GLY206     -0.1940
    137  CA         6.8050    9.6450   24.9680 C.3   206  GLY206      0.2014
    138  C          5.4560   10.2480   24.6190 C.2   206  GLY206      0.2639
    139  O          4.4680   10.0610   25.3400 O.2   206  GLY206     -0.2714
    140  N          5.4220   10.9690   23.5030 N.am  207  GLU207     -0.1963
    141  CA         4.1970   11.5970   23.0300 C.3   207  GLU207      0.1733
    142  C          3.4710   10.6450   22.0870 C.2   207  GLU207      0.2617
    143  O          3.8420   10.4780   20.9140 O.2   207  GLU207     -0.2715
    144  CB         4.5040   12.9410   22.3720 C.3   207  GLU207      0.0429
    145  CG         5.3350   13.8630   23.2700 C.3   207  GLU207      0.1163
    146  CD         5.6670   15.1750   22.6120 C.2   207  GLU207      0.3649
    147  OE1        4.7130   15.8530   22.1550 O.co2 207  GLU207     -0.2457
    148  OE2        6.8750   15.5240   22.5660 O.co2 207  GLU207     -0.2457
    149  N          2.4420   10.0020   22.6260 N.am  208  GLY208     -0.1940
    150  CA         1.7250    8.9780   21.9030 C.3   208  GLY208      0.2014
    151  C          2.4310    7.6560   22.1110 C.2   208  GLY208      0.2639
    152  O          3.5700    7.5930   22.5940 O.2   208  GLY208     -0.2714
    153  N          2.3080    6.3970   20.6920 N.am  209  CYS209     -0.1967
    154  CA         3.3670    5.4250   20.5400 C.3   209  CYS209      0.1712
    155  C          3.6080    5.2740   19.0650 C.2   209  CYS209      0.2296
    156  O          2.6590    5.1730   18.2820 O.2   209  CYS209     -0.2864
    157  CB         2.9810    4.0980   21.1910 C.3   209  CYS209      0.0983
    158  SG         2.4320    4.2870   22.9140 S.3   209  CYS209     -0.0798
    159  N          9.9120   10.3490   19.1360 N.3   215  TYR215     -0.1227
    160  CA        10.7520    9.2320   19.5430 C.3   215  TYR215      0.1736
    161  C         10.3530    8.7640   20.9420 C.2   215  TYR215      0.2596
    162  O          9.5170    9.3900   21.5970 O.2   215  TYR215     -0.2718
    163  CB        12.2350    9.6350   19.5000 C.3   215  TYR215      0.0548
    164  CG        12.6900   10.1220   18.1440 C.ar  215  TYR215     -0.0200
    165  CD1       12.9490    9.2190   17.1120 C.ar  215  TYR215     -0.0009
    166  CD2       12.8500   11.4860   17.8850 C.ar  215  TYR215     -0.0009
    167  CE1       13.3590    9.6560   15.8490 C.ar  215  TYR215      0.0417
    168  CE2       13.2600   11.9350   16.6160 C.ar  215  TYR215      0.0417
    169  CZ        13.5080   11.0090   15.6110 C.ar  215  TYR215      0.1957
    170  OH        13.9200   11.4280   14.3650 O.3   215  TYR215     -0.2866
    171  N         10.9350    7.6530   21.3840 N.am  216  GLY216     -0.1942
    172  CA        10.7770    7.2210   22.7610 C.3   216  GLY216      0.2014
    173  C         11.8200    7.9180   23.6080 C.2   216  GLY216      0.2639
    174  O         12.9650    8.0980   23.1680 O.2   216  GLY216     -0.2714
    175  N         11.4210    8.3360   24.8080 N.am  217  ILE217     -0.1963
    176  CA        12.3400    9.0080   25.7260 C.3   217  ILE217      0.1727
    177  C         12.7070    8.0640   26.8470 C.2   217  ILE217      0.2616
    178  O         11.8350    7.4630   27.4770 O.2   217  ILE217     -0.2715
    179  CB        11.7840   10.3430   26.3080 C.3   217  ILE217      0.0290
    180  CG1       11.0280   11.1750   25.2380 C.3   217  ILE217      0.0022
    181  CG2       12.9110   11.1490   26.9830 C.3   217  ILE217      0.0023
    182  CD1       11.8580   11.5990   24.0020 C.3   217  ILE217      0.0001
    183  N         14.0140    7.9550   27.0810 N.am  218  TYR218     -0.1974
    184  CA        14.5810    7.0180   28.0260 C.3   218  TYR218      0.1639
    185  C         15.3670    7.7690   29.0750 C.2   218  TYR218      0.2290
    186  O         16.0110    8.7710   28.7740 O.2   218  TYR218     -0.2864
    187  CB        15.5090    6.0340   27.3080 C.3   218  TYR218      0.0560
    188  CG        14.7950    5.1620   26.2970 C.ar  218  TYR218     -0.0198
    189  CD1       14.4940    5.6380   25.0070 C.ar  218  TYR218     -0.0009
    190  CD2       14.4150    3.8700   26.6250 C.ar  218  TYR218     -0.0009
    191  CE1       13.8200    4.8390   24.0890 C.ar  218  TYR218      0.0417
    192  CE2       13.7490    3.0590   25.7140 C.ar  218  TYR218      0.0417
    193  CZ        13.4630    3.5420   24.4510 C.ar  218  TYR218      0.1957
    194  OH        12.8140    2.7240   23.5700 O.3   218  TYR218     -0.2866
@<TRIPOS>BOND
     1   170   169    1
     2   169   167   ar
     3   169   168   ar
     4   167   165   ar
     5   168   166   ar
     6   165   164   ar
     7   166   164   ar
     8   164   163    1
     9   156   155    2
    10    75    76    1
    11   155   154    1
    12   159   160    1
    13    54    53   ar
    14   163   160    1
    15    76    79    1
    16    76    77    1
    17   160   161    1
    18    79    80    1
    19    47    48    1
    20    51    48    1
    21    51    52    1
    22    53    55   ar
    23    53    52    1
    24    80    81   ar
    25    80    82   ar
    26   154   153    1
    27   154   157    1
    28   153   151   am
    29    78    77    2
    30    48    49    1
    31    77    83   am
    32   143   142    2
    33   161   171   am
    34   161   162    2
    35    49    50    2
    36   157   158    1
    37   171   172    1
    38   150   151    1
    39   150   149    1
    40    83    84    1
    41   142   149   am
    42   142   141    1
    43   151   152    2
    44   147   146   ar
    45   144   141    1
    46   144   145    1
    47   148   146   ar
    48   146   145    1
    49    86    85    2
    50   172   173    1
    51   158    93    1
    52   141   140    1
    53   174   173    2
    54    84    85    1
    55    84    87    1
    56    85    88   am
    57    93    92    1
    58   140   138   am
    59   194   193    1
    60   173   175   am
    61    92    89    1
    62   182   180    1
    63   191   193   ar
    64   191   189   ar
    65    88    89    1
    66   193   192   ar
    67    89    90    1
    68   138   137    1
    69   138   139    2
    70    56    57    1
    71   175   176    1
    72   137   136    1
    73   189   188   ar
    74   180   179    1
    75    59    58    2
    76   192   190   ar
    77   176   179    1
    78   176   177    1
    79    65    63   ar
    80    65    66   ar
    81    90    94   am
    82    90    91    2
    83    57    58    1
    84    57    60    1
    85    63    61   ar
    86   134   135   ar
    87   134   132   ar
    88    58    67   am
    89   125   124    2
    90   188   190   ar
    91   188   187    1
    92   179   181    1
    93    94    95    1
    94   136   124   am
    95   135   133   ar
    96    66    64   ar
    97    61    60    1
    98    61    62   ar
    99   177   183   am
   100   177   178    2
   101   124   123    1
   102   132   129   ar
   103   101   100    2
   104   183   184    1
   105    64    62   ar
   106   187   184    1
   107    67    68    1
   108    97    96    2
   109   133   131   ar
   110    95    98    1
   111    95    96    1
   112    68    69    1
   113    68    71    1
   114    69    70    2
   115    98    99    1
   116    99   100    1
   117   100   102   am
   118   184   185    1
   119   129   131   ar
   120   129   127   ar
   121   114   113    1
   122   131   130   ar
   123   115   113    1
   124   123   122    1
   125   123   126    1
   126    74    72    1
   127   186   185    2
   128   122   118   am
   129   127   126    1
   130   127   128   ar
   131    71    72    1
   132    71    73    1
   133   113   110    1
   134   130   128   ar
   135   110   109    1
   136   110   111    1
   137   116   111   am
   138   116   117    1
   139   118   117    1
   140   118   119    2
   141   111   112    2
   142   103   104    1
   143   117   120    1
   144   120   121    1
   145   108   107    1
   146   104   107    1
   147   104   105    1
   148    31    30    2
   149   105   106    2
   150    42    44   ar
   151    42    40   ar
   152    44    45   ar
   153    30    29    1
   154    30    35   am
   155    22    21    2
   156    39    40    1
   157    39    36    1
   158    29    32    1
   159    29    28    1
   160    40    41   ar
   161    34    32    1
   162    32    33    1
   163    45    46    1
   164    45    43   ar
   165    38    37    2
   166    35    36    1
   167    41    43   ar
   168    37    36    1
   169    21    28   am
   170    21    20    1
   171     9     7   am
   172     8     7    2
   173    20    23    1
   174    20    19    1
   175    23    24    1
   176    13    12    2
   177     7     6    1
   178    19    12   am
   179    12    11    1
   180    24    25    1
   181     6     5    1
   182     5     2    1
   183    11    10    1
   184    11    14    1
   185    25    27   ar
   186    25    26   ar
   187    14    15    1
   188     4     3    2
   189     2     3    1
   190     2     1    1
   191    15    16    1
   192    16    17    1
   193    17    18    1
