@<TRIPOS>MOLECULE
tmp/3hptB01.pdb
 103 98 0 0 0
SMALL
GASTEIGER

@<TRIPOS>ATOM
      1  N         14.7710    8.0500   43.3010 N.3    77  HIS77      -0.1241
      2  CA        15.7310    9.1490   43.2230 C.3    77  HIS77       0.1621
      3  C         15.0820   10.4040   43.8010 C.2    77  HIS77       0.2264
      4  O         14.0500   10.8390   43.3140 O.2    77  HIS77      -0.2867
      5  CB        16.2200    9.4010   41.7980 C.3    77  HIS77       0.0745
      6  CG        17.5390   10.1020   41.7490 C.ar   77  HIS77       0.0817
      7  ND1       17.7350   11.3550   42.2940 N.ar   77  HIS77      -0.2268
      8  CD2       18.7370    9.7180   41.2530 C.ar   77  HIS77       0.1154
      9  CE1       18.9960   11.7110   42.1320 C.ar   77  HIS77       0.1986
     10  NE2       19.6260   10.7380   41.5020 N.ar   77  HIS77      -0.2212
     11  N         15.6430   13.3620   43.5400 N.3    79  ARG79      -0.1245
     12  CA        15.5030   14.4610   42.6000 C.3    79  ARG79       0.1563
     13  C         14.4550   14.2390   41.5000 C.2    79  ARG79       0.2260
     14  O         14.3010   15.0930   40.6290 O.2    79  ARG79      -0.2867
     15  CB        16.8580   14.8410   42.0250 C.3    79  ARG79       0.0307
     16  CG        17.7630   15.4670   43.0730 C.3    79  ARG79       0.0489
     17  CD        19.1240   15.8530   42.5310 C.3    79  ARG79       0.2205
     18  NE        19.0200   17.0380   41.6890 N.pl3  79  ARG79      -0.0865
     19  CZ        20.0360   17.6290   41.0630 C.cat  79  ARG79       0.5346
     20  NH1       19.8020   18.7060   40.3110 N.pl3  79  ARG79       0.1354
     21  NH2       21.2760   17.1560   41.1770 N.pl3  79  ARG79       0.1354
     22  N         15.2490   12.8350   36.3110 N.3    87  PHE87      -0.1241
     23  CA        15.6160   11.8740   37.3630 C.3    87  PHE87       0.1605
     24  C         14.5550   10.7640   37.5120 C.2    87  PHE87       0.2264
     25  O         14.1830   10.3830   38.6340 O.2    87  PHE87      -0.2867
     26  CB        15.8960   12.5960   38.7030 C.3    87  PHE87       0.0534
     27  CG        17.1310   13.4690   38.6940 C.ar   87  PHE87      -0.0203
     28  CD1       17.0800   14.7800   38.2230 C.ar   87  PHE87      -0.0042
     29  CD2       18.3370   12.9890   39.1840 C.ar   87  PHE87      -0.0042
     30  CE1       18.2120   15.5810   38.1990 C.ar   87  PHE87      -0.0003
     31  CE2       19.4850   13.7970   39.1830 C.ar   87  PHE87      -0.0003
     32  CZ        19.4150   15.0900   38.6850 C.ar   87  PHE87      -0.0000
     33  N         30.7640    3.9040   33.6780 N.3   112  ARG112     -0.1245
     34  CA        30.2250    5.1520   33.1020 C.3   112  ARG112      0.1563
     35  C         30.9290    5.6370   31.8300 C.2   112  ARG112      0.2260
     36  O         30.2970    5.7450   30.7740 O.2   112  ARG112     -0.2867
     37  CB        30.1720    6.2860   34.1410 C.3   112  ARG112      0.0307
     38  CG        29.5120    7.5600   33.5990 C.3   112  ARG112      0.0489
     39  CD        29.7640    8.8020   34.4670 C.3   112  ARG112      0.2205
     40  NE        31.1710    9.1920   34.5070 N.pl3 112  ARG112     -0.0865
     41  CZ        31.9020    9.2980   35.6200 C.cat 112  ARG112      0.5346
     42  NH1       31.3720    9.0490   36.8190 N.pl3 112  ARG112      0.1354
     43  NH2       33.1770    9.6620   35.5370 N.pl3 112  ARG112      0.1354
     44  N         19.5780   16.5340   30.1530 N.3   166  GLN166     -0.1231
     45  CA        20.7770   15.7290   29.9450 C.3   166  GLN166      0.1698
     46  C         20.6970   14.3340   30.5930 C.2   166  GLN166      0.2592
     47  O         21.6060   13.5260   30.4220 O.2   166  GLN166     -0.2718
     48  CB        22.0230   16.4730   30.4510 C.3   166  GLN166      0.0381
     49  CG        21.9610   16.8950   31.9210 C.3   166  GLN166      0.0905
     50  CD        23.2660   17.5040   32.3930 C.2   166  GLN166      0.2608
     51  OE1       23.4640   18.7380   32.3320 O.2   166  GLN166     -0.2717
     52  NE2       24.1850   16.6450   32.8420 N.am  166  GLN166     -0.0878
     53  N         19.6220   14.0680   31.3390 N.am  167  ASN167     -0.1974
     54  CA        19.4110   12.7690   31.9820 C.3   167  ASN167      0.1688
     55  C         18.4130   11.9090   31.1910 C.2   167  ASN167      0.2292
     56  O         17.8350   10.9400   31.7080 O.2   167  ASN167     -0.2864
     57  CB        18.9350   12.9620   33.4280 C.3   167  ASN167      0.1181
     58  CG        19.9340   13.6950   34.2830 C.2   167  ASN167      0.2629
     59  OD1       21.1440   13.5490   34.1180 O.2   167  ASN167     -0.2716
     60  ND2       19.4320   14.5020   35.2100 N.am  167  ASN167     -0.0877
     61  N         23.6940    6.1100   32.2040 N.3   222  THR222     -0.1203
     62  CA        25.0650    6.5830   32.4760 C.3   222  THR222      0.1994
     63  C         25.1550    7.7380   33.4850 C.2   222  THR222      0.2618
     64  O         26.0920    7.7930   34.2770 O.2   222  THR222     -0.2717
     65  CB        25.8870    6.9760   31.1960 C.3   222  THR222      0.1784
     66  OG1       25.2110    7.9940   30.4520 O.3   222  THR222     -0.2211
     67  CG2       26.1360    5.7840   30.3010 C.3   222  THR222      0.0376
     68  N         24.1870    8.6500   33.4590 N.am  223  ALA223     -0.1965
     69  CA        24.1280    9.7520   34.4370 C.3   223  ALA223      0.1728
     70  C         23.9550    9.2160   35.8620 C.2   223  ALA223      0.2616
     71  O         24.2770    9.9040   36.8320 O.2   223  ALA223     -0.2715
     72  CB        22.9750   10.7000   34.0940 C.3   223  ALA223      0.0334
     73  N         23.4490    7.9850   35.9730 N.am  224  PHE224     -0.1974
     74  CA        22.9840    7.4420   37.2480 C.3   224  PHE224      0.1639
     75  C         23.6950    6.2100   37.7520 C.2   224  PHE224      0.2290
     76  O         23.2840    5.6530   38.7670 O.2   224  PHE224     -0.2864
     77  CB        21.4720    7.1870   37.1970 C.3   224  PHE224      0.0560
     78  CG        20.6920    8.4290   36.9720 C.ar  224  PHE224     -0.0200
     79  CD1       20.7080    9.4500   37.9240 C.ar  224  PHE224     -0.0042
     80  CD2       19.9810    8.6150   35.8000 C.ar  224  PHE224     -0.0042
     81  CE1       20.0250   10.6300   37.7130 C.ar  224  PHE224     -0.0003
     82  CE2       19.2910    9.7930   35.5880 C.ar  224  PHE224     -0.0003
     83  CZ        19.3120   10.8020   36.5530 C.ar  224  PHE224     -0.0000
     84  N         26.6070    5.9850   39.2230 N.3   226  LYS226     -0.1245
     85  CA        27.2040    6.2580   40.5300 C.3   226  LYS226      0.1561
     86  C         26.1280    6.1930   41.5990 C.2   226  LYS226      0.2260
     87  O         26.3420    5.6210   42.6750 O.2   226  LYS226     -0.2867
     88  CB        27.8890    7.6280   40.5170 C.3   226  LYS226      0.0271
     89  CG        28.7260    7.9840   41.7420 C.3   226  LYS226      0.0035
     90  CD        29.6390    9.2050   41.4060 C.3   226  LYS226      0.0206
     91  CE        30.5730    9.5840   42.5500 C.3   226  LYS226      0.1093
     92  NZ        30.2220   10.8840   43.2320 N.3   226  LYS226     -0.1314
     93  N         25.7290    3.3290   44.6980 N.3   230  ARG230     -0.1245
     94  CA        25.4640    3.7630   46.0740 C.3   230  ARG230      0.1563
     95  C         24.2090    3.1430   46.6720 C.2   230  ARG230      0.2260
     96  O         24.2040    2.7730   47.8400 O.2   230  ARG230     -0.2867
     97  CB        25.3290    5.2850   46.1500 C.3   230  ARG230      0.0307
     98  CG        26.6330    6.0260   46.2900 C.3   230  ARG230      0.0489
     99  CD        26.4010    7.4960   46.6740 C.3   230  ARG230      0.2205
    100  NE        25.6950    8.2260   45.6210 N.pl3 230  ARG230     -0.0865
    101  CZ        26.2870    8.9000   44.6360 C.cat 230  ARG230      0.5346
    102  NH1       27.6180    8.9640   44.5630 N.pl3 230  ARG230      0.1354
    103  NH2       25.5420    9.5250   43.7270 N.pl3 230  ARG230      0.1354
@<TRIPOS>BOND
     1    45    44    1
     2    45    48    1
     3    45    46    1
     4    67    65    1
     5    47    46    2
     6    48    49    1
     7    66    65    1
     8    46    53   am
     9    36    35    2
    10    55    56    2
    11    55    54    1
    12    65    62    1
    13    53    54    1
    14    35    34    1
    15    49    50    1
    16    54    57    1
    17    61    62    1
    18    51    50    2
    19    50    52   am
    20    62    63    1
    21    34    33    1
    22    34    37    1
    23    57    58    1
    24    68    63   am
    25    68    69    1
    26    63    64    2
    27    38    37    1
    28    38    39    1
    29    72    69    1
    30    59    58    2
    31    58    60   am
    32    69    70    1
    33    39    40    1
    34    40    41    2
    35    43    41    1
    36    82    80   ar
    37    82    83   ar
    38    41    42    1
    39    80    78   ar
    40    70    73   am
    41    70    71    2
    42    73    74    1
    43    22    23    1
    44    83    81   ar
    45    78    77    1
    46    78    79   ar
    47    77    74    1
    48    74    75    1
    49    23    24    1
    50    23    26    1
    51    24    25    2
    52    81    79   ar
    53    75    76    2
    54    30    28   ar
    55    30    32   ar
    56    28    27   ar
    57    32    31   ar
    58    27    26    1
    59    27    29   ar
    60    31    29   ar
    61    84    85    1
    62    20    19    1
    63    88    85    1
    64    88    89    1
    65    85    86    1
    66    14    13    2
    67    19    21    1
    68    19    18    2
    69     8    10   ar
    70     8     6   ar
    71    90    89    1
    72    90    91    1
    73    13    12    1
    74    10     9   ar
    75    86    87    2
    76    18    17    1
    77     6     5    1
    78     6     7   ar
    79     5     2    1
    80    15    12    1
    81    15    16    1
    82     9     7   ar
    83    17    16    1
    84    91    92    1
    85    12    11    1
    86     2     1    1
    87     2     3    1
    88     4     3    2
    89   103   101    1
    90   102   101    1
    91   101   100    2
    92    93    94    1
    93   100    99    1
    94    94    97    1
    95    94    95    1
    96    97    98    1
    97    98    99    1
    98    95    96    2
