@<TRIPOS>MOLECULE
tmp/3hpyA00.pdb
 124 121 0 0 0
SMALL
GASTEIGER

@<TRIPOS>ATOM
      1  N        -39.7150  -65.0300    1.2890 N.3   153  HIS153     -0.1241
      2  CA       -40.7560  -65.1370    0.2660 C.3   153  HIS153      0.1621
      3  C        -40.1300  -65.3980   -1.0940 C.2   153  HIS153      0.2264
      4  O        -38.9480  -65.7190   -1.1930 O.2   153  HIS153     -0.2867
      5  CB       -41.5790  -63.8400    0.1760 C.3   153  HIS153      0.0745
      6  CG       -40.7800  -62.6390   -0.2370 C.ar  153  HIS153      0.0817
      7  ND1      -40.1490  -61.8180    0.6740 N.ar  153  HIS153     -0.2268
      8  CD2      -40.4880  -62.1340   -1.4600 C.ar  153  HIS153      0.1154
      9  CE1      -39.5050  -60.8610    0.0330 C.ar  153  HIS153      0.1986
     10  NE2      -39.6930  -61.0310   -1.2640 N.ar  153  HIS153     -0.2212
     11  N        -40.9040  -64.2430   -5.5850 N.3   155  LEU155     -0.1245
     12  CA       -41.6630  -63.4110   -6.5020 C.3   155  LEU155      0.1561
     13  C        -41.7580  -64.2160   -7.7790 C.2   155  LEU155      0.2260
     14  O        -40.7590  -64.4530   -8.4580 O.2   155  LEU155     -0.2867
     15  CB       -40.9490  -62.0840   -6.7750 C.3   155  LEU155      0.0270
     16  CG       -41.7720  -60.8960   -7.2930 C.3   155  LEU155      0.0019
     17  CD1      -40.8260  -59.9540   -8.0290 C.3   155  LEU155      0.0001
     18  CD2      -42.8820  -61.3180   -8.2280 C.3   155  LEU155      0.0001
     19  N        -48.7950  -58.5680   -3.8450 N.3   192  TRP192     -0.1241
     20  CA       -47.9550  -58.9620   -2.7250 C.3   192  TRP192      0.1605
     21  C        -48.9030  -59.4390   -1.6320 C.2   192  TRP192      0.2264
     22  O        -49.6170  -58.6460   -1.0200 O.2   192  TRP192     -0.2867
     23  CB       -47.1360  -57.7560   -2.2580 C.3   192  TRP192      0.0550
     24  CG       -46.0120  -57.4640   -3.1820 C.ar  192  TRP192      0.0003
     25  CD1      -44.6950  -57.8040   -3.0050 C.ar  192  TRP192      0.0946
     26  CD2      -46.1030  -56.8540   -4.4770 C.ar  192  TRP192      0.0152
     27  NE1      -43.9710  -57.4470   -4.1170 N.ar  192  TRP192     -0.2442
     28  CE2      -44.8090  -56.8730   -5.0350 C.ar  192  TRP192      0.0810
     29  CE3      -47.1540  -56.3110   -5.2260 C.ar  192  TRP192      0.0012
     30  CZ2      -44.5400  -56.3470   -6.3060 C.ar  192  TRP192      0.0191
     31  CZ3      -46.8780  -55.7800   -6.4960 C.ar  192  TRP192      0.0001
     32  CH2      -45.5720  -55.8120   -7.0220 C.ar  192  TRP192      0.0015
     33  N        -45.1410  -59.4140    3.0310 N.3   200  HIS200     -0.1241
     34  CA       -45.5030  -60.4300    2.0490 C.3   200  HIS200      0.1621
     35  C        -44.8110  -61.7620    2.2540 C.2   200  HIS200      0.2264
     36  O        -43.6420  -61.8300    2.6380 O.2   200  HIS200     -0.2867
     37  CB       -45.2790  -59.9500    0.6060 C.3   200  HIS200      0.0745
     38  CG       -43.8640  -59.5800    0.2830 C.ar  200  HIS200      0.0817
     39  ND1      -43.1340  -58.7000    1.0510 N.ar  200  HIS200     -0.2268
     40  CD2      -43.0840  -59.8840   -0.7840 C.ar  200  HIS200      0.1154
     41  CE1      -41.9700  -58.4720    0.4680 C.ar  200  HIS200      0.1986
     42  NE2      -41.9160  -59.1750   -0.6480 N.ar  200  HIS200     -0.2212
     43  N        -45.3650  -63.2330   -3.7240 N.3   203  ALA203     -0.1245
     44  CA       -45.9150  -62.1910   -4.5770 C.3   203  ALA203      0.1562
     45  C        -45.9240  -62.6740   -6.0210 C.2   203  ALA203      0.2260
     46  O        -45.2000  -63.6130   -6.3640 O.2   203  ALA203     -0.2867
     47  CB       -45.0950  -60.9000   -4.4490 C.3   203  ALA203      0.0290
     48  N        -37.3140  -64.4020   -8.2820 N.3   215  HIS215     -0.1241
     49  CA       -36.3310  -64.6090   -7.2260 C.3   215  HIS215      0.1621
     50  C        -36.9230  -65.1250   -5.9460 C.2   215  HIS215      0.2264
     51  O        -38.1270  -65.0030   -5.7090 O.2   215  HIS215     -0.2867
     52  CB       -35.6020  -63.3090   -6.8740 C.3   215  HIS215      0.0745
     53  CG       -36.4430  -62.3390   -6.1050 C.ar  215  HIS215      0.0817
     54  ND1      -37.3060  -61.4590   -6.7180 N.ar  215  HIS215     -0.2268
     55  CD2      -36.6020  -62.1540   -4.7720 C.ar  215  HIS215      0.1154
     56  CE1      -37.9630  -60.7750   -5.7990 C.ar  215  HIS215      0.1986
     57  NE2      -37.5550  -61.1770   -4.6080 N.ar  215  HIS215     -0.2212
     58  N        -37.0230  -50.4090   -1.6530 N.3   247  HIS247     -0.1241
     59  CA       -38.0330  -50.8770   -2.5900 C.3   247  HIS247      0.1621
     60  C        -39.1220  -49.8490   -2.8340 C.2   247  HIS247      0.2264
     61  O        -39.2930  -49.3580   -3.9500 O.2   247  HIS247     -0.2867
     62  CB       -38.6870  -52.1660   -2.0870 C.3   247  HIS247      0.0745
     63  CG       -38.1470  -53.4030   -2.7300 C.ar  247  HIS247      0.0817
     64  ND1      -38.1320  -53.5810   -4.0960 N.ar  247  HIS247     -0.2268
     65  CD2      -37.6060  -54.5210   -2.1960 C.ar  247  HIS247      0.1154
     66  CE1      -37.6030  -54.7590   -4.3760 C.ar  247  HIS247      0.1986
     67  NE2      -37.2760  -55.3490   -3.2410 N.ar  247  HIS247     -0.2212
     68  N        -42.3870  -50.2320   -2.9170 N.3   249  VAL249     -0.1231
     69  CA       -43.5940  -51.0480   -3.0370 C.3   249  VAL249      0.1692
     70  C        -43.6730  -52.0520   -1.8960 C.2   249  VAL249      0.2592
     71  O        -44.4360  -53.0150   -1.9670 O.2   249  VAL249     -0.2718
     72  CB       -43.6320  -51.8470   -4.3600 C.3   249  VAL249      0.0266
     73  CG1      -43.7880  -50.9160   -5.5410 C.3   249  VAL249      0.0020
     74  CG2      -42.3690  -52.6330   -4.5070 C.3   249  VAL249      0.0020
     75  N        -42.8810  -51.8340   -0.8530 N.am  250  THR250     -0.1953
     76  CA       -42.8870  -52.7230    0.2930 C.3   250  THR250      0.1897
     77  C        -42.1420  -52.0840    1.4550 C.2   250  THR250      0.2313
     78  O        -42.1100  -52.6200    2.5610 O.2   250  THR250     -0.2863
     79  CB       -42.2670  -54.0870   -0.0720 C.3   250  THR250      0.1794
     80  OG1      -42.8920  -55.1090    0.7100 O.3   250  THR250     -0.2208
     81  CG2      -40.7640  -54.0930    0.1850 C.3   250  THR250      0.0378
     82  N        -30.5760  -57.2440   -5.1610 N.3   256  TYR256     -0.1241
     83  CA       -30.9420  -58.3520   -6.0300 C.3   256  TYR256      0.1605
     84  C        -29.6330  -58.8650   -6.5910 C.2   256  TYR256      0.2264
     85  O        -28.8710  -58.1010   -7.1590 O.2   256  TYR256     -0.2867
     86  CB       -31.8180  -57.9070   -7.2020 C.3   256  TYR256      0.0534
     87  CG       -33.2850  -57.7830   -6.8730 C.ar  256  TYR256     -0.0201
     88  CD1      -33.7610  -58.0940   -5.6050 C.ar  256  TYR256     -0.0009
     89  CD2      -34.1970  -57.3630   -7.8320 C.ar  256  TYR256     -0.0009
     90  CE1      -35.1000  -57.9910   -5.2970 C.ar  256  TYR256      0.0417
     91  CE2      -35.5550  -57.2570   -7.5370 C.ar  256  TYR256      0.0417
     92  CZ       -35.9960  -57.5710   -6.2630 C.ar  256  TYR256      0.1957
     93  OH       -37.3310  -57.4450   -5.9390 O.3   256  TYR256     -0.2866
     94  N        -32.7040  -62.4600   -3.3090 N.3   266  GLU266     -0.1245
     95  CA       -32.7370  -61.1600   -2.6500 C.3   266  GLU266      0.1567
     96  C        -32.3410  -61.2720   -1.1820 C.2   266  GLU266      0.2260
     97  O        -32.6740  -62.2590   -0.5100 O.2   266  GLU266     -0.2867
     98  CB       -34.1570  -60.5660   -2.7490 C.3   266  GLU266      0.0388
     99  CG       -34.3500  -59.2300   -2.0190 C.3   266  GLU266      0.1160
    100  CD       -35.8210  -58.8180   -1.9030 C.2   266  GLU266      0.3649
    101  OE1      -36.6390  -59.6500   -1.4880 O.co2 266  GLU266     -0.2457
    102  OE2      -36.1620  -57.6590   -2.2110 O.co2 266  GLU266     -0.2457
    103  N        -32.6710  -58.8320    2.0270 N.3   268  PHE268     -0.1241
    104  CA       -33.2570  -57.5610    2.4240 C.3   268  PHE268      0.1605
    105  C        -33.7200  -57.5840    3.8800 C.2   268  PHE268      0.2264
    106  O        -33.6630  -58.6130    4.5470 O.2   268  PHE268     -0.2867
    107  CB       -34.4760  -57.2570    1.5510 C.3   268  PHE268      0.0534
    108  CG       -35.7330  -57.8950    2.0560 C.ar  268  PHE268     -0.0203
    109  CD1      -35.8460  -59.2760    2.1160 C.ar  268  PHE268     -0.0042
    110  CD2      -36.7720  -57.1140    2.5550 C.ar  268  PHE268     -0.0042
    111  CE1      -36.9770  -59.8720    2.6740 C.ar  268  PHE268     -0.0003
    112  CE2      -37.9060  -57.6990    3.1130 C.ar  268  PHE268     -0.0003
    113  CZ       -38.0080  -59.0740    3.1740 C.ar  268  PHE268     -0.0000
    114  N        -44.5670  -47.3930  -10.8950 N.3   288  PHE288     -0.1241
    115  CA       -43.9410  -48.6690  -10.5760 C.3   288  PHE288      0.1605
    116  C        -42.6260  -48.8310  -11.3360 C.2   288  PHE288      0.2264
    117  O        -42.5280  -49.7690  -12.1630 O.2   288  PHE288     -0.2867
    118  CB       -44.9120  -49.8070  -10.9120 C.3   288  PHE288      0.0534
    119  CG       -44.4430  -51.1660  -10.4700 C.ar  288  PHE288     -0.0203
    120  CD1      -44.0150  -51.3840   -9.1620 C.ar  288  PHE288     -0.0042
    121  CD2      -44.4510  -52.2370  -11.3590 C.ar  288  PHE288     -0.0042
    122  CE1      -43.6010  -52.6530   -8.7460 C.ar  288  PHE288     -0.0003
    123  CE2      -44.0410  -53.5070  -10.9560 C.ar  288  PHE288     -0.0003
    124  CZ       -43.6150  -53.7150   -9.6460 C.ar  288  PHE288     -0.0000
@<TRIPOS>BOND
     1   117   116    2
     2   121   123   ar
     3   121   119   ar
     4   116   115    1
     5   123   124   ar
     6   118   115    1
     7   118   119    1
     8   114   115    1
     9   119   120   ar
    10   124   122   ar
    11   120   122   ar
    12    14    13    2
    13    48    49    1
    14    18    16    1
    15    17    16    1
    16    89    91   ar
    17    89    87   ar
    18    13    12    1
    19    91    92   ar
    20    16    15    1
    21    49    52    1
    22    49    50    1
    23    86    87    1
    24    86    83    1
    25    85    84    2
    26    32    31   ar
    27    32    30   ar
    28    52    53    1
    29    87    88   ar
    30    15    12    1
    31    54    53   ar
    32    54    56   ar
    33    84    83    1
    34    12    11    1
    35    31    29   ar
    36    46    45    2
    37    30    28   ar
    38    92    93    1
    39    92    90   ar
    40    53    55   ar
    41    83    82    1
    42    45    44    1
    43    50    51    2
    44    56    57   ar
    45    88    90   ar
    46    73    72    1
    47    29    26   ar
    48    28    26   ar
    49    28    27   ar
    50    55    57   ar
    51    44    47    1
    52    44    43    1
    53    74    72    1
    54    26    24   ar
    55    66    64   ar
    56    66    67   ar
    57    72    69    1
    58    27    25   ar
    59    64    63   ar
    60    61    60    2
    61    19    20    1
    62    94    95    1
    63    67    65   ar
    64    24    25   ar
    65    24    23    1
    66    69    68    1
    67    69    70    1
    68    60    59    1
    69    98    95    1
    70    98    99    1
    71    63    65   ar
    72    63    62    1
    73    20    23    1
    74    20    21    1
    75    95    96    1
    76    59    62    1
    77    59    58    1
    78   102   100   ar
    79    99   100    1
    80    71    70    2
    81   100   101   ar
    82    70    75   am
    83    21    22    2
    84     8    10   ar
    85     8     6   ar
    86    10     9   ar
    87     4     3    2
    88    96    97    2
    89     3     2    1
    90    75    76    1
    91    40    42   ar
    92    40    38   ar
    93    42    41   ar
    94     6     5    1
    95     6     7   ar
    96    79    81    1
    97    79    76    1
    98    79    80    1
    99     9     7   ar
   100     5     2    1
   101     2     1    1
   102    38    37    1
   103    38    39   ar
   104    76    77    1
   105    41    39   ar
   106    37    34    1
   107    77    78    2
   108   107   108    1
   109   107   104    1
   110   103   104    1
   111    34    35    1
   112    34    33    1
   113   108   109   ar
   114   108   110   ar
   115   109   111   ar
   116    35    36    2
   117   104   105    1
   118   110   112   ar
   119   111   113   ar
   120   112   113   ar
   121   105   106    2
