@<TRIPOS>MOLECULE
tmp/3hq0C00.pdb
 149 147 0 0 0
SMALL
GASTEIGER

@<TRIPOS>ATOM
      1  N         -7.0380  -43.6460   21.9930 N.3   153  HIS153     -0.1241
      2  CA        -6.4730  -42.8080   23.0430 C.3   153  HIS153      0.1621
      3  C         -6.4520  -43.5810   24.3520 C.2   153  HIS153      0.2264
      4  O         -6.6390  -44.8010   24.3820 O.2   153  HIS153     -0.2867
      5  CB        -7.3370  -41.5660   23.2500 C.3   153  HIS153      0.0745
      6  CG        -8.7330  -41.8850   23.6910 C.ar  153  HIS153      0.0817
      7  ND1       -9.7320  -42.2250   22.8060 N.ar  153  HIS153     -0.2268
      8  CD2       -9.2770  -41.9860   24.9270 C.ar  153  HIS153      0.1154
      9  CE1      -10.8320  -42.5180   23.4770 C.ar  153  HIS153      0.1986
     10  NE2      -10.5810  -42.3820   24.7650 N.ar  153  HIS153     -0.2212
     11  N         -7.0960  -42.6470   28.8740 N.3   155  LEU155     -0.1245
     12  CA        -7.4080  -41.6460   29.8810 C.3   155  LEU155      0.1561
     13  C         -6.5690  -42.0090   31.0970 C.2   155  LEU155      0.2260
     14  O         -6.6160  -43.1470   31.5770 O.2   155  LEU155     -0.2867
     15  CB        -8.9060  -41.6570   30.2190 C.3   155  LEU155      0.0270
     16  CG        -9.3880  -40.5610   31.1750 C.3   155  LEU155      0.0019
     17  CD1      -10.9090  -40.5000   31.1750 C.3   155  LEU155      0.0001
     18  CD2       -8.8680  -40.8270   32.5630 C.3   155  LEU155      0.0001
     19  N         -5.0980  -41.1960   35.1250 N.3   157  TYR157     -0.1241
     20  CA        -5.4280  -40.6380   36.4310 C.3   157  TYR157      0.1605
     21  C         -4.1380  -40.2750   37.1460 C.2   157  TYR157      0.2264
     22  O         -3.2840  -41.1310   37.3570 O.2   157  TYR157     -0.2867
     23  CB        -6.2000  -41.6540   37.2690 C.3   157  TYR157      0.0534
     24  CG        -7.6960  -41.4640   37.2440 C.ar  157  TYR157     -0.0201
     25  CD1       -8.3520  -41.0680   36.0760 C.ar  157  TYR157     -0.0009
     26  CD2       -8.4670  -41.7310   38.3750 C.ar  157  TYR157     -0.0009
     27  CE1       -9.7390  -40.9470   36.0360 C.ar  157  TYR157      0.0417
     28  CE2       -9.8510  -41.6150   38.3460 C.ar  157  TYR157      0.0417
     29  CZ       -10.4820  -41.2240   37.1730 C.ar  157  TYR157      0.1957
     30  OH       -11.8530  -41.1270   37.1360 O.3   157  TYR157     -0.2866
     31  N         -9.5120  -33.1740   27.8200 N.3   192  TRP192     -0.1241
     32  CA        -9.4150  -34.0460   26.6520 C.3   192  TRP192      0.1605
     33  C         -8.5470  -33.3280   25.6300 C.2   192  TRP192      0.2264
     34  O         -8.9170  -32.2680   25.1300 O.2   192  TRP192     -0.2867
     35  CB       -10.8140  -34.3240   26.0920 C.3   192  TRP192      0.0550
     36  CG       -11.5530  -35.3200   26.9290 C.ar  192  TRP192      0.0003
     37  CD1      -11.6930  -36.6540   26.6790 C.ar  192  TRP192      0.0946
     38  CD2      -12.1230  -35.0940   28.2260 C.ar  192  TRP192      0.0152
     39  NE1      -12.3040  -37.2770   27.7440 N.ar  192  TRP192     -0.2442
     40  CE2      -12.5780  -36.3410   28.7070 C.ar  192  TRP192      0.0810
     41  CE3      -12.2880  -33.9580   29.0310 C.ar  192  TRP192      0.0012
     42  CZ2      -13.1860  -36.4860   29.9590 C.ar  192  TRP192      0.0191
     43  CZ3      -12.8920  -34.1020   30.2770 C.ar  192  TRP192      0.0001
     44  CH2      -13.3330  -35.3580   30.7280 C.ar  192  TRP192      0.0015
     45  N        -10.1590  -36.3770   20.8040 N.3   200  HIS200     -0.1241
     46  CA        -9.0410  -36.4810   21.7370 C.3   200  HIS200      0.1621
     47  C         -8.1390  -37.6710   21.4710 C.2   200  HIS200      0.2264
     48  O         -8.5990  -38.7620   21.1190 O.2   200  HIS200     -0.2867
     49  CB        -9.4960  -36.4740   23.2080 C.3   200  HIS200      0.0745
     50  CG       -10.1890  -37.7220   23.6560 C.ar  200  HIS200      0.0817
     51  ND1      -11.2890  -38.2410   23.0080 N.ar  200  HIS200     -0.2268
     52  CD2       -9.9810  -38.5140   24.7370 C.ar  200  HIS200      0.1154
     53  CE1      -11.7300  -39.2960   23.6710 C.ar  200  HIS200      0.1986
     54  NE2      -10.9560  -39.4820   24.7250 N.ar  200  HIS200     -0.2212
     55  N         -7.5050  -37.0000   34.1000 N.3   205  VAL205     -0.1245
     56  CA        -8.4550  -36.6540   35.1480 C.3   205  VAL205      0.1561
     57  C         -7.6720  -36.4630   36.4410 C.2   205  VAL205      0.2260
     58  O         -6.8250  -37.2950   36.7860 O.2   205  VAL205     -0.2867
     59  CB        -9.5150  -37.7540   35.3400 C.3   205  VAL205      0.0252
     60  CG1      -10.1460  -37.6460   36.7210 C.3   205  VAL205      0.0019
     61  CG2      -10.5900  -37.6160   34.2740 C.3   205  VAL205      0.0019
     62  N         -6.9290  -45.2050   33.7650 N.3   214  HIS214     -0.1226
     63  CA        -8.3660  -45.4110   33.8130 C.3   214  HIS214      0.1752
     64  C         -8.7200  -46.3760   32.6900 C.2   214  HIS214      0.2596
     65  O         -9.4500  -47.3400   32.9010 O.2   214  HIS214     -0.2718
     66  CB        -9.1450  -44.1110   33.6270 C.3   214  HIS214      0.0759
     67  CG       -10.6290  -44.2950   33.7180 C.ar  214  HIS214      0.0818
     68  ND1      -11.2980  -44.4010   34.9210 N.ar  214  HIS214     -0.2268
     69  CD2      -11.5680  -44.4550   32.7550 C.ar  214  HIS214      0.1154
     70  CE1      -12.5800  -44.6170   34.6940 C.ar  214  HIS214      0.1986
     71  NE2      -12.7700  -44.6550   33.3870 N.ar  214  HIS214     -0.2212
     72  N         -8.2010  -46.1140   31.4940 N.am  215  HIS215     -0.1975
     73  CA        -8.4610  -46.9930   30.3640 C.3   215  HIS215      0.1656
     74  C         -7.7320  -46.6160   29.0890 C.2   215  HIS215      0.2291
     75  O         -7.3320  -45.4700   28.9060 O.2   215  HIS215     -0.2864
     76  CB        -9.9610  -47.0350   30.0460 C.3   215  HIS215      0.0771
     77  CG       -10.4670  -45.8230   29.3210 C.ar  215  HIS215      0.0820
     78  ND1      -10.9310  -44.7020   29.9740 N.ar  215  HIS215     -0.2267
     79  CD2      -10.6050  -45.5690   27.9970 C.ar  215  HIS215      0.1154
     80  CE1      -11.3370  -43.8110   29.0870 C.ar  215  HIS215      0.1986
     81  NE2      -11.1480  -44.3140   27.8790 N.ar  215  HIS215     -0.2212
     82  N        -21.6000  -40.8160   25.7510 N.3   247  HIS247     -0.1241
     83  CA       -20.8460  -40.0300   26.7210 C.3   247  HIS247      0.1621
     84  C        -21.3980  -38.6350   26.9600 C.2   247  HIS247      0.2264
     85  O        -21.9710  -38.3510   28.0090 O.2   247  HIS247     -0.2867
     86  CB       -19.3860  -39.9170   26.2870 C.3   247  HIS247      0.0745
     87  CG       -18.4970  -40.9470   26.9060 C.ar  247  HIS247      0.0817
     88  ND1      -17.3820  -41.4480   26.2700 N.ar  247  HIS247     -0.2268
     89  CD2      -18.5530  -41.5620   28.1110 C.ar  247  HIS247      0.1154
     90  CE1      -16.7900  -42.3290   27.0560 C.ar  247  HIS247      0.1986
     91  NE2      -17.4800  -42.4160   28.1790 N.ar  247  HIS247     -0.2212
     92  N        -19.4550  -35.9020   26.8500 N.3   249  VAL249     -0.1229
     93  CA       -18.1600  -35.3330   26.7760 C.3   249  VAL249      0.1706
     94  C        -17.4900  -36.1610   25.6700 C.2   249  VAL249      0.2561
     95  O        -16.9850  -37.2630   25.8880 O.2   249  VAL249     -0.3172
     96  CB       -17.4250  -35.4030   28.1250 C.3   249  VAL249      0.0267
     97  CG1      -16.0170  -34.8210   28.0000 C.3   249  VAL249      0.0020
     98  CG2      -18.2030  -34.6600   29.2040 C.3   249  VAL249      0.0020
     99  N        -17.5150  -35.5770   24.4670 N.2   250  THR250     -0.2288
    100  CA       -16.9710  -36.2070   23.2570 C.3   250  THR250      0.2015
    101  C        -18.0550  -36.7440   22.3470 C.2   250  THR250      0.2341
    102  O        -17.8400  -36.9610   21.1460 O.2   250  THR250     -0.2861
    103  CB       -16.1280  -37.4130   23.5780 C.3   250  THR250      0.1943
    104  OG1      -15.9650  -37.5080   24.9930 O.3   250  THR250     -0.1716
    105  CG2      -14.7630  -37.2930   22.9050 C.3   250  THR250      0.0392
    106  N        -17.4030  -49.7360   28.4130 N.3   256  TYR256     -0.1241
    107  CA       -16.1720  -49.9680   29.1550 C.3   256  TYR256      0.1605
    108  C        -16.2630  -51.3700   29.7530 C.2   256  TYR256      0.2264
    109  O        -17.3140  -51.7640   30.2570 O.2   256  TYR256     -0.2867
    110  CB       -16.0000  -48.9500   30.2880 C.3   256  TYR256      0.0534
    111  CG       -15.6660  -47.5550   29.8260 C.ar  256  TYR256     -0.0201
    112  CD1      -14.5930  -47.3250   28.9760 C.ar  256  TYR256     -0.0009
    113  CD2      -16.4250  -46.4590   30.2380 C.ar  256  TYR256     -0.0009
    114  CE1      -14.2830  -46.0440   28.5400 C.ar  256  TYR256      0.0417
    115  CE2      -16.1220  -45.1660   29.8040 C.ar  256  TYR256      0.0417
    116  CZ       -15.0480  -44.9710   28.9500 C.ar  256  TYR256      0.1957
    117  OH       -14.7490  -43.7120   28.4840 O.3   256  TYR256     -0.2866
    118  N        -11.7470  -49.6450   26.4360 N.3   266  GLU266     -0.1245
    119  CA       -12.9620  -49.0720   25.8690 C.3   266  GLU266      0.1567
    120  C        -13.0720  -49.3320   24.3750 C.2   266  GLU266      0.2260
    121  O        -12.0610  -49.3800   23.6700 O.2   266  GLU266     -0.2867
    122  CB       -12.9840  -47.5680   26.1050 C.3   266  GLU266      0.0388
    123  CG       -14.1010  -46.8180   25.3810 C.3   266  GLU266      0.1160
    124  CD       -13.9180  -45.3190   25.4770 C.2   266  GLU266      0.3649
    125  OE1      -12.7560  -44.8900   25.3320 O.co2 266  GLU266     -0.2457
    126  OE2      -14.9080  -44.5730   25.6910 O.co2 266  GLU266     -0.2457
    127  N        -21.9080  -33.0930   35.7580 N.3   288  PHE288     -0.1241
    128  CA       -20.9430  -34.1300   35.4200 C.3   288  PHE288      0.1605
    129  C        -21.5670  -35.4460   34.9540 C.2   288  PHE288      0.2264
    130  O        -21.1200  -36.0290   33.9670 O.2   288  PHE288     -0.2867
    131  CB       -20.0270  -34.3920   36.6170 C.3   288  PHE288      0.0534
    132  CG       -18.8880  -35.3150   36.3130 C.ar  288  PHE288     -0.0203
    133  CD1      -17.9580  -34.9900   35.3310 C.ar  288  PHE288     -0.0042
    134  CD2      -18.7510  -36.5180   36.9930 C.ar  288  PHE288     -0.0042
    135  CE1      -16.9050  -35.8490   35.0240 C.ar  288  PHE288     -0.0003
    136  CE2      -17.7020  -37.3880   36.6970 C.ar  288  PHE288     -0.0003
    137  CZ       -16.7760  -37.0510   35.7080 C.ar  288  PHE288     -0.0000
    138  N        -22.4620  -35.6300   31.4730 N.3   291  GLY291     -0.1210
    139  CA       -21.2610  -35.5630   30.6610 C.3   291  GLY291      0.1956
    140  C        -20.6190  -36.9270   30.4980 C.2   291  GLY291      0.2611
    141  O        -20.0190  -37.2200   29.4660 O.2   291  GLY291     -0.2717
    142  N        -20.7550  -37.7610   31.5250 N.am  292  LEU292     -0.1979
    143  CA       -20.1850  -39.1070   31.5410 C.3   292  LEU292      0.1596
    144  C        -21.1190  -40.1320   30.8840 C.2   292  LEU292      0.2287
    145  O        -20.6660  -41.0480   30.1950 O.2   292  LEU292     -0.2864
    146  CB       -19.8660  -39.4890   32.9940 C.3   292  LEU292      0.0297
    147  CG       -19.4090  -40.8880   33.4100 C.3   292  LEU292      0.0022
    148  CD1      -20.6260  -41.7280   33.7340 C.3   292  LEU292      0.0001
    149  CD2      -18.5570  -41.5270   32.3190 C.3   292  LEU292      0.0001
@<TRIPOS>BOND
     1    45    46    1
     2    48    47    2
     3   102   101    2
     4    47    46    1
     5    46    49    1
     6     1     2    1
     7   101   100    1
     8     7     9   ar
     9     7     6   ar
    10   105   103    1
    11    51    50   ar
    12    51    53   ar
    13     2     5    1
    14     2     3    1
    15    49    50    1
    16     5     6    1
    17   100   103    1
    18   100    99    1
    19     9    10   ar
    20   103   104    1
    21    50    52   ar
    22   121   120    2
    23    53    54   ar
    24     6     8   ar
    25     3     4    2
    26   120   119    1
    27    99    94    2
    28    54    52   ar
    29    10     8   ar
    30   104    95    1
    31    34    33    2
    32   125   124   ar
    33   123   124    1
    34   123   122    1
    35   124   126   ar
    36    33    32    1
    37    94    95    1
    38    94    93    1
    39    82    83    1
    40   119   122    1
    41   119   118    1
    42    35    32    1
    43    35    36    1
    44    88    87   ar
    45    88    90   ar
    46    86    83    1
    47    86    87    1
    48    32    31    1
    49    37    36   ar
    50    37    39   ar
    51    83    84    1
    52    93    92    1
    53    93    96    1
    54    87    89   ar
    55    36    38   ar
    56    84    85    2
    57    90    91   ar
    58    39    40   ar
    59    81    79   ar
    60    81    80   ar
    61    79    77   ar
    62    97    96    1
    63    89    91   ar
    64    96    98    1
    65    38    40   ar
    66    38    41   ar
    67   106   107    1
    68   117   116    1
    69   114   116   ar
    70   114   112   ar
    71    40    42   ar
    72    11    12    1
    73    75    74    2
    74   116   115   ar
    75   112   111   ar
    76    41    43   ar
    77    80    78   ar
    78    74    73    1
    79   107   108    1
    80   107   110    1
    81    77    78   ar
    82    77    76    1
    83   141   140    2
    84   108   109    2
    85   115   113   ar
    86   111   113   ar
    87   111   110    1
    88    12    15    1
    89    12    13    1
    90    42    44   ar
    91    76    73    1
    92   145   144    2
    93    15    16    1
    94    43    44   ar
    95    73    72    1
    96   140   139    1
    97   140   142   am
    98   139   138    1
    99   144   143    1
   100    13    14    2
   101    16    17    1
   102    16    18    1
   103    72    64   am
   104   142   143    1
   105   143   146    1
   106   149   147    1
   107    64    65    2
   108    64    63    1
   109    69    71   ar
   110    69    67   ar
   111   146   147    1
   112    71    70   ar
   113   147   148    1
   114    66    67    1
   115    66    63    1
   116    67    68   ar
   117    62    63    1
   118   130   129    2
   119    55    56    1
   120    61    59    1
   121    70    68   ar
   122   129   128    1
   123   135   133   ar
   124   135   137   ar
   125    19    20    1
   126    56    59    1
   127    56    57    1
   128   133   132   ar
   129    59    60    1
   130   128   127    1
   131   128   131    1
   132   137   136   ar
   133    27    25   ar
   134    27    29   ar
   135    25    24   ar
   136   132   131    1
   137   132   134   ar
   138    20    21    1
   139    20    23    1
   140    57    58    2
   141   136   134   ar
   142    30    29    1
   143    21    22    2
   144    29    28   ar
   145    24    23    1
   146    24    26   ar
   147    28    26   ar
