@<TRIPOS>MOLECULE
tmp/3hq1B00.pdb
 124 116 0 0 0
SMALL
GASTEIGER

@<TRIPOS>ATOM
      1  N         23.0590    8.1360  -33.1670 N.3    63  ARG63      -0.1231
      2  CA        22.8760    9.2460  -34.0770 C.3    63  ARG63       0.1694
      3  C         23.4580   10.5570  -33.5330 C.2    63  ARG63       0.2592
      4  O         24.5540   10.9510  -33.9620 O.2    63  ARG63      -0.2718
      5  CB        21.3920    9.3850  -34.4390 C.3    63  ARG63       0.0321
      6  CG        21.1630   10.0790  -35.7870 C.3    63  ARG63       0.0489
      7  CD        21.3650   11.5860  -35.6940 C.3    63  ARG63       0.2205
      8  NE        20.4690   12.2170  -34.7280 N.pl3  63  ARG63      -0.0865
      9  CZ        20.5500   13.4800  -34.3480 C.cat  63  ARG63       0.5346
     10  NH1       21.5170   14.2530  -34.8520 N.pl3  63  ARG63       0.1354
     11  NH2       19.6740   13.9670  -33.4750 N.pl3  63  ARG63       0.1354
     12  N         22.7570   11.2200  -32.6070 N.am   64  ASP64      -0.1974
     13  CA        23.2530   12.4770  -32.0060 C.3    64  ASP64       0.1709
     14  C         24.5790   12.2100  -31.3010 C.2    64  ASP64       0.2293
     15  O         25.5210   12.9840  -31.4420 O.2    64  ASP64      -0.2864
     16  CB        22.1970   13.1210  -31.0560 C.3    64  ASP64       0.1436
     17  CG        22.4480   14.6360  -30.7470 C.2    64  ASP64       0.3671
     18  OD1       23.5970   15.1560  -30.8570 O.co2  64  ASP64      -0.2456
     19  OD2       21.4640   15.3190  -30.3320 O.co2  64  ASP64      -0.2456
     20  N         27.4570   11.3260  -34.0170 N.3    67  GLN67      -0.1245
     21  CA        27.8610   12.4950  -34.8180 C.3    67  GLN67       0.1566
     22  C         28.7940   13.4370  -34.0310 C.2    67  GLN67       0.2260
     23  O         29.4620   14.3200  -34.6160 O.2    67  GLN67      -0.2867
     24  CB        26.6200   13.2630  -35.2730 C.3    67  GLN67       0.0367
     25  CG        26.2180   12.7170  -36.6420 C.3    67  GLN67       0.0905
     26  CD        24.9360   13.4130  -37.1130 C.2    67  GLN67       0.2608
     27  OE1       24.2630   13.9820  -36.2410 O.2    67  GLN67      -0.2717
     28  NE2       24.7330   13.2740  -38.3970 N.am   67  GLN67      -0.0878
     29  N         16.6870    9.7720  -38.4480 N.3   126  LEU126     -0.1245
     30  CA        16.6200   11.2140  -38.6470 C.3   126  LEU126      0.1561
     31  C         16.6970   11.5330  -40.1330 C.2   126  LEU126      0.2260
     32  O         17.4320   10.8780  -40.8700 O.2   126  LEU126     -0.2867
     33  CB        17.7910   11.8910  -37.9140 C.3   126  LEU126      0.0270
     34  CG        17.7250   13.4200  -37.9590 C.3   126  LEU126      0.0019
     35  CD1       16.7170   13.9390  -36.9980 C.3   126  LEU126      0.0001
     36  CD2       19.1130   13.9770  -37.6680 C.3   126  LEU126      0.0001
     37  N         11.8930   10.6490  -38.1860 N.3   150  HIS150     -0.1241
     38  CA        12.0810   11.9080  -37.4810 C.3   150  HIS150      0.1621
     39  C         12.6130   12.9410  -38.4660 C.2   150  HIS150      0.2264
     40  O         13.7900   12.8850  -38.8390 O.2   150  HIS150     -0.2867
     41  CB        13.0820   11.7030  -36.3500 C.3   150  HIS150      0.0745
     42  CG        13.3830   12.9430  -35.5820 C.ar  150  HIS150      0.0817
     43  ND1       14.4580   13.0410  -34.7280 N.ar  150  HIS150     -0.2268
     44  CD2       12.7650   14.1470  -35.5570 C.ar  150  HIS150      0.1154
     45  CE1       14.4770   14.2540  -34.1970 C.ar  150  HIS150      0.1986
     46  NE2       13.4590   14.9380  -34.6810 N.ar  150  HIS150     -0.2212
     47  N         13.0530   17.1710  -39.4810 N.3   152  TYR152     -0.1241
     48  CA        13.2770   18.4070  -38.7350 C.3   152  TYR152      0.1605
     49  C         13.7040   19.5440  -39.6400 C.2   152  TYR152      0.2264
     50  O         14.2620   19.3250  -40.7180 O.2   152  TYR152     -0.2867
     51  CB        14.3630   18.1970  -37.6770 C.3   152  TYR152      0.0534
     52  CG        15.7530   18.1050  -38.2380 C.ar  152  TYR152     -0.0201
     53  CD1       16.2590   16.9090  -38.7310 C.ar  152  TYR152     -0.0009
     54  CD2       16.5830   19.2390  -38.2620 C.ar  152  TYR152     -0.0009
     55  CE1       17.5600   16.8380  -39.2440 C.ar  152  TYR152      0.0417
     56  CE2       17.8770   19.1840  -38.7690 C.ar  152  TYR152      0.0417
     57  CZ        18.3610   17.9820  -39.2520 C.ar  152  TYR152      0.1957
     58  OH        19.6480   17.9370  -39.7410 O.3   152  TYR152     -0.2866
     59  N         10.6340   17.7700  -35.3320 N.3   199  SER199     -0.1217
     60  CA        11.2840   18.7160  -34.4020 C.3   199  SER199      0.1889
     61  C         11.4250   20.1050  -35.0370 C.2   199  SER199      0.2288
     62  O         12.0560   20.2120  -36.0930 O.2   199  SER199     -0.2866
     63  CB        12.6930   18.2560  -34.0050 C.3   199  SER199      0.2089
     64  OG        12.7080   16.9820  -33.3900 O.3   199  SER199     -0.2183
     65  N         13.7070   22.5530  -34.9940 N.3   201  GLU201     -0.1245
     66  CA        15.0820   22.5090  -34.5210 C.3   201  GLU201      0.1567
     67  C         15.4770   23.9090  -34.0090 C.2   201  GLU201      0.2260
     68  O         15.0280   24.9260  -34.5670 O.2   201  GLU201     -0.2867
     69  CB        15.9970   21.9580  -35.6280 C.3   201  GLU201      0.0388
     70  CG        17.4200   21.5470  -35.2110 C.3   201  GLU201      0.1160
     71  CD        18.4470   22.6310  -35.4560 C.2   201  GLU201      0.3649
     72  OE1       18.0550   23.8230  -35.5270 O.co2 201  GLU201     -0.2457
     73  OE2       19.6440   22.2830  -35.5420 O.co2 201  GLU201     -0.2457
     74  N          8.9580   16.7520  -30.9630 N.3   233  ASN233     -0.1240
     75  CA        10.1750   16.7480  -30.1650 C.3   233  ASN233      0.1653
     76  C         10.6570   18.2060  -30.0840 C.2   233  ASN233      0.2266
     77  O         10.8180   18.8670  -31.1230 O.2   233  ASN233     -0.2867
     78  CB        11.1970   15.8330  -30.8350 C.3   233  ASN233      0.1155
     79  CG        12.5060   15.7000  -30.0330 C.2   233  ASN233      0.2627
     80  OD1       12.5040   15.1720  -28.9410 O.2   233  ASN233     -0.2716
     81  ND2       13.6230   16.1540  -30.6100 N.am  233  ASN233     -0.0877
     82  N         13.5700   20.4280  -28.9800 N.3   235  PRO235     -0.2116
     83  CA        14.9650   20.3820  -28.5150 C.3   235  PRO235      0.1372
     84  C         15.5090   21.6820  -27.9360 C.2   235  PRO235      0.2244
     85  O         15.2210   22.7790  -28.4630 O.2   235  PRO235     -0.2868
     86  CB        15.7410   20.0230  -29.7800 C.3   235  PRO235      0.0268
     87  CG        14.8840   20.6540  -30.9060 C.3   235  PRO235      0.0207
     88  CD        13.4600   20.5660  -30.4500 C.3   235  PRO235      0.0892
     89  N         18.3780   22.6710  -28.5450 N.3   237  THR237     -0.1218
     90  CA        19.4870   22.4030  -29.4650 C.3   237  THR237      0.1862
     91  C         20.7460   23.0600  -28.9320 C.2   237  THR237      0.2287
     92  O         21.8160   22.4670  -28.9650 O.2   237  THR237     -0.2866
     93  CB        19.1510   22.9610  -30.8510 C.3   237  THR237      0.1770
     94  OG1       17.8830   22.3970  -31.2670 O.3   237  THR237     -0.2211
     95  CG2       20.2740   22.6060  -31.8660 C.3   237  THR237      0.0375
     96  N         14.3170   17.1060  -25.7910 N.3   268  HIS268     -0.1241
     97  CA        15.6350   16.7550  -26.3090 C.3   268  HIS268      0.1621
     98  C         16.5930   17.8710  -25.8450 C.2   268  HIS268      0.2264
     99  O         16.9080   18.7680  -26.6160 O.2   268  HIS268     -0.2867
    100  CB        15.5460   16.6350  -27.8490 C.3   268  HIS268      0.0745
    101  CG        16.8310   16.2740  -28.5310 C.ar  268  HIS268      0.0817
    102  ND1       17.0410   15.0380  -29.1220 N.ar  268  HIS268     -0.2268
    103  CD2       17.9530   17.0010  -28.7690 C.ar  268  HIS268      0.1154
    104  CE1       18.2410   15.0190  -29.6810 C.ar  268  HIS268      0.1986
    105  NE2       18.8180   16.1950  -29.4740 N.ar  268  HIS268     -0.2212
    106  N         20.0940   19.6690  -24.6990 N.3   270  HIS270     -0.1241
    107  CA        21.5650   19.6470  -24.6230 C.3   270  HIS270      0.1621
    108  C         22.0150   20.3460  -23.3470 C.2   270  HIS270      0.2264
    109  O         21.1900   20.8750  -22.5930 O.2   270  HIS270     -0.2867
    110  CB        22.2040   20.2210  -25.9050 C.3   270  HIS270      0.0745
    111  CG        22.1010   19.2760  -27.0660 C.ar  270  HIS270      0.0817
    112  ND1       23.0860   18.3590  -27.3810 N.ar  270  HIS270     -0.2268
    113  CD2       21.0950   19.0590  -27.9470 C.ar  270  HIS270      0.1154
    114  CE1       22.7020   17.6460  -28.4280 C.ar  270  HIS270      0.1986
    115  NE2       21.4940   18.0480  -28.7830 N.ar  270  HIS270     -0.2212
    116  N         26.3400   16.2860  -28.9980 N.3   300  GLU300     -0.1245
    117  CA        26.9740   17.4880  -29.5230 C.3   300  GLU300      0.1567
    118  C         27.4540   18.4290  -28.4110 C.2   300  GLU300      0.2260
    119  O         26.6860   18.7570  -27.4940 O.2   300  GLU300     -0.2867
    120  CB        26.0050   18.2120  -30.4580 C.3   300  GLU300      0.0388
    121  CG        26.6260   19.2790  -31.3320 C.3   300  GLU300      0.1160
    122  CD        25.6050   19.9150  -32.2630 C.2   300  GLU300      0.3649
    123  OE1       24.7450   19.1750  -32.8140 O.co2 300  GLU300     -0.2457
    124  OE2       25.6580   21.1560  -32.4460 O.co2 300  GLU300     -0.2457
@<TRIPOS>BOND
     1    32    31    2
     2    50    49    2
     3    31    30    1
     4    58    57    1
     5    49    48    1
     6    47    48    1
     7    57    55   ar
     8    57    56   ar
     9    55    53   ar
    10    40    39    2
    11    56    54   ar
    12    48    51    1
    13    53    52   ar
    14    30    29    1
    15    30    33    1
    16    39    38    1
    17    28    26   am
    18    54    52   ar
    19    52    51    1
    20    37    38    1
    21    34    33    1
    22    34    36    1
    23    34    35    1
    24    38    41    1
    25    26    25    1
    26    26    27    2
    27    25    24    1
    28    41    42    1
    29    62    61    2
    30     6     7    1
    31     6     5    1
    32     7     8    1
    33    69    70    1
    34    69    66    1
    35    42    44   ar
    36    42    43   ar
    37    44    46   ar
    38    73    71   ar
    39    72    71   ar
    40    71    70    1
    41    59    60    1
    42    24    21    1
    43    61    60    1
    44    65    66    1
    45    10     9    1
    46    21    22    1
    47    21    20    1
    48    43    45   ar
    49     8     9    2
    50    46    45   ar
    51    23    22    2
    52    68    67    2
    53    66    67    1
    54     5     2    1
    55    60    63    1
    56     9    11    1
    57     2     3    1
    58     2     1    1
    59    63    64    1
    60     4     3    2
    61     3    12   am
    62   123   122   ar
    63    12    13    1
    64   124   122   ar
    65   122   121    1
    66    13    14    1
    67    13    16    1
    68    95    93    1
    69    15    14    2
    70   121   120    1
    71    94    93    1
    72    77    76    2
    73    16    17    1
    74    74    75    1
    75    87    88    1
    76    87    86    1
    77    18    17   ar
    78    93    90    1
    79    78    75    1
    80    78    79    1
    81    17    19   ar
    82    81    79   am
    83   120   117    1
    84    88    82    1
    85    75    76    1
    86    79    80    2
    87    86    83    1
    88   104   105   ar
    89   104   102   ar
    90   117   116    1
    91   117   118    1
    92   105   103   ar
    93    90    91    1
    94    90    89    1
    95   102   101   ar
    96    82    83    1
    97    92    91    2
    98   115   114   ar
    99   115   113   ar
   100   103   101   ar
   101   101   100    1
   102    83    84    1
   103    85    84    2
   104   114   112   ar
   105   118   119    2
   106   113   111   ar
   107   100    97    1
   108   112   111   ar
   109   111   110    1
   110    99    98    2
   111    97    98    1
   112    97    96    1
   113   110   107    1
   114   106   107    1
   115   107   108    1
   116   108   109    2
