@<TRIPOS>MOLECULE
tmp/3hq5B00.pdb
 191 180 0 0 0
SMALL
GASTEIGER

@<TRIPOS>ATOM
      1  N          6.1900   22.0190   11.6420 N.3    34  LEU34      -0.1245
      2  CA         6.1120   20.5710   11.4520 C.3    34  LEU34       0.1561
      3  C          5.0490   20.2020   10.4170 C.2    34  LEU34       0.2260
      4  O          5.2020   19.2180    9.6960 O.2    34  LEU34      -0.2867
      5  CB         5.8780   19.8410   12.7830 C.3    34  LEU34       0.0270
      6  CG         7.0800   19.7650   13.7450 C.3    34  LEU34       0.0019
      7  CD1        6.6380   19.3030   15.1180 C.3    34  LEU34       0.0001
      8  CD2        8.1850   18.8500   13.2050 C.3    34  LEU34       0.0001
      9  N          6.6500   20.8770    7.0370 N.3    37  LEU37      -0.1231
     10  CA         7.5770   19.7640    6.8270 C.3    37  LEU37       0.1693
     11  C          6.8370   18.4860    6.3940 C.2    37  LEU37       0.2592
     12  O          7.2720   17.7950    5.4790 O.2    37  LEU37      -0.2718
     13  CB         8.4330   19.5300    8.0760 C.3    37  LEU37       0.0284
     14  CG         9.4250   20.6720    8.3340 C.3    37  LEU37       0.0019
     15  CD1        9.8700   20.7350    9.7890 C.3    37  LEU37       0.0001
     16  CD2       10.6280   20.5660    7.3970 C.3    37  LEU37       0.0001
     17  N          5.6960   18.2040    7.0120 N.am   38  ASN38      -0.1974
     18  CA         4.8560   17.0780    6.5900 C.3    38  ASN38       0.1688
     19  C          4.2830   17.2490    5.1830 C.2    38  ASN38       0.2292
     20  O          4.1450   16.2730    4.4370 O.2    38  ASN38      -0.2864
     21  CB         3.7210   16.8550    7.5840 C.3    38  ASN38       0.1181
     22  CG         4.2080   16.3030    8.9100 C.2    38  ASN38       0.2629
     23  OD1        5.3740   15.9380    9.0570 O.2    38  ASN38      -0.2716
     24  ND2        3.3080   16.2320    9.8840 N.am   38  ASN38      -0.0877
     25  N          5.7840   19.0860    2.7600 N.3    40  LEU40      -0.1231
     26  CA         6.9990   18.8440    1.9820 C.3    40  LEU40       0.1693
     27  C          7.3060   17.3510    1.8870 C.2    40  LEU40       0.2592
     28  O          7.6380   16.8510    0.8120 O.2    40  LEU40      -0.2718
     29  CB         8.1880   19.5520    2.6420 C.3    40  LEU40       0.0284
     30  CG         9.5570   19.4380    1.9830 C.3    40  LEU40       0.0019
     31  CD1        9.4970   20.0060    0.5630 C.3    40  LEU40       0.0001
     32  CD2       10.5840   20.1620    2.8250 C.3    40  LEU40       0.0001
     33  N          7.2210   16.6600    3.0250 N.am   41  GLY41      -0.1957
     34  CA         7.4980   15.2280    3.1000 C.3    41  GLY41       0.1869
     35  C          6.5810   14.4000    2.2240 C.2    41  GLY41       0.2309
     36  O          7.0270   13.4710    1.5640 O.2    41  GLY41      -0.2863
     37  N          7.6910   15.1130   -1.4260 N.3    44  GLN44      -0.1245
     38  CA         8.9300   14.3820   -1.6980 C.3    44  GLN44       0.1566
     39  C          8.7010   12.8780   -1.8940 C.2    44  GLN44       0.2260
     40  O          9.2950   12.2700   -2.7920 O.2    44  GLN44      -0.2867
     41  CB         9.9740   14.6450   -0.6050 C.3    44  GLN44       0.0367
     42  CG        11.0580   15.6180   -1.0600 C.3    44  GLN44       0.0905
     43  CD        11.4750   16.5680    0.0090 C.2    44  GLN44       0.2608
     44  OE1       11.4360   16.2400    1.1920 O.2    44  GLN44      -0.2717
     45  NE2       11.8750   17.7750   -0.3940 N.am   44  GLN44      -0.0878
     46  N         12.3210    6.0070    3.0520 N.3    74  TRP74      -0.1227
     47  CA        11.8170    7.3700    2.8320 C.3    74  TRP74       0.1737
     48  C         12.4870    8.4630    3.6780 C.2    74  TRP74       0.2595
     49  O         12.8200    9.5070    3.1350 O.2    74  TRP74      -0.2718
     50  CB        10.2860    7.4540    2.9090 C.3    74  TRP74       0.0564
     51  CG         9.6990    7.4060    4.2670 C.ar   74  TRP74       0.0003
     52  CD1        9.3690    6.2880    4.9710 C.ar   74  TRP74       0.0946
     53  CD2        9.3170    8.5260    5.0850 C.ar   74  TRP74       0.0152
     54  NE1        8.8320    6.6380    6.1980 N.ar   74  TRP74      -0.2442
     55  CE2        8.7910    8.0060    6.2890 C.ar   74  TRP74       0.0810
     56  CE3        9.3740    9.9130    4.9190 C.ar   74  TRP74       0.0012
     57  CZ2        8.3270    8.8260    7.3200 C.ar   74  TRP74       0.0191
     58  CZ3        8.9160   10.7300    5.9540 C.ar   74  TRP74       0.0001
     59  CH2        8.3970   10.1820    7.1330 C.ar   74  TRP74       0.0015
     60  N         12.7010    8.2360    4.9760 N.am   75  MET75      -0.1979
     61  CA        13.3450    9.2400    5.8250 C.3    75  MET75       0.1605
     62  C         14.8310    9.4210    5.4720 C.2    75  MET75       0.2287
     63  O         15.3290   10.5480    5.4440 O.2    75  MET75      -0.2864
     64  CB        13.1940    8.8910    7.3100 C.3    75  MET75       0.0413
     65  CG        13.7880    9.9410    8.2640 C.3    75  MET75       0.0598
     66  SD        12.7730   11.4300    8.3520 S.3    75  MET75      -0.1393
     67  CE        11.4560   10.7960    9.4110 C.3    75  MET75       0.0692
     68  N         15.0320   11.4630    2.2810 N.3    78  MET78      -0.1230
     69  CA        14.6690   12.8710    2.5040 C.3    78  MET78       0.1702
     70  C         15.8120   13.6680    3.1240 C.2    78  MET78       0.2592
     71  O         16.1250   14.7470    2.6390 O.2    78  MET78      -0.2718
     72  CB        13.4380   13.0160    3.3980 C.3    78  MET78       0.0401
     73  CG        12.1240   12.6740    2.7310 C.3    78  MET78       0.0596
     74  SD        10.7320   13.5350    3.4940 S.3    78  MET78      -0.1393
     75  CE        11.0760   13.3020    5.2460 C.3    78  MET78       0.0692
     76  N         16.4290   13.1390    4.1810 N.am   79  VAL79      -0.1980
     77  CA        17.5210   13.8460    4.8570 C.3    79  VAL79       0.1595
     78  C         18.8160   13.8440    4.0450 C.2    79  VAL79       0.2287
     79  O         19.6510   14.7480    4.1930 O.2    79  VAL79      -0.2864
     80  CB        17.8070   13.3210    6.2920 C.3    79  VAL79       0.0276
     81  CG1       16.5730   13.4730    7.1550 C.3    79  VAL79       0.0022
     82  CG2       18.3390   11.8770    6.2890 C.3    79  VAL79       0.0022
     83  N         17.9980   16.5670    1.5930 N.3    82  LEU82      -0.1245
     84  CA        18.1110   17.8190    2.3520 C.3    82  LEU82       0.1561
     85  C         19.5640   18.2560    2.4780 C.2    82  LEU82       0.2260
     86  O         19.8850   19.4260    2.3020 O.2    82  LEU82      -0.2867
     87  CB        17.5140   17.6530    3.7550 C.3    82  LEU82       0.0270
     88  CG        17.7700   18.7370    4.8150 C.3    82  LEU82       0.0019
     89  CD1       17.1060   20.0510    4.4350 C.3    82  LEU82       0.0001
     90  CD2       17.2880   18.2530    6.2010 C.3    82  LEU82       0.0001
     91  N         20.8950   19.5270   -1.1130 N.3    85  ARG85      -0.1245
     92  CA        20.4240   20.8870   -1.4320 C.3    85  ARG85       0.1563
     93  C         21.0720   21.9460   -0.5440 C.2    85  ARG85       0.2260
     94  O         21.3220   23.0660   -0.9870 O.2    85  ARG85      -0.2867
     95  CB        18.9020   20.9890   -1.2820 C.3    85  ARG85       0.0307
     96  CG        18.1040   20.1470   -2.2520 C.3    85  ARG85       0.0489
     97  CD        16.6100   20.4850   -2.1920 C.3    85  ARG85       0.2205
     98  NE        16.0220   20.2170   -0.8780 N.pl3  85  ARG85      -0.0865
     99  CZ        15.6540   19.0150   -0.4390 C.cat  85  ARG85       0.5346
    100  NH1       15.8060   17.9420   -1.2060 N.pl3  85  ARG85       0.1354
    101  NH2       15.1380   18.8810    0.7810 N.pl3  85  ARG85       0.1354
    102  N         15.4010   22.9350    3.2200 N.3    97  PHE97      -0.1241
    103  CA        14.3260   21.9490    3.1100 C.3    97  PHE97       0.1605
    104  C         13.6450   22.1060    1.7640 C.2    97  PHE97       0.2264
    105  O         13.3640   21.1250    1.0800 O.2    97  PHE97      -0.2867
    106  CB        13.3070   22.1060    4.2490 C.3    97  PHE97       0.0534
    107  CG        13.8370   21.7180    5.6040 C.ar   97  PHE97      -0.0203
    108  CD1       14.3690   22.6710    6.4580 C.ar   97  PHE97      -0.0042
    109  CD2       13.8060   20.4000    6.0230 C.ar   97  PHE97      -0.0042
    110  CE1       14.8610   22.3070    7.7150 C.ar   97  PHE97      -0.0003
    111  CE2       14.3010   20.0280    7.2750 C.ar   97  PHE97      -0.0003
    112  CZ        14.8220   20.9830    8.1210 C.ar   97  PHE97      -0.0000
    113  N         12.7630   22.0860   17.9120 N.3   113  PHE113     -0.1241
    114  CA        13.5160   20.8620   17.6120 C.3   113  PHE113      0.1605
    115  C         14.9490   21.1710   17.1950 C.2   113  PHE113      0.2264
    116  O         15.4500   20.6390   16.2090 O.2   113  PHE113     -0.2867
    117  CB        12.7860   20.0080   16.5560 C.3   113  PHE113      0.0534
    118  CG        12.2820   20.7850   15.3720 C.ar  113  PHE113     -0.0203
    119  CD1       10.9780   21.2530   15.3420 C.ar  113  PHE113     -0.0042
    120  CD2       13.0990   21.0320   14.2840 C.ar  113  PHE113     -0.0042
    121  CE1       10.5010   21.9670   14.2580 C.ar  113  PHE113     -0.0003
    122  CE2       12.6310   21.7420   13.1910 C.ar  113  PHE113     -0.0003
    123  CZ        11.3320   22.2130   13.1770 C.ar  113  PHE113     -0.0000
    124  N         17.3770   18.1890   16.8180 N.3   116  LEU116     -0.1245
    125  CA        17.1320   17.3990   15.6110 C.3   116  LEU116      0.1561
    126  C         17.6940   18.0800   14.3520 C.2   116  LEU116      0.2260
    127  O         18.2190   17.3960   13.4680 O.2   116  LEU116     -0.2867
    128  CB        15.6350   17.0630   15.4310 C.3   116  LEU116      0.0270
    129  CG        15.0280   15.8600   16.1820 C.3   116  LEU116      0.0019
    130  CD1       15.9130   14.6210   16.1300 C.3   116  LEU116      0.0001
    131  CD2       14.7380   16.2010   17.6190 C.3   116  LEU116      0.0001
    132  N         20.4260   16.5820   11.6670 N.3   120  MET120     -0.1245
    133  CA        20.2560   16.6420   10.2080 C.3   120  MET120      0.1570
    134  C         21.3900   17.4410    9.5290 C.2   120  MET120      0.2261
    135  O         21.9140   17.0280    8.4990 O.2   120  MET120     -0.2867
    136  CB        18.8750   17.2240    9.8490 C.3   120  MET120      0.0387
    137  CG        17.6980   16.2990   10.2170 C.3   120  MET120      0.0595
    138  SD        16.0460   16.8540    9.6880 S.3   120  MET120     -0.1393
    139  CE        15.8200   18.3420   10.6640 C.3   120  MET120      0.0692
    140  N         15.7450   10.2000   14.0810 N.3   206  LEU206     -0.1245
    141  CA        14.7090   10.8820   13.3220 C.3   206  LEU206      0.1561
    142  C         13.4090   10.0600   13.2960 C.2   206  LEU206      0.2260
    143  O         12.3240   10.6170   13.4420 O.2   206  LEU206     -0.2867
    144  CB        15.2000   11.1810   11.8890 C.3   206  LEU206      0.0270
    145  CG        16.5330   11.9410   11.7330 C.3   206  LEU206      0.0019
    146  CD1       16.7390   12.3990   10.2910 C.3   206  LEU206      0.0001
    147  CD2       16.6270   13.1270   12.6820 C.3   206  LEU206      0.0001
    148  N         11.5770   10.3810   16.8110 N.3   209  TYR209     -0.1227
    149  CA        10.9170   11.6850   16.8760 C.3   209  TYR209      0.1736
    150  C          9.6910   11.7240   15.9700 C.2   209  TYR209      0.2595
    151  O          8.6380   12.2320   16.3480 O.2   209  TYR209     -0.2718
    152  CB        11.8910   12.8100   16.4890 C.3   209  TYR209      0.0548
    153  CG        11.2810   14.1990   16.5680 C.ar  209  TYR209     -0.0200
    154  CD1       10.6700   14.7750   15.4620 C.ar  209  TYR209     -0.0009
    155  CD2       11.3100   14.9260   17.7480 C.ar  209  TYR209     -0.0009
    156  CE1       10.1140   16.0390   15.5260 C.ar  209  TYR209      0.0417
    157  CE2       10.7560   16.1980   17.8210 C.ar  209  TYR209      0.0417
    158  CZ        10.1590   16.7460   16.7100 C.ar  209  TYR209      0.1957
    159  OH         9.5990   18.0050   16.7730 O.3   209  TYR209     -0.2866
    160  N          9.8450   11.1800   14.7670 N.am  210  CYS210     -0.1970
    161  CA         8.7860   11.1640   13.7820 C.3   210  CYS210      0.1712
    162  C          7.5810   10.3480   14.2520 C.2   210  CYS210      0.2296
    163  O          6.4330   10.7850   14.1090 O.2   210  CYS210     -0.2864
    164  CB         9.3040   10.6110   12.4560 C.3   210  CYS210      0.0983
    165  SG         8.0030   10.3390   11.2540 S.3   210  CYS210     -0.0798
    166  N          5.8920   12.1600   17.2620 N.3   213  THR213     -0.1218
    167  CA         5.1150   13.2460   16.6730 C.3   213  THR213      0.1862
    168  C          3.8220   12.7390   16.0580 C.2   213  THR213      0.2287
    169  O          2.7740   13.3530   16.2460 O.2   213  THR213     -0.2866
    170  CB         5.9230   14.0050   15.5910 C.3   213  THR213      0.1770
    171  OG1        7.1270   14.5110   16.1720 O.3   213  THR213     -0.2211
    172  CG2        5.1090   15.1620   15.0010 C.3   213  THR213      0.0375
    173  N         -0.6490   15.0730    9.4500 N.3   224  PHE224     -0.1241
    174  CA         0.1520   14.1530    8.6560 C.3   224  PHE224      0.1605
    175  C         -0.6430   13.7680    7.4220 C.2   224  PHE224      0.2264
    176  O         -1.6590   13.0940    7.5400 O.2   224  PHE224     -0.2867
    177  CB         0.5080   12.8980    9.4660 C.3   224  PHE224      0.0534
    178  CG         1.6270   13.1050   10.4340 C.ar  224  PHE224     -0.0203
    179  CD1        1.4110   13.7690   11.6310 C.ar  224  PHE224     -0.0042
    180  CD2        2.9030   12.6390   10.1490 C.ar  224  PHE224     -0.0042
    181  CE1        2.4450   13.9680   12.5190 C.ar  224  PHE224     -0.0003
    182  CE2        3.9360   12.8300   11.0340 C.ar  224  PHE224     -0.0003
    183  CZ         3.7090   13.4960   12.2220 C.ar  224  PHE224     -0.0000
    184  N          2.3020    9.8260    3.5450 N.3   228  MET228     -0.1245
    185  CA         3.2660    9.8540    4.6480 C.3   228  MET228      0.1570
    186  C          2.7140    9.0850    5.8700 C.2   228  MET228      0.2261
    187  O          3.4490    8.3630    6.5530 O.2   228  MET228     -0.2867
    188  CB         3.5920   11.3010    5.0130 C.3   228  MET228      0.0387
    189  CG         4.9730   11.4840    5.6040 C.3   228  MET228      0.0595
    190  SD         5.1310   13.0170    6.5340 S.3   228  MET228     -0.1393
    191  CE         3.5220   13.1080    7.2970 C.3   228  MET228      0.0692
@<TRIPOS>BOND
     1    40    39    2
     2    96    97    1
     3    96    95    1
     4    97    98    1
     5    39    38    1
     6    38    37    1
     7    38    41    1
     8    92    95    1
     9    92    91    1
    10    92    93    1
    11   100    99    1
    12    42    41    1
    13    42    43    1
    14    94    93    2
    15    98    99    2
    16    99   101    1
    17    45    43   am
    18    43    44    2
    19    31    30    1
    20    28    27    2
    21   105   104    2
    22    36    35    2
    23    83    84    1
    24   104   103    1
    25    27    26    1
    26    27    33   am
    27    26    29    1
    28    26    25    1
    29    30    29    1
    30    30    32    1
    31    35    34    1
    32    68    69    1
    33    86    85    2
    34    84    85    1
    35    84    87    1
    36    69    70    1
    37    69    72    1
    38    71    70    2
    39    73    72    1
    40    73    74    1
    41    47    50    1
    42    47    46    1
    43    47    48    1
    44    50    51    1
    45    33    34    1
    46   103   102    1
    47   103   106    1
    48    70    76   am
    49    49    48    2
    50    74    75    1
    51   184   185    1
    52    48    60   am
    53    87    88    1
    54    78    79    2
    55    78    77    1
    56    76    77    1
    57   106   107    1
    58    51    52   ar
    59    51    53   ar
    60    89    88    1
    61    20    19    2
    62   185   188    1
    63   185   186    1
    64    88    90    1
    65    77    80    1
    66    56    53   ar
    67    56    58   ar
    68    52    54   ar
    69    60    61    1
    70   188   189    1
    71    53    55   ar
    72    19    18    1
    73    63    62    2
    74    62    61    1
    75    12    11    2
    76   107   109   ar
    77   107   108   ar
    78   189   190    1
    79    61    64    1
    80   186   187    2
    81    58    59   ar
    82   109   111   ar
    83    54    55   ar
    84    82    80    1
    85    55    57   ar
    86    80    81    1
    87    11    10    1
    88    11    17   am
    89   108   110   ar
    90   190   191    1
    91    18    17    1
    92    18    21    1
    93    10     9    1
    94    10    13    1
    95    59    57   ar
    96   111   112   ar
    97    64    65    1
    98    16    14    1
    99   175   176    2
   100   175   174    1
   101    21    22    1
   102   110   112   ar
   103    13    14    1
   104    65    66    1
   105    14    15    1
   106    66    67    1
   107   135   134    2
   108   174   173    1
   109   174   177    1
   110    22    23    2
   111    22    24   am
   112   177   178    1
   113   134   133    1
   114   138   137    1
   115   138   139    1
   116     4     3    2
   117   136   133    1
   118   136   137    1
   119   180   178   ar
   120   180   182   ar
   121   133   132    1
   122   146   145    1
   123     3     2    1
   124   178   179   ar
   125   182   183   ar
   126   165   164    1
   127     2     1    1
   128     2     5    1
   129   179   181   ar
   130   145   144    1
   131   145   147    1
   132   144   141    1
   133   183   181   ar
   134   164   161    1
   135     5     6    1
   136   123   122   ar
   137   123   121   ar
   138   122   120   ar
   139     8     6    1
   140   142   141    1
   141   142   143    2
   142   141   140    1
   143   127   126    2
   144     6     7    1
   145   161   162    1
   146   161   160    1
   147   163   162    2
   148   121   119   ar
   149   120   118   ar
   150   126   125    1
   151   160   150   am
   152   172   170    1
   153   119   118   ar
   154   118   117    1
   155   128   125    1
   156   128   129    1
   157   154   156   ar
   158   154   153   ar
   159   156   158   ar
   160   170   171    1
   161   170   167    1
   162   125   124    1
   163   150   151    2
   164   150   149    1
   165   168   169    2
   166   168   167    1
   167   130   129    1
   168   129   131    1
   169   116   115    2
   170   152   153    1
   171   152   149    1
   172   117   114    1
   173   153   155   ar
   174   167   166    1
   175   158   159    1
   176   158   157   ar
   177   148   149    1
   178   115   114    1
   179   114   113    1
   180   155   157   ar
