@<TRIPOS>MOLECULE
tmp/3hq7A00.pdb
 222 212 0 0 0
SMALL
GASTEIGER

@<TRIPOS>ATOM
      1  N         33.4600  -19.0820   16.3910 N.3    41  TYR41      -0.1241
      2  CA        32.2720  -19.4500   15.6240 C.3    41  TYR41       0.1605
      3  C         31.0670  -19.8770   16.5210 C.2    41  TYR41       0.2264
      4  O         29.9190  -19.7490   16.1740 O.2    41  TYR41      -0.2867
      5  CB        32.6750  -20.5720   14.6380 C.3    41  TYR41       0.0534
      6  CG        31.5880  -21.0890   13.7080 C.ar   41  TYR41      -0.0201
      7  CD1       31.5460  -20.7170   12.3590 C.ar   41  TYR41      -0.0009
      8  CD2       30.6180  -21.9840   14.1420 C.ar   41  TYR41      -0.0009
      9  CE1       30.5150  -21.1710   11.5000 C.ar   41  TYR41       0.0417
     10  CE2       29.6410  -22.4910   13.2580 C.ar   41  TYR41       0.0417
     11  CZ        29.6100  -22.0720   11.9500 C.ar   41  TYR41       0.1957
     12  OH        28.6420  -22.5890   11.0870 O.3    41  TYR41      -0.2866
     13  N         29.9780  -12.8080   20.4730 N.3    46  LEU46      -0.1245
     14  CA        30.1240  -11.8880   19.3070 C.3    46  LEU46       0.1561
     15  C         28.8670  -11.0050   18.9620 C.2    46  LEU46       0.2260
     16  O         28.9940   -9.9740   18.2820 O.2    46  LEU46      -0.2867
     17  CB        30.6110  -12.6220   18.0260 C.3    46  LEU46       0.0270
     18  CG        31.9230  -13.4620   17.8930 C.3    46  LEU46       0.0019
     19  CD1       32.3750  -13.6860   16.4210 C.3    46  LEU46       0.0001
     20  CD2       33.0390  -12.9700   18.7040 C.3    46  LEU46       0.0001
     21  N         23.3950  -15.0130   20.1250 N.3    52  ILE52      -0.1231
     22  CA        23.6090  -15.5920   18.8060 C.3    52  ILE52       0.1692
     23  C         25.0810  -15.8320   18.4630 C.2    52  ILE52       0.2593
     24  O         25.9180  -14.9630   18.5950 O.2    52  ILE52      -0.2718
     25  CB        23.0650  -14.5510   17.8430 C.3    52  ILE52       0.0266
     26  CG1       21.6080  -14.1510   18.1850 C.3    52  ILE52       0.0019
     27  CG2       22.9840  -15.0530   16.4810 C.3    52  ILE52       0.0020
     28  CD1       21.2300  -12.7350   17.5050 C.3    52  ILE52       0.0001
     29  N         25.4030  -16.9880   17.9430 N.am   53  SER53      -0.1938
     30  CA        26.6590  -17.2980   17.3560 C.3    53  SER53       0.2055
     31  C         26.4810  -17.6670   15.8530 C.2    53  SER53       0.2643
     32  O         25.4060  -17.5760   15.2880 O.2    53  SER53      -0.2714
     33  CB        27.3130  -18.4070   18.1190 C.3    53  SER53       0.2130
     34  OG        26.8430  -19.7070   17.8470 O.3    53  SER53      -0.2179
     35  N         27.5460  -18.0600   15.1780 N.am   54  CYS54      -0.1967
     36  CA        27.4020  -18.4080   13.7570 C.3    54  CYS54       0.1712
     37  C         26.6850  -19.7530   13.6800 C.2    54  CYS54       0.2296
     38  O         25.8930  -19.9870   12.7830 O.2    54  CYS54      -0.2864
     39  CB        28.8000  -18.5930   13.1880 C.3    54  CYS54       0.0983
     40  SG        29.9550  -17.2690   13.3740 S.3    54  CYS54      -0.0798
     41  N         22.6880  -19.9290   13.2930 N.3    57  CYS57      -0.1221
     42  CA        22.1810  -20.0410   11.9060 C.3    57  CYS57       0.1808
     43  C         22.8790  -20.9680   10.9800 C.2    57  CYS57       0.2601
     44  O         22.3330  -21.2470    9.9250 O.2    57  CYS57      -0.2717
     45  CB        22.0780  -18.7080   11.1810 C.3    57  CYS57       0.0970
     46  SG        21.1980  -17.5010   12.1180 S.3    57  CYS57      -0.0800
     47  N         24.0860  -21.3870   11.3120 N.am   58  HIS58      -0.1975
     48  CA        24.8360  -22.2950   10.4660 C.3    58  HIS58       0.1656
     49  C         25.2770  -23.5490   11.2560 C.2    58  HIS58       0.2291
     50  O         26.4520  -23.7220   11.5570 O.2    58  HIS58      -0.2864
     51  CB        26.0450  -21.6360    9.8740 C.3    58  HIS58       0.0771
     52  CG        25.7370  -20.4490    9.0630 C.ar   58  HIS58       0.0820
     53  ND1       25.2890  -20.5390    7.7730 N.ar   58  HIS58      -0.2267
     54  CD2       25.7770  -19.1250    9.3590 C.ar   58  HIS58       0.1154
     55  CE1       25.0460  -19.3290    7.2930 C.ar   58  HIS58       0.1986
     56  NE2       25.3380  -18.4480    8.2380 N.ar   58  HIS58      -0.2212
     57  N         16.2560  -15.8160    7.3470 N.3    71  SER71      -0.1202
     58  CA        16.8280  -15.0370    8.4350 C.3    71  SER71       0.2020
     59  C         17.6960  -13.8840    7.9420 C.2    71  SER71       0.2619
     60  O         18.0310  -13.7960    6.7300 O.2    71  SER71      -0.2717
     61  CB        17.7250  -15.9130    9.2800 C.3    71  SER71       0.2103
     62  OG        18.5890  -16.6120    8.4610 O.3    71  SER71      -0.2182
     63  N         18.0890  -13.0060    8.8840 N.am   72  THR72      -0.1938
     64  CA        18.9890  -11.9110    8.6170 C.3    72  THR72       0.2028
     65  C         20.1870  -12.0710    9.4860 C.2    72  THR72       0.2643
     66  O         20.1510  -11.7830   10.6690 O.2    72  THR72      -0.2714
     67  CB        18.3550  -10.5170    8.8670 C.3    72  THR72       0.1808
     68  OG1       17.0390  -10.4990    8.3120 O.3    72  THR72      -0.2208
     69  CG2       19.2330   -9.4050    8.1480 C.3    72  THR72       0.0379
     70  N         21.2990  -12.4140    8.9070 N.am   73  GLY73      -0.1939
     71  CA        22.4640  -12.3520    9.7420 C.3    73  GLY73       0.2014
     72  C         23.6240  -11.5300    9.3250 C.2    73  GLY73       0.2638
     73  O         24.6090  -11.4540   10.0670 O.2    73  GLY73      -0.2714
     74  N         23.5200  -10.9550    8.1200 N.am   74  HIS74      -0.1973
     75  CA        24.6130  -10.1850    7.4870 C.3    74  HIS74       0.1656
     76  C         24.1320   -8.7870    7.0340 C.2    74  HIS74       0.2291
     77  O         23.0280   -8.6590    6.5840 O.2    74  HIS74      -0.2864
     78  CB        25.2390  -10.9860    6.3790 C.3    74  HIS74       0.0771
     79  CG        25.7980  -12.2750    6.8450 C.ar   74  HIS74       0.0820
     80  ND1       27.1170  -12.4250    7.2120 N.ar   74  HIS74      -0.2267
     81  CD2       25.1980  -13.4490    7.1220 C.ar   74  HIS74       0.1154
     82  CE1       27.3200  -13.6640    7.6290 C.ar   74  HIS74       0.1986
     83  NE2       26.1700  -14.3150    7.5610 N.ar   74  HIS74      -0.2212
     84  N         24.8940   -6.4840    4.8960 N.3    76  TRP76      -0.1227
     85  CA        24.6470   -6.2950    3.4410 C.3    76  TRP76       0.1737
     86  C         23.2180   -6.7580    2.9260 C.2    76  TRP76       0.2595
     87  O         22.9010   -6.6060    1.7530 O.2    76  TRP76      -0.2718
     88  CB        25.7680   -7.0810    2.7090 C.3    76  TRP76       0.0564
     89  CG        25.6060   -8.6680    2.7220 C.ar   76  TRP76       0.0003
     90  CD1       24.4430   -9.3840    2.3980 C.ar   76  TRP76       0.0946
     91  CD2       26.6130   -9.6850    3.0150 C.ar   76  TRP76       0.0152
     92  NE1       24.6840  -10.7360    2.4700 N.ar   76  TRP76      -0.2442
     93  CE2       25.9880  -10.9640    2.8390 C.ar   76  TRP76       0.0810
     94  CE3       27.9810   -9.6510    3.3450 C.ar   76  TRP76       0.0012
     95  CZ2       26.6890  -12.2110    3.0350 C.ar   76  TRP76       0.0191
     96  CZ3       28.6750  -10.9010    3.5070 C.ar   76  TRP76       0.0001
     97  CH2       28.0200  -12.1470    3.3720 C.ar   76  TRP76       0.0015
     98  N         22.3740   -7.3510    3.7860 N.am   77  GLN77      -0.1979
     99  CA        21.1060   -7.9420    3.3440 C.3    77  GLN77       0.1601
    100  C         19.9930   -6.9130    3.4060 C.2    77  GLN77       0.2287
    101  O         19.7750   -6.2350    4.4290 O.2    77  GLN77      -0.2864
    102  CB        20.6530   -9.1100    4.2440 C.3    77  GLN77       0.0394
    103  CG        21.3950  -10.4260    4.2320 C.3    77  GLN77       0.0908
    104  CD        20.8360  -11.3940    5.3010 C.2    77  GLN77       0.2608
    105  OE1       21.5810  -11.9500    6.1050 O.2    77  GLN77      -0.2717
    106  NE2       19.5250  -11.5960    5.2960 N.am   77  GLN77      -0.0878
    107  N         16.7710  -13.4930    4.0950 N.3    81  ILE81      -0.1245
    108  CA        17.0670  -14.3670    2.9720 C.3    81  ILE81       0.1561
    109  C         17.2700  -15.7080    3.6940 C.2    81  ILE81       0.2260
    110  O         17.4360  -15.7250    4.9430 O.2    81  ILE81      -0.2867
    111  CB        18.2590  -13.7910    1.9490 C.3    81  ILE81       0.0252
    112  CG1       17.8700  -13.8460    0.4500 C.3    81  ILE81       0.0019
    113  CG2       19.5670  -14.5030    1.9880 C.3    81  ILE81       0.0019
    114  CD1       16.6900  -12.8670    0.0440 C.3    81  ILE81       0.0001
    115  N         19.2440  -18.8310    4.8510 N.3    83  ALA83      -0.1231
    116  CA        20.6640  -19.0860    5.2630 C.3    83  ALA83       0.1679
    117  C         21.3160  -20.2100    4.5170 C.2    83  ALA83       0.2434
    118  O         20.8890  -21.3410    4.6520 O.2    83  ALA83      -0.2733
    119  CB        20.8480  -19.2580    6.8620 C.3    83  ALA83       0.0304
    120  N         22.3960  -19.9020    3.7390 N.am   84  PRO84      -0.2718
    121  CA        23.0580  -21.0400    3.0610 C.3    84  PRO84       0.1535
    122  C         23.8540  -21.8880    3.9770 C.2    84  PRO84       0.2599
    123  O         24.1680  -21.4990    5.1110 O.2    84  PRO84      -0.2715
    124  CB        24.0340  -20.3400    2.0530 C.3    84  PRO84       0.0310
    125  CG        24.1190  -18.8730    2.4370 C.3    84  PRO84       0.0237
    126  CD        23.0350  -18.5680    3.4180 C.3    84  PRO84       0.0939
    127  N         24.2880  -23.0350    3.5140 N.am   85  THR85      -0.1937
    128  CA        25.0100  -23.8860    4.4210 C.3    85  THR85       0.2028
    129  C         26.4520  -23.3560    4.5120 C.2    85  THR85       0.2642
    130  O         26.9630  -22.6950    3.6060 O.2    85  THR85      -0.2714
    131  CB        24.9310  -25.3270    4.0000 C.3    85  THR85       0.1808
    132  OG1       25.7470  -26.0990    4.8510 O.3    85  THR85      -0.2208
    133  CG2       25.4630  -25.4850    2.6650 C.3    85  THR85       0.0379
    134  N         27.0890  -23.5340    5.6490 N.am   86  VAL86      -0.1977
    135  CA        28.5030  -23.1700    5.7440 C.3    86  VAL86       0.1596
    136  C         29.2690  -24.3380    5.1380 C.2    86  VAL86       0.2287
    137  O         30.4570  -24.2300    4.8630 O.2    86  VAL86      -0.2864
    138  CB        28.9380  -22.8600    7.2630 C.3    86  VAL86       0.0276
    139  CG1       28.5010  -24.1170    8.1750 C.3    86  VAL86       0.0022
    140  CG2       30.4800  -22.5420    7.4260 C.3    86  VAL86       0.0022
    141  N         31.2210  -24.0120    1.9250 N.3    89  SER89      -0.1217
    142  CA        31.2110  -22.5780    1.5720 C.3    89  SER89       0.1889
    143  C         32.5690  -22.0660    1.1760 C.2    89  SER89       0.2288
    144  O         32.6720  -21.1330    0.3960 O.2    89  SER89      -0.2866
    145  CB        30.6060  -21.6180    2.6570 C.3    89  SER89       0.2089
    146  OG        31.2240  -21.8430    3.9520 O.3    89  SER89      -0.2183
    147  N         33.0800  -21.5700   -2.5970 N.3    92  ASN92      -0.1240
    148  CA        32.2940  -20.5930   -3.2810 C.3    92  ASN92       0.1653
    149  C         33.0150  -19.2800   -3.6030 C.2    92  ASN92       0.2266
    150  O         34.1930  -19.0710   -3.2500 O.2    92  ASN92      -0.2867
    151  CB        31.0590  -20.2560   -2.5180 C.3    92  ASN92       0.1155
    152  CG        29.9600  -21.2890   -2.6610 C.2    92  ASN92       0.2627
    153  OD1       30.1250  -22.3690   -3.2640 O.2    92  ASN92      -0.2716
    154  ND2       28.8440  -20.9820   -2.0340 N.am   92  ASN92      -0.0877
    155  N         30.5120  -16.1970   -3.9450 N.3    94  ALA94      -0.1301
    156  CA        29.0750  -15.7960   -3.5940 C.3    94  ALA94       0.1247
    157  C         28.9350  -14.8290   -2.2820 C.3    94  ALA94       0.2009
    158  O         27.8790  -14.7270   -1.5320 O.3    94  ALA94      -0.2188
    159  CB        28.1460  -17.0880   -3.4480 C.3    94  ALA94       0.0233
    160  N         31.7150  -12.3290    5.0950 N.3    98  PRO98      -0.2102
    161  CA        30.6930  -12.9060    5.9930 C.3    98  PRO98       0.1504
    162  C         30.8320  -12.6460    7.4680 C.2    98  PRO98       0.2575
    163  O         29.8510  -12.1700    8.0290 O.2    98  PRO98      -0.2718
    164  CB        30.7310  -14.3900    5.6620 C.3    98  PRO98       0.0282
    165  CG        31.1050  -14.3610    4.2110 C.3    98  PRO98       0.0208
    166  CD        32.2310  -13.3710    4.1810 C.3    98  PRO98       0.0893
    167  N         31.9870  -12.8950    8.1030 N.am   99  VAL99      -0.1980
    168  CA        32.1630  -12.5720    9.5520 C.3    99  VAL99       0.1595
    169  C         31.8960  -11.1030    9.8420 C.2    99  VAL99       0.2287
    170  O         31.0560  -10.7530   10.6480 O.2    99  VAL99      -0.2864
    171  CB        33.5110  -13.0330    9.9900 C.3    99  VAL99       0.0276
    172  CG1       33.8080  -12.7960   11.4270 C.3    99  VAL99       0.0022
    173  CG2       33.7270  -14.4680    9.5750 C.3    99  VAL99       0.0022
    174  N         28.3060   -9.9430    9.6340 N.3   102  SER102     -0.1202
    175  CA        27.5970  -10.5660   10.7390 C.3   102  SER102      0.2020
    176  C         27.8000   -9.7440   11.9780 C.2   102  SER102      0.2618
    177  O         26.8570   -9.2810   12.5870 O.2   102  SER102     -0.2717
    178  CB        28.0850  -11.9900   11.0000 C.3   102  SER102      0.2103
    179  OG        27.0230  -12.5630   11.7260 O.3   102  SER102     -0.2182
    180  N         29.0700   -9.5300   12.3170 N.am  103  VAL103     -0.1979
    181  CA        29.3980   -8.7480   13.4840 C.3   103  VAL103      0.1595
    182  C         28.8240   -7.3620   13.4810 C.2   103  VAL103      0.2287
    183  O         28.2370   -7.0030   14.4730 O.2   103  VAL103     -0.2864
    184  CB        30.8690   -8.8810   13.9260 C.3   103  VAL103      0.0276
    185  CG1       31.2130   -7.7410   14.7630 C.3   103  VAL103      0.0022
    186  CG2       31.0570  -10.1630   14.6900 C.3   103  VAL103      0.0022
    187  N         24.9360   -7.5530   14.3740 N.3   106  ASN106     -0.1240
    188  CA        24.5840   -7.8270   15.7900 C.3   106  ASN106      0.1653
    189  C         25.4130   -7.1440   16.8520 C.2   106  ASN106      0.2266
    190  O         25.1260   -7.3610   18.0440 O.2   106  ASN106     -0.2867
    191  CB        24.6600   -9.3250   16.0100 C.3   106  ASN106      0.1155
    192  CG        23.7830  -10.1080   14.9740 C.2   106  ASN106      0.2627
    193  OD1       22.6390   -9.6840   14.6680 O.2   106  ASN106     -0.2716
    194  ND2       24.3070  -11.2450   14.4530 N.am  106  ASN106     -0.0877
    195  N         38.1610  -17.5070   12.2310 N.3   146  ILE146     -0.1301
    196  CA        36.8740  -18.1380   11.8590 C.3   146  ILE146      0.1246
    197  C         36.9090  -18.7770   10.4150 C.3   146  ILE146      0.2009
    198  O         36.6380  -20.0240   10.2490 O.3   146  ILE146     -0.2188
    199  CB        35.6970  -17.2130   12.0070 C.3   146  ILE146      0.0202
    200  CG1       35.6110  -16.7120   13.4360 C.3   146  ILE146      0.0015
    201  CG2       34.3200  -17.9090   11.5420 C.3   146  ILE146      0.0016
    202  CD1       34.5120  -15.6750   13.6270 C.3   146  ILE146      0.0000
    203  N         36.1080  -22.4220    9.2260 N.3   150  GLU150     -0.1245
    204  CA        35.2070  -22.6670    8.1080 C.3   150  GLU150      0.1567
    205  C         35.8260  -23.5330    7.0050 C.2   150  GLU150      0.2260
    206  O         35.2250  -24.4970    6.5810 O.2   150  GLU150     -0.2867
    207  CB        34.7940  -21.3620    7.5660 C.3   150  GLU150      0.0388
    208  CG        33.6320  -20.7260    8.3660 C.3   150  GLU150      0.1160
    209  CD        33.2000  -19.3830    7.7500 C.2   150  GLU150      0.3649
    210  OE1       32.0820  -19.2210    7.2900 O.co2 150  GLU150     -0.2457
    211  OE2       34.0060  -18.4540    7.7220 O.co2 150  GLU150     -0.2457
    212  N         22.4720  -15.7660   -7.3140 N.3   227  ARG227     -0.1245
    213  CA        23.4900  -16.7650   -7.4850 C.3   227  ARG227      0.1563
    214  C         22.8440  -18.1250   -7.5940 C.2   227  ARG227      0.2260
    215  O         21.7600  -18.2720   -7.0850 O.2   227  ARG227     -0.2867
    216  CB        24.3440  -16.7120   -6.2800 C.3   227  ARG227      0.0307
    217  CG        25.5630  -17.6350   -6.2560 C.3   227  ARG227      0.0489
    218  CD        25.8310  -17.8980   -4.8260 C.3   227  ARG227      0.2205
    219  NE        24.6090  -18.4490   -4.2140 N.pl3 227  ARG227     -0.0865
    220  CZ        24.3820  -18.6120   -2.9060 C.cat 227  ARG227      0.5346
    221  NH1       25.3050  -18.2450   -1.9880 N.pl3 227  ARG227      0.1354
    222  NH2       23.2100  -19.1650   -2.5180 N.pl3 227  ARG227      0.1354
@<TRIPOS>BOND
     1   214   213    1
     2   214   215    2
     3   213   212    1
     4   213   216    1
     5   216   217    1
     6   217   218    1
     7   218   219    1
     8   219   220    2
     9   155   156    1
    10   149   148    1
    11   149   150    2
    12   156   159    1
    13   156   157    1
    14   148   147    1
    15   148   151    1
    16   153   152    2
    17   220   222    1
    18   220   221    1
    19   152   151    1
    20   152   154   am
    21   157   158    1
    22   114   112    1
    23   144   143    2
    24   112   111    1
    25   143   142    1
    26   142   141    1
    27   142   145    1
    28    87    86    2
    29   111   113    1
    30   111   108    1
    31   124   125    1
    32   124   121    1
    33    90    92   ar
    34    90    89   ar
    35   125   126    1
    36    92    93   ar
    37   145   146    1
    38   133   131    1
    39    88    89    1
    40    88    85    1
    41    89    91   ar
    42    93    91   ar
    43    93    95   ar
    44    86    85    1
    45    86    98   am
    46   108   109    1
    47   108   107    1
    48    91    94   ar
    49    95    97   ar
    50   121   120    1
    51   121   122    1
    52    99   100    1
    53    99    98    1
    54    99   102    1
    55    94    96   ar
    56    97    96   ar
    57   100   101    2
    58   126   120    1
    59    85    84    1
    60   127   122   am
    61   127   128    1
    62   130   129    2
    63   109   110    2
    64   120   117   am
    65   122   123    2
    66   131   128    1
    67   131   132    1
    68   166   165    1
    69   166   160    1
    70   165   164    1
    71   103   102    1
    72   103   104    1
    73   128   129    1
    74   129   134   am
    75   117   118    2
    76   117   116    1
    77   115   116    1
    78   137   136    2
    79   160   161    1
    80   136   135    1
    81   116   119    1
    82   106   104   am
    83   104   105    2
    84   134   135    1
    85   164   161    1
    86   135   138    1
    87   161   162    1
    88    78    79    1
    89    78    75    1
    90   206   205    2
    91    77    76    2
    92    60    59    2
    93    79    81   ar
    94    79    80   ar
    95   205   204    1
    96    76    75    1
    97    81    83   ar
    98    80    82   ar
    99   138   140    1
   100   138   139    1
   101   210   209   ar
   102    55    53   ar
   103    55    56   ar
   104    57    58    1
   105   162   163    2
   106   162   167   am
   107    75    74    1
   108    83    82   ar
   109   207   204    1
   110   207   208    1
   111   211   209   ar
   112   209   208    1
   113    53    52   ar
   114    59    58    1
   115    59    63   am
   116   167   168    1
   117   204   203    1
   118    74    72   am
   119    69    67    1
   120    56    54   ar
   121    68    67    1
   122    58    61    1
   123    62    61    1
   124    64    67    1
   125    64    63    1
   126    64    65    1
   127    70    65   am
   128    70    71    1
   129    52    54   ar
   130    52    51    1
   131    72    71    1
   132    72    73    2
   133    65    66    2
   134   168   169    1
   135   168   171    1
   136   173   171    1
   137   174   175    1
   138   169   170    2
   139    51    48    1
   140    44    43    2
   141   171   172    1
   142   198   197    1
   143   197   196    1
   144    48    49    1
   145    48    47    1
   146   175   178    1
   147   175   176    1
   148    43    47   am
   149    43    42    1
   150   178   179    1
   151    12    11    1
   152    45    42    1
   153    45    46    1
   154    49    50    2
   155     9    11   ar
   156     9     7   ar
   157   201   199    1
   158   196   199    1
   159   196   195    1
   160    42    41    1
   161    11    10   ar
   162   176   180   am
   163   176   177    2
   164   199   200    1
   165   180   181    1
   166     7     6   ar
   167    38    37    2
   168    39    40    1
   169    39    36    1
   170    10     8   ar
   171   200   202    1
   172   182   181    1
   173   182   183    2
   174   181   184    1
   175    37    36    1
   176     6     8   ar
   177     6     5    1
   178    36    35    1
   179   184   186    1
   180   184   185    1
   181   187   188    1
   182   194   192   am
   183     5     2    1
   184   193   192    2
   185   192   191    1
   186    35    31   am
   187    32    31    2
   188     2     1    1
   189     2     3    1
   190   188   191    1
   191   188   189    1
   192    31    30    1
   193     4     3    2
   194    19    18    1
   195    27    25    1
   196   189   190    2
   197    30    29    1
   198    30    33    1
   199    28    26    1
   200    25    26    1
   201    25    22    1
   202    34    33    1
   203    18    17    1
   204    18    20    1
   205    29    23   am
   206    17    14    1
   207    16    15    2
   208    23    24    2
   209    23    22    1
   210    22    21    1
   211    15    14    1
   212    14    13    1
