@<TRIPOS>MOLECULE
tmp/3hqdB01.pdb
 160 153 0 0 0
SMALL
GASTEIGER

@<TRIPOS>ATOM
      1  N         -6.0810    2.0620  -16.4670 N.3     8  ARG8       -0.1231
      2  CA        -5.1030    0.9930  -16.6250 C.3     8  ARG8        0.1694
      3  C         -5.3440    0.2430  -17.9360 C.2     8  ARG8        0.2592
      4  O         -6.3950   -0.3700  -18.1300 O.2     8  ARG8       -0.2718
      5  CB        -5.1680   -0.0020  -15.4640 C.3     8  ARG8        0.0321
      6  CG        -4.0970   -1.0730  -15.5760 C.3     8  ARG8        0.0489
      7  CD        -4.1380   -2.1070  -14.4560 C.3     8  ARG8        0.2205
      8  NE        -2.9880   -3.0100  -14.5420 N.pl3   8  ARG8       -0.0865
      9  CZ        -2.7560   -4.0290  -13.7170 C.cat   8  ARG8        0.5346
     10  NH1       -3.5950   -4.3010  -12.7230 N.pl3   8  ARG8        0.1354
     11  NH2       -1.6700   -4.7770  -13.8840 N.pl3   8  ARG8        0.1354
     12  N         -4.3770    0.3080  -18.8420 N.am    9  CYS9       -0.1956
     13  CA        -4.5000   -0.4050  -20.1050 C.3     9  CYS9        0.1843
     14  C         -3.7440   -1.7140  -19.9380 C.2     9  CYS9        0.2625
     15  O         -2.5810   -1.7130  -19.5260 O.2     9  CYS9       -0.2714
     16  CB        -3.8860    0.4000  -21.2510 C.3     9  CYS9        0.0997
     17  SG        -4.1120   -0.3540  -22.8860 S.3     9  CYS9       -0.0797
     18  N         -4.4120   -2.8290  -20.2240 N.am   10  ARG10      -0.1964
     19  CA        -3.7780   -4.1330  -20.1100 C.3    10  ARG10       0.1714
     20  C         -3.0210   -4.3650  -21.4010 C.2    10  ARG10       0.2458
     21  O         -3.1860   -3.6230  -22.3720 O.2    10  ARG10      -0.2730
     22  CB        -4.8170   -5.2460  -19.9460 C.3    10  ARG10       0.0347
     23  CG        -5.7420   -5.4400  -21.1500 C.3    10  ARG10       0.0492
     24  CD        -6.3880   -6.8150  -21.1040 C.3    10  ARG10       0.2205
     25  NE        -7.4720   -7.0090  -22.0630 N.pl3  10  ARG10      -0.0865
     26  CZ        -7.3170   -7.1040  -23.3830 C.cat  10  ARG10       0.5346
     27  NH1       -6.1070   -7.0210  -23.9300 N.pl3  10  ARG10       0.1354
     28  NH2       -8.3800   -7.2910  -24.1580 N.pl3  10  ARG10       0.1354
     29  N         -2.1680   -5.3920  -21.4280 N.am   11  PRO11      -0.2727
     30  CA        -1.4180   -5.6670  -22.6550 C.3    11  PRO11       0.1402
     31  C         -2.3200   -6.3920  -23.6480 C.2    11  PRO11       0.2269
     32  O         -3.4190   -6.8310  -23.2920 O.2    11  PRO11      -0.2865
     33  CB        -0.2720   -6.5490  -22.1640 C.3    11  PRO11       0.0296
     34  CG        -0.8860   -7.2880  -21.0270 C.3    11  PRO11       0.0237
     35  CD        -1.6700   -6.2070  -20.3070 C.3    11  PRO11       0.0939
     36  N         -3.8900   -9.2990  -25.7670 N.3    13  ASN13      -0.1240
     37  CA        -4.0610  -10.7010  -25.4050 C.3    13  ASN13       0.1653
     38  C         -3.8460  -11.4540  -26.7110 C.2    13  ASN13       0.2266
     39  O         -3.7650  -10.8330  -27.7700 O.2    13  ASN13      -0.2867
     40  CB        -5.4620  -10.9810  -24.8490 C.3    13  ASN13       0.1155
     41  CG        -6.5650  -10.6390  -25.8280 C.2    13  ASN13       0.2627
     42  OD1       -6.4530  -10.8870  -27.0360 O.2    13  ASN13      -0.2716
     43  ND2       -7.6550  -10.0820  -25.3090 N.am   13  ASN13      -0.0877
     44  N          0.3320   -0.7340  -20.4270 N.3    58  ALA58      -0.1245
     45  CA         0.4010   -2.1910  -20.4320 C.3    58  ALA58       0.1562
     46  C          1.5300   -2.8090  -19.6070 C.2    58  ALA58       0.2260
     47  O          1.4390   -3.9660  -19.2160 O.2    58  ALA58      -0.2867
     48  CB         0.4890   -2.6870  -21.8700 C.3    58  ALA58       0.0290
     49  N          2.4820   -1.8610  -16.5950 N.3    60  THR60      -0.1218
     50  CA         2.2240   -1.7150  -15.1620 C.3    60  THR60       0.1862
     51  C          1.9510   -3.0380  -14.4500 C.2    60  THR60       0.2287
     52  O          1.0550   -3.7870  -14.8330 O.2    60  THR60      -0.2866
     53  CB         1.0300   -0.7750  -14.9090 C.3    60  THR60       0.1770
     54  OG1        1.3340    0.5250  -15.4220 O.3    60  THR60      -0.2211
     55  CG2        0.7390   -0.6610  -13.4170 C.3    60  THR60       0.0375
     56  N        -15.8440   -5.7820  -20.8740 N.3    91  THR91      -0.1203
     57  CA       -15.5910   -7.1580  -20.4840 C.3    91  THR91       0.1994
     58  C        -14.2100   -7.5950  -20.9570 C.2    91  THR91       0.2618
     59  O        -13.8060   -7.2780  -22.0810 O.2    91  THR91      -0.2717
     60  CB       -16.6290   -8.1140  -21.0990 C.3    91  THR91       0.1784
     61  OG1      -16.2260   -9.4640  -20.8620 O.3    91  THR91      -0.2211
     62  CG2      -16.7410   -7.8970  -22.6090 C.3    91  THR91       0.0376
     63  N        -13.4880   -8.2990  -20.0830 N.am   92  GLY92      -0.1956
     64  CA       -12.1680   -8.8260  -20.4120 C.3    92  GLY92       0.1869
     65  C        -10.9870   -7.8750  -20.3990 C.2    92  GLY92       0.2309
     66  O         -9.8700   -8.2550  -20.7560 O.2    92  GLY92      -0.2863
     67  N         -9.6620   -6.4180  -17.6710 N.3    94  GLY94      -0.1210
     68  CA        -8.8240   -6.4550  -16.4810 C.3    94  GLY94       0.1956
     69  C         -9.3550   -6.0810  -15.1070 C.2    94  GLY94       0.2612
     70  O         -8.5610   -5.8730  -14.1860 O.2    94  GLY94      -0.2717
     71  N        -10.6680   -5.9910  -14.9470 N.am   95  LYS95      -0.1965
     72  CA       -11.2470   -5.6280  -13.6550 C.3    95  LYS95       0.1728
     73  C        -10.9550   -6.6370  -12.5590 C.2    95  LYS95       0.2617
     74  O        -10.4500   -6.2880  -11.4940 O.2    95  LYS95      -0.2715
     75  CB       -12.7520   -5.4510  -13.7920 C.3    95  LYS95       0.0311
     76  CG       -13.1390   -4.2100  -14.5780 C.3    95  LYS95       0.0038
     77  CD       -14.6260   -4.1600  -14.8060 C.3    95  LYS95       0.0206
     78  CE       -15.0900   -5.4140  -15.5470 C.3    95  LYS95       0.1093
     79  NZ       -14.6110   -5.4360  -16.9630 N.3    95  LYS95      -0.1314
     80  N        -11.2850   -7.8930  -12.8170 N.am   96  THR96      -0.1937
     81  CA       -11.0520   -8.9540  -11.8500 C.3    96  THR96       0.2028
     82  C         -9.5660   -9.1870  -11.6360 C.2    96  THR96       0.2642
     83  O         -9.1190   -9.3930  -10.5080 O.2    96  THR96      -0.2714
     84  CB       -11.7070  -10.2480  -12.3100 C.3    96  THR96       0.1808
     85  OG1      -13.1250  -10.0640  -12.2930 O.3    96  THR96      -0.2208
     86  CG2      -11.3370  -11.4100  -11.3810 C.3    96  THR96       0.0379
     87  N         -8.8000   -9.1450  -12.7190 N.am   97  PHE97      -0.1959
     88  CA        -7.3630   -9.3370  -12.6270 C.3    97  PHE97       0.1771
     89  C         -6.7540   -8.2620  -11.7310 C.2    97  PHE97       0.2620
     90  O         -5.8540   -8.5440  -10.9510 O.2    97  PHE97      -0.2715
     91  CB        -6.7360   -9.2990  -14.0280 C.3    97  PHE97       0.0574
     92  CG        -5.2360   -9.3990  -14.0240 C.ar   97  PHE97      -0.0200
     93  CD1       -4.4450   -8.2550  -13.9460 C.ar   97  PHE97      -0.0042
     94  CD2       -4.6120  -10.6410  -14.0540 C.ar   97  PHE97      -0.0042
     95  CE1       -3.0490   -8.3460  -13.8850 C.ar   97  PHE97      -0.0003
     96  CE2       -3.2190  -10.7450  -13.9930 C.ar   97  PHE97      -0.0003
     97  CZ        -2.4380   -9.5950  -13.9110 C.ar   97  PHE97      -0.0000
     98  N         -7.2630   -7.0350  -11.8320 N.am   98  THR98      -0.1951
     99  CA        -6.7600   -5.9160  -11.0330 C.3    98  THR98       0.1897
    100  C         -7.2400   -5.9380   -9.5800 C.2    98  THR98       0.2313
    101  O         -6.4540   -5.7340   -8.6540 O.2    98  THR98      -0.2863
    102  CB        -7.1660   -4.5610  -11.6640 C.3    98  THR98       0.1794
    103  OG1       -6.4570   -4.3810  -12.8940 O.3    98  THR98      -0.2208
    104  CG2       -6.8570   -3.3970  -10.7140 C.3    98  THR98       0.0378
    105  N         -4.3180  -13.0550   -9.6370 N.3   102  GLU102     -0.1245
    106  CA        -4.1980  -14.5010   -9.7720 C.3   102  GLU102      0.1567
    107  C         -2.9280  -15.0000   -9.0830 C.2   102  GLU102      0.2260
    108  O         -2.1460  -14.2060   -8.5560 O.2   102  GLU102     -0.2867
    109  CB        -4.1590  -14.8840  -11.2570 C.3   102  GLU102      0.0388
    110  CG        -5.1500  -14.1260  -12.1260 C.3   102  GLU102      0.1160
    111  CD        -4.9780  -14.4180  -13.6080 C.2   102  GLU102      0.3649
    112  OE1       -3.8210  -14.5520  -14.0560 O.co2 102  GLU102     -0.2457
    113  OE2       -5.9980  -14.4970  -14.3280 O.co2 102  GLU102     -0.2457
    114  N        -14.6480  -13.3840  -22.7760 N.3   213  ASN213     -0.1240
    115  CA       -13.8970  -13.7280  -21.5760 C.3   213  ASN213      0.1653
    116  C        -14.3170  -15.1010  -21.0670 C.2   213  ASN213      0.2266
    117  O        -15.4610  -15.3030  -20.6640 O.2   213  ASN213     -0.2867
    118  CB       -14.1490  -12.6660  -20.5000 C.3   213  ASN213      0.1155
    119  CG       -13.1730  -12.7550  -19.3360 C.2   213  ASN213      0.2627
    120  OD1      -12.3590  -13.6760  -19.2560 O.2   213  ASN213     -0.2716
    121  ND2      -13.2560  -11.7910  -18.4250 N.am  213  ASN213     -0.0877
    122  N        -13.5500  -16.3830  -18.4350 N.3   215  TYR215     -0.1227
    123  CA       -13.8440  -16.2560  -17.0080 C.3   215  TYR215      0.1736
    124  C        -14.4640  -14.9030  -16.6830 C.2   215  TYR215      0.2596
    125  O        -13.9830  -14.1760  -15.8190 O.2   215  TYR215     -0.2718
    126  CB       -12.5710  -16.4740  -16.1920 C.3   215  TYR215      0.0548
    127  CG       -12.2010  -17.9350  -16.0990 C.ar  215  TYR215     -0.0200
    128  CD1      -12.9430  -18.8080  -15.2990 C.ar  215  TYR215     -0.0009
    129  CD2      -11.1580  -18.4580  -16.8580 C.ar  215  TYR215     -0.0009
    130  CE1      -12.6550  -20.1730  -15.2600 C.ar  215  TYR215      0.0417
    131  CE2      -10.8620  -19.8180  -16.8300 C.ar  215  TYR215      0.0417
    132  CZ       -11.6140  -20.6710  -16.0300 C.ar  215  TYR215      0.1957
    133  OH       -11.3330  -22.0210  -16.0070 O.3   215  TYR215     -0.2866
    134  N        -15.5450  -14.5890  -17.3880 N.am  216  SER216     -0.1938
    135  CA       -16.2610  -13.3310  -17.2360 C.3   216  SER216      0.2055
    136  C        -17.0360  -13.2630  -15.9330 C.2   216  SER216      0.2644
    137  O        -17.5780  -14.2710  -15.4660 O.2   216  SER216     -0.2714
    138  CB       -17.2340  -13.1450  -18.4100 C.3   216  SER216      0.2130
    139  OG       -17.9360  -11.9110  -18.3410 O.3   216  SER216     -0.2179
    140  N        -17.0800  -12.0740  -15.3410 N.am  217  SER217     -0.1935
    141  CA       -17.8290  -11.8890  -14.1070 C.3   217  SER217      0.2055
    142  C        -19.2510  -11.5840  -14.5150 C.2   217  SER217      0.2642
    143  O        -19.5000  -10.6350  -15.2530 O.2   217  SER217     -0.2714
    144  CB       -17.2740  -10.7270  -13.2860 C.3   217  SER217      0.2130
    145  OG       -16.0710  -11.0980  -12.6470 O.3   217  SER217     -0.2179
    146  N        -20.1790  -12.3960  -14.0330 N.am  218  ARG218     -0.1977
    147  CA       -21.5800  -12.2270  -14.3650 C.3   218  ARG218      0.1597
    148  C        -22.3070  -11.4300  -13.2890 C.2   218  ARG218      0.2287
    149  O        -23.5400  -11.4360  -13.2170 O.2   218  ARG218     -0.2864
    150  CB       -22.2090  -13.6060  -14.5280 C.3   218  ARG218      0.0334
    151  CG       -21.5030  -14.4630  -15.5670 C.3   218  ARG218      0.0492
    152  CD       -21.9710  -14.1050  -16.9680 C.3   218  ARG218      0.2205
    153  NE       -21.0910  -13.1880  -17.6680 N.pl3 218  ARG218     -0.0865
    154  CZ       -21.4070  -12.5730  -18.8050 C.cat 218  ARG218      0.5346
    155  NH1      -22.5930  -12.7670  -19.3710 N.pl3 218  ARG218      0.1354
    156  NH2      -20.5230  -11.7790  -19.3850 N.pl3 218  ARG218      0.1354
    157  N        -18.6960   -6.0330  -16.5750 N.3   252  GLY252     -0.1225
    158  CA       -18.3930   -5.0520  -17.6060 C.3   252  GLY252      0.1811
    159  C        -19.3170   -4.9920  -18.8050 C.2   252  GLY252      0.2280
    160  O        -20.0000   -5.9640  -19.1230 O.2   252  GLY252     -0.2866
@<TRIPOS>BOND
     1    39    38    2
     2    42    41    2
     3    38    37    1
     4    41    43   am
     5    41    40    1
     6    36    37    1
     7    37    40    1
     8    28    26    1
     9    27    26    1
    10    31    32    2
    11    31    30    1
    12    26    25    2
    13    17    16    1
    14   114   115    1
    15    30    33    1
    16    30    29    1
    17    62    60    1
    18    21    20    2
    19    33    34    1
    20    59    58    2
    21    25    24    1
    22    48    45    1
    23   115   116    1
    24   115   118    1
    25    29    20   am
    26    29    35    1
    27    20    19    1
    28    16    13    1
    29    23    24    1
    30    23    22    1
    31    60    61    1
    32    60    57    1
    33   116   117    2
    34    34    35    1
    35    58    57    1
    36    58    63   am
    37    56    57    1
    38    66    65    2
    39   118   119    1
    40    45    44    1
    41    45    46    1
    42    64    65    1
    43    64    63    1
    44    18    19    1
    45    18    14   am
    46    19    22    1
    47    13    14    1
    48    13    12    1
    49    14    15    2
    50    46    47    2
    51   156   154    1
    52   155   154    1
    53   119   120    2
    54   119   121   am
    55   160   159    2
    56    12     3   am
    57   159   158    1
    58   154   153    2
    59   122   123    1
    60   138   139    1
    61   138   135    1
    62     4     3    2
    63     3     2    1
    64    67    68    1
    65   153   152    1
    66   158   157    1
    67   134   135    1
    68   134   124   am
    69   135   136    1
    70   123   124    1
    71   123   126    1
    72   152   151    1
    73    79    78    1
    74   129   131   ar
    75   129   127   ar
    76   131   132   ar
    77   124   125    2
    78     2     1    1
    79     2     5    1
    80    49    50    1
    81    68    69    1
    82   126   127    1
    83   127   128   ar
    84   132   133    1
    85   132   130   ar
    86   136   137    2
    87   136   140   am
    88     6     5    1
    89     6     7    1
    90   151   150    1
    91    78    77    1
    92    54    53    1
    93   140   141    1
    94   128   130   ar
    95   143   142    2
    96    50    53    1
    97    50    51    1
    98    69    71   am
    99    69    70    2
   100    71    72    1
   101    53    55    1
   102    52    51    2
   103    77    76    1
   104    76    75    1
   105     8     7    1
   106     8     9    2
   107   150   147    1
   108   142   141    1
   109   142   146   am
   110   147   146    1
   111   147   148    1
   112   113   111   ar
   113   141   144    1
   114   112   111   ar
   115    94    92   ar
   116    94    96   ar
   117    91    92    1
   118    91    88    1
   119    92    93   ar
   120    96    97   ar
   121    93    95   ar
   122    97    95   ar
   123    11     9    1
   124    75    72    1
   125     9    10    1
   126    72    73    1
   127   111   110    1
   128   148   149    2
   129   144   145    1
   130   103   102    1
   131    80    73   am
   132    80    81    1
   133    87    88    1
   134    87    82   am
   135    88    89    1
   136    73    74    2
   137    84    85    1
   138    84    81    1
   139    84    86    1
   140   110   109    1
   141    81    82    1
   142    98    89   am
   143    98    99    1
   144    89    90    2
   145   102    99    1
   146   102   104    1
   147    82    83    2
   148   109   106    1
   149    99   100    1
   150   106   105    1
   151   106   107    1
   152   100   101    2
   153   107   108    2
