@<TRIPOS>MOLECULE
tmp/3hqhA00.pdb
 148 146 0 0 0
SMALL
GASTEIGER

@<TRIPOS>ATOM
      1  N         -8.5530   19.4170   -6.2330 N.3    41  ARG41      -0.1245
      2  CA        -8.3370   19.0550   -4.8340 C.3    41  ARG41       0.1563
      3  C         -9.1540   17.8130   -4.4980 C.2    41  ARG41       0.2260
      4  O        -10.3730   17.7860   -4.6820 O.2    41  ARG41      -0.2867
      5  CB        -8.7500   20.2060   -3.9150 C.3    41  ARG41       0.0307
      6  CG        -8.8740   19.8190   -2.4490 C.3    41  ARG41       0.0489
      7  CD        -9.9500   20.6670   -1.7680 C.3    41  ARG41       0.2205
      8  NE       -10.3640   20.1150   -0.4810 N.pl3  41  ARG41      -0.0865
      9  CZ        -9.6620   20.2230    0.6410 C.cat  41  ARG41       0.5346
     10  NH1       -8.5030   20.8740    0.6380 N.pl3  41  ARG41       0.1354
     11  NH2      -10.1090   19.6710    1.7650 N.pl3  41  ARG41       0.1354
     12  N         -9.9800   14.5540   -1.6200 N.3    43  ASN43      -0.1240
     13  CA        -9.9350   14.0430   -0.2610 C.3    43  ASN43       0.1653
     14  C        -10.2090   12.5660   -0.5370 C.2    43  ASN43       0.2266
     15  O        -11.3610   12.1610   -0.7260 O.2    43  ASN43      -0.2867
     16  CB       -11.0390   14.6410    0.6200 C.3    43  ASN43       0.1155
     17  CG       -10.9290   16.1520    0.7470 C.2    43  ASN43       0.2627
     18  OD1       -9.8310   16.7070    0.7080 O.2    43  ASN43      -0.2716
     19  ND2      -12.0650   16.8220    0.9180 N.am   43  ASN43      -0.0877
     20  N        -12.8840   18.4580   -5.7690 N.3    58  TYR58      -0.1241
     21  CA       -13.1980   19.8820   -5.8480 C.3    58  TYR58       0.1605
     22  C        -12.3150   20.5990   -6.8530 C.2    58  TYR58       0.2264
     23  O        -11.2080   20.1460   -7.1610 O.2    58  TYR58      -0.2867
     24  CB       -12.9830   20.5510   -4.4820 C.3    58  TYR58       0.0534
     25  CG       -13.9160   20.0700   -3.4040 C.ar   58  TYR58      -0.0201
     26  CD1      -15.1750   20.6460   -3.2420 C.ar   58  TYR58      -0.0009
     27  CD2      -13.5570   19.0120   -2.5680 C.ar   58  TYR58      -0.0009
     28  CE1      -16.0580   20.1860   -2.2740 C.ar   58  TYR58       0.0417
     29  CE2      -14.4390   18.5360   -1.5900 C.ar   58  TYR58       0.0417
     30  CZ       -15.6900   19.1260   -1.4550 C.ar   58  TYR58       0.1957
     31  OH       -16.5840   18.6430   -0.5250 O.3    58  TYR58      -0.2866
     32  N        -18.3190   23.4230  -14.0630 N.3    71  PHE71      -0.1241
     33  CA       -17.2980   22.3850  -14.1430 C.3    71  PHE71       0.1605
     34  C        -17.9220   21.0060  -14.2280 C.2    71  PHE71       0.2264
     35  O        -19.0890   20.8100  -13.8750 O.2    71  PHE71      -0.2867
     36  CB       -16.3560   22.4390  -12.9300 C.3    71  PHE71       0.0534
     37  CG       -17.0780   22.5710  -11.6140 C.ar   71  PHE71      -0.0203
     38  CD1      -17.4860   23.8260  -11.1540 C.ar   71  PHE71      -0.0042
     39  CD2      -17.4120   21.4410  -10.8700 C.ar   71  PHE71      -0.0042
     40  CE1      -18.2360   23.9540   -9.9780 C.ar   71  PHE71      -0.0003
     41  CE2      -18.1680   21.5560   -9.6880 C.ar   71  PHE71      -0.0003
     42  CZ       -18.5740   22.8260   -9.2430 C.ar   71  PHE71      -0.0000
     43  N        -19.7360   13.8040  -13.2580 N.3    86  MET86      -0.1230
     44  CA       -20.5640   14.6080  -12.3750 C.3    86  MET86       0.1702
     45  C        -20.2880   16.0610  -12.7640 C.2    86  MET86       0.2592
     46  O        -19.1410   16.5240  -12.7240 O.2    86  MET86      -0.2718
     47  CB       -20.1810   14.3390  -10.9140 C.3    86  MET86       0.0401
     48  CG       -21.2500   14.7160   -9.8870 C.3    86  MET86       0.0596
     49  SD       -20.9570   14.0620   -8.1980 S.3    86  MET86      -0.1393
     50  CE       -21.5030   12.3400   -8.4060 C.3    86  MET86       0.0692
     51  N        -21.3420   16.7650  -13.1600 N.am   87  GLU87      -0.1966
     52  CA       -21.2310   18.1520  -13.5880 C.3    87  GLU87       0.1733
     53  C        -22.1380   19.1000  -12.8040 C.2    87  GLU87       0.2617
     54  O        -23.2480   18.7360  -12.4140 O.2    87  GLU87      -0.2715
     55  CB       -21.5500   18.2400  -15.0910 C.3    87  GLU87       0.0429
     56  CG       -22.6250   19.2490  -15.4700 C.3    87  GLU87       0.1163
     57  CD       -23.0470   19.1540  -16.9310 C.2    87  GLU87       0.3649
     58  OE1      -24.0260   19.8400  -17.3120 O.co2  87  GLU87      -0.2457
     59  OE2      -22.4020   18.3960  -17.6960 O.co2  87  GLU87      -0.2457
     60  N        -21.6610   20.3190  -12.5790 N.am   88  SER88      -0.1936
     61  CA       -22.4600   21.3090  -11.8690 C.3    88  SER88       0.2055
     62  C        -23.5600   21.7790  -12.8100 C.2    88  SER88       0.2642
     63  O        -23.3170   22.0220  -13.9940 O.2    88  SER88      -0.2714
     64  CB       -21.6100   22.5160  -11.4610 C.3    88  SER88       0.2130
     65  OG       -21.2520   23.2850  -12.5960 O.3    88  SER88      -0.2179
     66  N        -24.7730   21.8950  -12.2890 N.am   89  GLN89      -0.1976
     67  CA       -25.8930   22.3550  -13.1100 C.3    89  GLN89       0.1601
     68  C        -25.6130   23.7760  -13.5930 C.2    89  GLN89       0.2287
     69  O        -25.6550   24.0580  -14.7940 O.2    89  GLN89      -0.2864
     70  CB       -27.1970   22.3250  -12.3010 C.3    89  GLN89       0.0394
     71  CG       -26.9970   22.0470  -10.8030 C.3    89  GLN89       0.0908
     72  CD       -28.2950   22.0360   -9.9860 C.2    89  GLN89       0.2608
     73  OE1      -29.3800   22.3520  -10.4910 O.2    89  GLN89      -0.2717
     74  NE2      -28.1790   21.6740   -8.7070 N.am   89  GLN89      -0.0878
     75  N        -20.7680   28.6590  -10.5190 N.3    92  TYR92      -0.1241
     76  CA       -20.5900   29.0880   -9.1410 C.3    92  TYR92       0.1605
     77  C        -19.5460   30.1950   -9.0750 C.2    92  TYR92       0.2264
     78  O        -18.6780   30.3050   -9.9420 O.2    92  TYR92      -0.2867
     79  CB       -20.1720   27.9020   -8.2640 C.3    92  TYR92       0.0534
     80  CG       -21.3030   26.9260   -8.0480 C.ar   92  TYR92      -0.0201
     81  CD1      -22.2290   27.1180   -7.0210 C.ar   92  TYR92      -0.0009
     82  CD2      -21.5220   25.8800   -8.9430 C.ar   92  TYR92      -0.0009
     83  CE1      -23.3630   26.2980   -6.9060 C.ar   92  TYR92       0.0417
     84  CE2      -22.6510   25.0550   -8.8370 C.ar   92  TYR92       0.0417
     85  CZ       -23.5630   25.2680   -7.8200 C.ar   92  TYR92       0.1957
     86  OH       -24.6860   24.4670   -7.7340 O.3    92  TYR92      -0.2866
     87  N        -13.4490   32.7880   -5.8430 N.3    95  VAL95      -0.1245
     88  CA       -12.5480   33.8700   -5.4480 C.3    95  VAL95       0.1561
     89  C        -11.3180   33.0730   -5.0460 C.2    95  VAL95       0.2260
     90  O        -11.4190   31.8580   -4.8640 O.2    95  VAL95      -0.2867
     91  CB       -13.0630   34.6990   -4.2350 C.3    95  VAL95       0.0252
     92  CG1      -14.3600   35.4170   -4.6120 C.3    95  VAL95       0.0019
     93  CG2      -13.2410   33.8000   -3.0080 C.3    95  VAL95       0.0019
     94  N        -11.0530   29.6600   -2.9020 N.3    98  LYS98      -0.1231
     95  CA       -12.3900   29.0850   -2.8380 C.3    98  LYS98       0.1693
     96  C        -12.5150   27.8650   -3.7380 C.2    98  LYS98       0.2592
     97  O        -11.9790   27.8620   -4.8510 O.2    98  LYS98      -0.2718
     98  CB       -13.4050   30.1250   -3.2890 C.3    98  LYS98       0.0285
     99  CG       -14.8390   29.6040   -3.3600 C.3    98  LYS98       0.0035
    100  CD       -15.3570   29.2770   -1.9550 C.3    98  LYS98       0.0206
    101  CE       -16.8710   29.0280   -1.9750 C.3    98  LYS98       0.1093
    102  NZ       -17.4380   28.6770   -0.6260 N.3    98  LYS98      -0.1314
    103  N        -13.2060   26.8300   -3.2590 N.am   99  ASP99      -0.1960
    104  CA       -13.4200   25.6500   -4.0870 C.3    99  ASP99       0.1840
    105  C        -14.8920   25.2730   -4.1870 C.2    99  ASP99       0.2622
    106  O        -15.7260   25.6920   -3.3730 O.2    99  ASP99      -0.2715
    107  CB       -12.6110   24.4300   -3.5840 C.3    99  ASP99       0.1450
    108  CG       -13.0810   23.9060   -2.2390 C.2    99  ASP99       0.3671
    109  OD1      -14.3050   23.7320   -2.0450 O.co2  99  ASP99      -0.2456
    110  OD2      -12.2120   23.6450   -1.3790 O.co2  99  ASP99      -0.2456
    111  N        -15.2020   24.5030   -5.2210 N.am  100  TRP100     -0.1960
    112  CA       -16.5440   23.9920   -5.4480 C.3   100  TRP100      0.1771
    113  C        -16.3430   22.5910   -6.0080 C.2   100  TRP100      0.2620
    114  O        -15.3620   22.3450   -6.7120 O.2   100  TRP100     -0.2715
    115  CB       -17.3120   24.8710   -6.4410 C.3   100  TRP100      0.0590
    116  CG       -17.9290   26.0870   -5.8200 C.ar  100  TRP100      0.0006
    117  CD1      -17.5390   27.3830   -5.9910 C.ar  100  TRP100      0.0946
    118  CD2      -19.0680   26.1280   -4.9320 C.ar  100  TRP100      0.0152
    119  NE1      -18.3570   28.2260   -5.2650 N.ar  100  TRP100     -0.2442
    120  CE2      -19.2910   27.4780   -4.5980 C.ar  100  TRP100      0.0810
    121  CE3      -19.8930   25.1410   -4.3700 C.ar  100  TRP100      0.0012
    122  CZ2      -20.3340   27.8830   -3.7510 C.ar  100  TRP100      0.0191
    123  CZ3      -20.9360   25.5430   -3.5190 C.ar  100  TRP100      0.0001
    124  CH2      -21.1350   26.9030   -3.2090 C.ar  100  TRP100      0.0015
    125  N        -17.2520   21.6730   -5.6810 N.am  101  GLY101     -0.1940
    126  CA       -17.1240   20.3090   -6.1690 C.3   101  GLY101      0.2014
    127  C        -18.1940   19.3940   -5.6040 C.2   101  GLY101      0.2639
    128  O        -19.3100   19.8410   -5.3450 O.2   101  GLY101     -0.2714
    129  N        -17.8520   18.1190   -5.4180 N.am  102  PHE102     -0.1959
    130  CA       -18.7770   17.1140   -4.8870 C.3   102  PHE102      0.1771
    131  C        -18.0840   16.2540   -3.8160 C.2   102  PHE102      0.2619
    132  O        -17.1430   15.5020   -4.1100 O.2   102  PHE102     -0.2715
    133  CB       -19.2770   16.2240   -6.0300 C.3   102  PHE102      0.0574
    134  CG       -19.8450   16.9920   -7.1900 C.ar  102  PHE102     -0.0200
    135  CD1      -21.1140   17.5660   -7.1170 C.ar  102  PHE102     -0.0042
    136  CD2      -19.0850   17.1950   -8.3360 C.ar  102  PHE102     -0.0042
    137  CE1      -21.6180   18.3170   -8.1820 C.ar  102  PHE102     -0.0003
    138  CE2      -19.5810   17.9430   -9.4030 C.ar  102  PHE102     -0.0003
    139  CZ       -20.8440   18.5120   -9.3220 C.ar  102  PHE102     -0.0000
    140  N        -18.5480   16.3570   -2.5770 N.am  103  LYS103     -0.1977
    141  CA       -17.9360   15.5920   -1.4990 C.3   103  LYS103      0.1596
    142  C        -18.1760   14.1070   -1.7100 C.2   103  LYS103      0.2287
    143  O        -17.4030   13.2770   -1.2460 O.2   103  LYS103     -0.2864
    144  CB       -18.4800   16.0350   -0.1380 C.3   103  LYS103      0.0298
    145  CG       -19.9620   15.8110    0.0560 C.3   103  LYS103      0.0038
    146  CD       -20.3700   16.2820    1.4510 C.3   103  LYS103      0.0206
    147  CE       -21.7900   15.8720    1.7990 C.3   103  LYS103      0.1093
    148  NZ       -22.1310   16.3560    3.1730 N.3   103  LYS103     -0.1314
@<TRIPOS>BOND
     1    59    57   ar
     2    58    57   ar
     3    57    56    1
     4    56    55    1
     5    55    52    1
     6    69    68    2
     7    34    33    1
     8    34    35    2
     9    33    32    1
    10    33    36    1
    11    63    62    2
    12    68    67    1
    13    52    51    1
    14    52    53    1
    15    43    44    1
    16    51    45   am
    17    67    70    1
    18    67    66    1
    19    36    37    1
    20    62    66   am
    21    62    61    1
    22    53    60   am
    23    53    54    2
    24    45    46    2
    25    45    44    1
    26    65    64    1
    27    60    61    1
    28    44    47    1
    29    70    71    1
    30    61    64    1
    31    37    38   ar
    32    37    39   ar
    33    38    40   ar
    34    47    48    1
    35    39    41   ar
    36    71    72    1
    37    75    76    1
    38    73    72    2
    39    72    74   am
    40    40    42   ar
    41    78    77    2
    42    48    49    1
    43    41    42   ar
    44   138   139   ar
    45   138   136   ar
    46   139   137   ar
    47    76    77    1
    48    76    79    1
    49    82    84   ar
    50    82    80   ar
    51    84    85   ar
    52    50    49    1
    53   136   134   ar
    54    79    80    1
    55   137   135   ar
    56    80    81   ar
    57    85    86    1
    58    85    83   ar
    59   134   135   ar
    60   134   133    1
    61    23    22    2
    62    81    83   ar
    63    22    21    1
    64   114   113    2
    65   115   116    1
    66   115   112    1
    67     1     2    1
    68   126   125    1
    69   126   127    1
    70   133   130    1
    71   113   125   am
    72   113   112    1
    73   117   116   ar
    74   117   119   ar
    75    21    20    1
    76    21    24    1
    77    87    88    1
    78   116   118   ar
    79   127   129   am
    80   127   128    2
    81    88    89    1
    82    88    91    1
    83   112   111    1
    84   129   130    1
    85   119   120   ar
    86   111   105   am
    87    89    90    2
    88   118   120   ar
    89   118   121   ar
    90   130   131    1
    91    97    96    2
    92     2     3    1
    93     2     5    1
    94     4     3    2
    95    92    91    1
    96   120   122   ar
    97    24    25    1
    98   121   123   ar
    99    91    93    1
   100   105   104    1
   101   105   106    2
   102   132   131    2
   103   104   107    1
   104   104   103    1
   105     5     6    1
   106   131   140   am
   107   122   124   ar
   108    96   103   am
   109    96    95    1
   110   107   108    1
   111   123   124   ar
   112    25    26   ar
   113    25    27   ar
   114    99    98    1
   115    99   100    1
   116    98    95    1
   117    26    28   ar
   118    94    95    1
   119   140   141    1
   120    27    29   ar
   121     6     7    1
   122    28    30   ar
   123   108   109   ar
   124   108   110   ar
   125   101   100    1
   126   101   102    1
   127     7     8    1
   128   142   141    1
   129   142   143    2
   130    12    13    1
   131    29    30   ar
   132   141   144    1
   133    30    31    1
   134    15    14    2
   135    14    13    1
   136     8     9    2
   137    13    16    1
   138   144   145    1
   139   145   146    1
   140    16    17    1
   141    10     9    1
   142     9    11    1
   143    18    17    2
   144    17    19   am
   145   146   147    1
   146   147   148    1
