@<TRIPOS>MOLECULE
tmp/3hqiA00.pdb
 145 144 0 0 0
SMALL
GASTEIGER

@<TRIPOS>ATOM
      1  N        -51.9030   66.1830    1.6270 N.3    43  ARG43      -0.1245
      2  CA       -51.4130   67.5310    1.8510 C.3    43  ARG43       0.1563
      3  C        -52.5520   68.4430    2.2470 C.2    43  ARG43       0.2260
      4  O        -53.5670   68.5080    1.5460 O.2    43  ARG43      -0.2867
      5  CB       -50.8350   68.0930    0.5650 C.3    43  ARG43       0.0307
      6  CG       -49.3740   67.9350    0.3660 C.3    43  ARG43       0.0489
      7  CD       -48.9980   68.8170   -0.7990 C.3    43  ARG43       0.2205
      8  NE       -49.7040   70.0940   -0.7080 N.pl3  43  ARG43      -0.0865
      9  CZ       -49.2900   71.2200   -1.2780 C.cat  43  ARG43       0.5346
     10  NH1      -48.1680   71.2340   -1.9840 N.pl3  43  ARG43       0.1354
     11  NH2      -49.9930   72.3340   -1.1320 N.pl3  43  ARG43       0.1354
     12  N        -54.2080   78.7210    0.2000 N.3    49  LEU49      -0.1245
     13  CA       -52.9990   79.2050   -0.4880 C.3    49  LEU49       0.1561
     14  C        -53.2540   80.6200   -1.0150 C.2    49  LEU49       0.2260
     15  O        -52.7380   81.6010   -0.4910 O.2    49  LEU49      -0.2867
     16  CB       -52.6490   78.3200   -1.6860 C.3    49  LEU49       0.0270
     17  CG       -52.6050   76.7950   -1.6040 C.3    49  LEU49       0.0019
     18  CD1      -53.9610   76.2760   -1.2140 C.3    49  LEU49       0.0001
     19  CD2      -52.1960   76.2260   -2.9510 C.3    49  LEU49       0.0001
     20  N        -54.9320   67.9100   -0.7960 N.3    58  TYR58      -0.1241
     21  CA       -54.4160   67.3250   -2.0430 C.3    58  TYR58       0.1605
     22  C        -53.8480   65.9220   -1.8700 C.2    58  TYR58       0.2264
     23  O        -53.3280   65.5880   -0.8100 O.2    58  TYR58      -0.2867
     24  CB       -53.3050   68.2060   -2.6270 C.3    58  TYR58       0.0534
     25  CG       -53.7300   69.6110   -2.9450 C.ar   58  TYR58      -0.0201
     26  CD1      -54.3350   69.9220   -4.1640 C.ar   58  TYR58      -0.0009
     27  CD2      -53.5710   70.6240   -2.0080 C.ar   58  TYR58      -0.0009
     28  CE1      -54.7760   71.2180   -4.4360 C.ar   58  TYR58       0.0417
     29  CE2      -54.0060   71.9170   -2.2650 C.ar   58  TYR58       0.0417
     30  CZ       -54.6060   72.2160   -3.4770 C.ar   58  TYR58       0.1957
     31  OH       -55.0250   73.5150   -3.7200 O.3    58  TYR58      -0.2866
     32  N        -59.9500   59.9670   -6.9420 N.3    72  PHE72      -0.1241
     33  CA       -59.8570   60.0800   -5.4970 C.3    72  PHE72       0.1605
     34  C        -61.0820   60.7840   -4.9240 C.2    72  PHE72       0.2264
     35  O        -61.8100   61.4690   -5.6400 O.2    72  PHE72      -0.2867
     36  CB       -58.5750   60.8170   -5.0840 C.3    72  PHE72       0.0534
     37  CG       -58.4070   62.1520   -5.7240 C.ar   72  PHE72      -0.0203
     38  CD1      -57.8880   62.2590   -7.0030 C.ar   72  PHE72      -0.0042
     39  CD2      -58.8050   63.3030   -5.0650 C.ar   72  PHE72      -0.0042
     40  CE1      -57.7680   63.4970   -7.6260 C.ar   72  PHE72      -0.0003
     41  CE2      -58.6930   64.5570   -5.6760 C.ar   72  PHE72      -0.0003
     42  CZ       -58.1730   64.6520   -6.9620 C.ar   72  PHE72      -0.0000
     43  N        -66.0040   65.2040   -1.2020 N.3    87  MET87      -0.1230
     44  CA       -65.7350   65.9030   -2.4460 C.3    87  MET87       0.1702
     45  C        -64.8450   64.9440   -3.2240 C.2    87  MET87       0.2592
     46  O        -63.8170   64.5000   -2.7160 O.2    87  MET87      -0.2718
     47  CB       -65.0050   67.2080   -2.1530 C.3    87  MET87       0.0401
     48  CG       -64.9510   68.1760   -3.3060 C.3    87  MET87       0.0596
     49  SD       -64.5720   69.8420   -2.7080 S.3    87  MET87      -0.1393
     50  CE       -66.1670   70.3460   -2.0670 C.3    87  MET87       0.0692
     51  N        -65.2490   64.6010   -4.4400 N.am   88  GLU88      -0.1966
     52  CA       -64.4730   63.6660   -5.2460 C.3    88  GLU88       0.1733
     53  C        -64.2100   64.1480   -6.6710 C.2    88  GLU88       0.2617
     54  O        -64.9610   64.9590   -7.2230 O.2    88  GLU88      -0.2715
     55  CB       -65.1850   62.3070   -5.2870 C.3    88  GLU88       0.0429
     56  CG       -66.5430   62.3470   -5.9640 C.3    88  GLU88       0.1163
     57  CD       -67.4370   61.1840   -5.5650 C.2    88  GLU88       0.3649
     58  OE1      -67.8080   61.1030   -4.3690 O.co2  88  GLU88      -0.2457
     59  OE2      -67.7700   60.3520   -6.4410 O.co2  88  GLU88      -0.2457
     60  N        -63.1290   63.6400   -7.2540 N.am   89  SER89      -0.1936
     61  CA       -62.7590   63.9820   -8.6140 C.3    89  SER89       0.2055
     62  C        -63.7400   63.3350   -9.5860 C.2    89  SER89       0.2642
     63  O        -64.1200   62.1760   -9.4350 O.2    89  SER89      -0.2714
     64  CB       -61.3430   63.5020   -8.8950 C.3    89  SER89       0.2130
     65  OG       -61.2290   62.1240   -8.6290 O.3    89  SER89      -0.2179
     66  N        -64.1600   64.0960  -10.5830 N.am   90  GLN90      -0.1976
     67  CA       -65.1050   63.5930  -11.5700 C.3    90  GLN90       0.1601
     68  C        -64.4920   62.4490  -12.3600 C.2    90  GLN90       0.2287
     69  O        -65.1850   61.5350  -12.7760 O.2    90  GLN90      -0.2864
     70  CB       -65.4960   64.7110  -12.5390 C.3    90  GLN90       0.0394
     71  CG       -66.1370   65.9160  -11.8790 C.3    90  GLN90       0.0908
     72  CD       -67.5420   65.6280  -11.4100 C.2    90  GLN90       0.2608
     73  OE1      -67.7690   64.7250  -10.5980 O.2    90  GLN90      -0.2717
     74  NE2      -68.5000   66.3940  -11.9200 N.am   90  GLN90      -0.0878
     75  N        -57.1780   61.3330  -12.5750 N.3    93  TYR93      -0.1241
     76  CA       -56.1700   62.2970  -12.9800 C.3    93  TYR93       0.1605
     77  C        -54.8180   61.6080  -13.1500 C.2    93  TYR93       0.2264
     78  O        -54.5420   60.5710  -12.5260 O.2    93  TYR93      -0.2867
     79  CB       -56.1000   63.4390  -11.9720 C.3    93  TYR93       0.0534
     80  CG       -57.1990   64.4340  -12.2120 C.ar   93  TYR93      -0.0201
     81  CD1      -56.9770   65.5590  -12.9930 C.ar   93  TYR93      -0.0009
     82  CD2      -58.4930   64.1950  -11.7520 C.ar   93  TYR93      -0.0009
     83  CE1      -58.0120   66.4200  -13.3230 C.ar   93  TYR93       0.0417
     84  CE2      -59.5410   65.0470  -12.0750 C.ar   93  TYR93       0.0417
     85  CZ       -59.2930   66.1570  -12.8660 C.ar   93  TYR93       0.1957
     86  OH       -60.3240   66.9880  -13.2280 O.3    93  TYR93      -0.2866
     87  N        -44.0750   63.4340   -7.5510 N.3    98  GLY98      -0.1210
     88  CA       -44.0820   64.8110   -7.0930 C.3    98  GLY98       0.1956
     89  C        -45.3160   65.6200   -7.4270 C.2    98  GLY98       0.2612
     90  O        -45.4960   66.7340   -6.9240 O.2    98  GLY98      -0.2717
     91  N        -46.1650   65.0670   -8.2810 N.am   99  LYS99      -0.1965
     92  CA       -47.3840   65.7410   -8.6930 C.3    99  LYS99       0.1728
     93  C        -48.4910   65.5240   -7.6720 C.2    99  LYS99       0.2616
     94  O        -48.5110   64.5070   -6.9770 O.2    99  LYS99      -0.2715
     95  CB       -47.8310   65.1790  -10.0410 C.3    99  LYS99       0.0311
     96  CG       -49.1480   65.7030  -10.5560 C.3    99  LYS99       0.0038
     97  CD       -49.0430   67.1710  -10.9060 C.3    99  LYS99       0.0206
     98  CE       -50.2550   67.6290  -11.7010 C.3    99  LYS99       0.1093
     99  NZ       -50.1310   69.0530  -12.0620 N.3    99  LYS99      -0.1314
    100  N        -49.4030   66.4880   -7.5700 N.am  100  ASP100     -0.1957
    101  CA       -50.5460   66.3590   -6.6710 C.3   100  ASP100      0.1840
    102  C        -51.7910   66.8340   -7.3970 C.2   100  ASP100      0.2622
    103  O        -51.7030   67.4570   -8.4540 O.2   100  ASP100     -0.2715
    104  CB       -50.3680   67.1630   -5.3810 C.3   100  ASP100      0.1450
    105  CG       -50.3300   68.6770   -5.6030 C.2   100  ASP100      0.3671
    106  OD1      -51.1070   69.2270   -6.4170 O.co2 100  ASP100     -0.2456
    107  OD2      -49.5200   69.3350   -4.9200 O.co2 100  ASP100     -0.2456
    108  N        -52.9430   66.5070   -6.8300 N.am  101  TRP101     -0.1960
    109  CA       -54.2400   66.9020   -7.3640 C.3   101  TRP101      0.1771
    110  C        -55.1390   66.9600   -6.1530 C.2   101  TRP101      0.2620
    111  O        -54.9990   66.1480   -5.2440 O.2   101  TRP101     -0.2715
    112  CB       -54.7960   65.8620   -8.3350 C.3   101  TRP101      0.0590
    113  CG       -54.1310   65.8310   -9.6780 C.ar  101  TRP101      0.0006
    114  CD1      -53.3330   64.8430  -10.1690 C.ar  101  TRP101      0.0946
    115  CD2      -54.2440   66.8120  -10.7170 C.ar  101  TRP101      0.0152
    116  NE1      -52.9430   65.1420  -11.4530 N.ar  101  TRP101     -0.2442
    117  CE2      -53.4880   66.3450  -11.8140 C.ar  101  TRP101      0.0810
    118  CE3      -54.9110   68.0400  -10.8280 C.ar  101  TRP101      0.0012
    119  CZ2      -53.3810   67.0590  -13.0100 C.ar  101  TRP101      0.0191
    120  CZ3      -54.8040   68.7540  -12.0200 C.ar  101  TRP101      0.0001
    121  CH2      -54.0440   68.2580  -13.0940 C.ar  101  TRP101      0.0015
    122  N        -56.0550   67.9170   -6.1250 N.am  102  GLY102     -0.1940
    123  CA       -56.9440   68.0260   -4.9840 C.3   102  GLY102      0.2014
    124  C        -57.9570   69.1360   -5.1120 C.2   102  GLY102      0.2639
    125  O        -58.4770   69.3890   -6.1960 O.2   102  GLY102     -0.2714
    126  N        -58.2290   69.8050   -4.0000 N.am  103  PHE103     -0.1959
    127  CA       -59.2000   70.8870   -3.9900 C.3   103  PHE103      0.1771
    128  C        -58.6620   72.0770   -3.2120 C.2   103  PHE103      0.2619
    129  O        -58.3500   71.9640   -2.0310 O.2   103  PHE103     -0.2715
    130  CB       -60.5080   70.4050   -3.3560 C.3   103  PHE103      0.0574
    131  CG       -61.0980   69.1920   -4.0190 C.ar  103  PHE103     -0.0200
    132  CD1      -61.8120   69.3080   -5.2060 C.ar  103  PHE103     -0.0042
    133  CD2      -60.9350   67.9320   -3.4500 C.ar  103  PHE103     -0.0042
    134  CE1      -62.3580   68.1900   -5.8180 C.ar  103  PHE103     -0.0003
    135  CE2      -61.4740   66.8070   -4.0500 C.ar  103  PHE103     -0.0003
    136  CZ       -62.1900   66.9330   -5.2390 C.ar  103  PHE103     -0.0000
    137  N        -58.5480   73.2170   -3.8830 N.am  104  LYS104     -0.1977
    138  CA       -58.0490   74.4150   -3.2390 C.3   104  LYS104      0.1596
    139  C        -59.0150   74.8290   -2.1430 C.2   104  LYS104      0.2287
    140  O        -58.5950   75.2580   -1.0780 O.2   104  LYS104     -0.2864
    141  CB       -57.8950   75.5560   -4.2530 C.3   104  LYS104      0.0298
    142  CG       -57.3790   76.8430   -3.6130 C.3   104  LYS104      0.0038
    143  CD       -57.4930   78.0750   -4.5100 C.3   104  LYS104      0.0206
    144  CE       -56.4010   78.1300   -5.5680 C.3   104  LYS104      0.1093
    145  NZ       -56.2990   79.5040   -6.1570 N.3   104  LYS104     -0.1314
@<TRIPOS>BOND
     1    83    81   ar
     2    83    85   ar
     3    86    85    1
     4    77    76    1
     5    77    78    2
     6   121   119   ar
     7   121   120   ar
     8   119   117   ar
     9    81    80   ar
    10    76    75    1
    11    76    79    1
    12    85    84   ar
    13    69    68    2
    14    70    71    1
    15    70    67    1
    16    68    67    1
    17    80    79    1
    18    80    82   ar
    19    84    82   ar
    20    99    98    1
    21   120   118   ar
    22    74    72   am
    23    71    72    1
    24   117   116   ar
    25   117   115   ar
    26    98    97    1
    27    67    66    1
    28   116   114   ar
    29    72    73    2
    30    97    96    1
    31   118   115   ar
    32   115   113   ar
    33    66    62   am
    34    96    95    1
    35   114   113   ar
    36    95    92    1
    37   113   112    1
    38    62    63    2
    39    62    61    1
    40    64    65    1
    41    64    61    1
    42    92    91    1
    43    92    93    1
    44    61    60    1
    45   103   102    2
    46   112   109    1
    47    91    89   am
    48    93   100   am
    49    93    94    2
    50    40    38   ar
    51    40    42   ar
    52   100   101    1
    53    87    88    1
    54    89    88    1
    55    89    90    2
    56   102   108   am
    57   102   101    1
    58   109   108    1
    59   109   110    1
    60    60    53   am
    61    54    53    2
    62    38    37   ar
    63    42    41   ar
    64    32    33    1
    65    53    52    1
    66   101   104    1
    67    59    57   ar
    68   106   105   ar
    69   125   124    2
    70   145   144    1
    71   110   122   am
    72   110   111    2
    73   122   123    1
    74    56    57    1
    75    56    55    1
    76   134   136   ar
    77   134   132   ar
    78    37    36    1
    79    37    39   ar
    80    41    39   ar
    81    35    34    2
    82   105   104    1
    83   105   107   ar
    84   144   143    1
    85    57    58   ar
    86    33    36    1
    87    33    34    1
    88    55    52    1
    89    52    51    1
    90   136   135   ar
    91   132   131   ar
    92   124   123    1
    93   124   126   am
    94   143   142    1
    95    51    45   am
    96    28    26   ar
    97    28    30   ar
    98   141   142    1
    99   141   138    1
   100    26    25   ar
   101   135   133   ar
   102   131   133   ar
   103   131   130    1
   104   126   127    1
   105   127   130    1
   106   127   128    1
   107   137   138    1
   108   137   128   am
   109    31    30    1
   110    30    29   ar
   111    48    49    1
   112    48    47    1
   113   138   139    1
   114    45    46    2
   115    45    44    1
   116   128   129    2
   117    19    17    1
   118    25    24    1
   119    25    27   ar
   120    49    50    1
   121    24    21    1
   122    44    47    1
   123    44    43    1
   124    29    27   ar
   125   139   140    2
   126    21    22    1
   127    21    20    1
   128    10     9    1
   129    22    23    2
   130    16    17    1
   131    16    13    1
   132    17    18    1
   133     9    11    1
   134     9     8    2
   135    14    15    2
   136    14    13    1
   137     7     8    1
   138     7     6    1
   139    13    12    1
   140     6     5    1
   141     5     2    1
   142     4     3    2
   143     1     2    1
   144     2     3    1
