@<TRIPOS>MOLECULE
tmp/3hqjA00.pdb
 109 109 0 0 0
SMALL
GASTEIGER

@<TRIPOS>ATOM
      1  N         16.3660   16.5250   -2.3520 N.3    36  HIS36      -0.1241
      2  CA        17.3130   17.5230   -1.8940 C.3    36  HIS36       0.1621
      3  C         16.6310   18.8230   -1.5510 C.2    36  HIS36       0.2264
      4  O         16.9670   19.4550   -0.5420 O.2    36  HIS36      -0.2867
      5  CB        18.4260   17.6490   -2.9460 C.3    36  HIS36       0.0745
      6  CG        19.1790   16.3630   -3.1040 C.ar   36  HIS36       0.0817
      7  ND1       18.9750   15.5080   -4.1650 N.ar   36  HIS36      -0.2268
      8  CD2       20.0150   15.7230   -2.2620 C.ar   36  HIS36       0.1154
      9  CE1       19.7130   14.4240   -4.0060 C.ar   36  HIS36       0.1986
     10  NE2       20.3440   14.5220   -2.8510 N.ar   36  HIS36      -0.2212
     11  N         14.6390   18.3840    1.7640 N.3    39  ALA39      -0.1231
     12  CA        15.4770   18.4790    2.9960 C.3    39  ALA39       0.1694
     13  C         15.9040   19.9280    3.2780 C.2    39  ALA39       0.2591
     14  O         16.0650   20.3370    4.4320 O.2    39  ALA39      -0.2718
     15  CB        16.7060   17.5220    2.9270 C.3    39  ALA39       0.0304
     16  N         16.1170   20.7020    2.2150 N.am   40  ARG40      -0.1980
     17  CA        16.3840   22.1350    2.3630 C.3    40  ARG40       0.1597
     18  C         15.1590   22.9110    2.8610 C.2    40  ARG40       0.2287
     19  O         15.2840   23.8200    3.6930 O.2    40  ARG40      -0.2864
     20  CB        16.9360   22.7160    1.0440 C.3    40  ARG40       0.0334
     21  CG        18.3860   22.2750    0.8580 C.3    40  ARG40       0.0492
     22  CD        18.8760   22.2160   -0.6260 C.3    40  ARG40       0.2205
     23  NE        20.2990   21.8470   -0.6340 N.pl3  40  ARG40      -0.0865
     24  CZ        20.7620   20.6220   -0.4160 C.cat  40  ARG40       0.5346
     25  NH1       19.9200   19.5900   -0.2550 N.pl3  40  ARG40       0.1354
     26  NH2       22.0730   20.4200   -0.3750 N.pl3  40  ARG40       0.1354
     27  N         26.2690   24.2400    0.8180 N.3    70  THR70      -0.1218
     28  CA        27.0610   23.0100    0.9960 C.3    70  THR70       0.1862
     29  C         28.5020   23.1940    0.5730 C.2    70  THR70       0.2287
     30  O         28.8000   23.9150   -0.3950 O.2    70  THR70      -0.2866
     31  CB        26.4860   21.7780    0.2470 C.3    70  THR70       0.1770
     32  OG1       26.4990   22.0430   -1.1590 O.3    70  THR70      -0.2211
     33  CG2       25.0550   21.4270    0.7380 C.3    70  THR70       0.0375
     34  N         32.3370   18.7170    0.0700 N.3    73  TRP73      -0.1227
     35  CA        32.0010   17.3980    0.5910 C.3    73  TRP73       0.1737
     36  C         30.5040   17.2380    0.9050 C.2    73  TRP73       0.2596
     37  O         30.0830   16.1880    1.4110 O.2    73  TRP73      -0.2718
     38  CB        32.8450   17.0980    1.8260 C.3    73  TRP73       0.0564
     39  CG        34.2980   17.1010    1.5160 C.ar   73  TRP73       0.0003
     40  CD1       35.0430   16.0400    1.1170 C.ar   73  TRP73       0.0946
     41  CD2       35.1780   18.2400    1.5220 C.ar   73  TRP73       0.0152
     42  NE1       36.3620   16.4360    0.9120 N.ar   73  TRP73      -0.2442
     43  CE2       36.4590   17.7820    1.1410 C.ar   73  TRP73       0.0810
     44  CE3       35.0070   19.5980    1.8110 C.ar   73  TRP73       0.0012
     45  CZ2       37.5590   18.6310    1.0600 C.ar   73  TRP73       0.0191
     46  CZ3       36.0950   20.4370    1.7350 C.ar   73  TRP73       0.0001
     47  CH2       37.3640   19.9490    1.3590 C.ar   73  TRP73       0.0015
     48  N         29.7110   18.2630    0.5780 N.am   74  GLY74      -0.1942
     49  CA        28.2640   18.2150    0.7920 C.3    74  GLY74       0.2014
     50  C         27.8030   18.5130    2.2230 C.2    74  GLY74       0.2639
     51  O         26.6450   18.2920    2.5520 O.2    74  GLY74      -0.2714
     52  N         28.6870   19.0120    3.0820 N.am   75  ARG75      -0.1963
     53  CA        28.2730   19.3750    4.4460 C.3    75  ARG75       0.1714
     54  C         27.3580   20.5910    4.3650 C.2    75  ARG75       0.2458
     55  O         27.6830   21.5370    3.6440 O.2    75  ARG75      -0.2730
     56  CB        29.4840   19.7260    5.3030 C.3    75  ARG75       0.0347
     57  CG        30.5570   18.6310    5.3270 C.3    75  ARG75       0.0492
     58  CD        31.5860   19.0580    6.2510 C.3    75  ARG75       0.2205
     59  NE        32.7070   18.1350    6.4530 N.pl3  75  ARG75      -0.0865
     60  CZ        33.8670   18.2090    5.8000 C.cat  75  ARG75       0.5346
     61  NH1       34.0360   19.1080    4.8250 N.pl3  75  ARG75       0.1354
     62  NH2       34.8410   17.3570    6.0990 N.pl3  75  ARG75       0.1354
     63  N         26.2520   20.5800    5.0850 N.am   76  PRO76      -0.2727
     64  CA        25.3430   21.7130    5.1100 C.3    76  PRO76       0.1402
     65  C         25.7650   22.7510    6.1390 C.2    76  PRO76       0.2269
     66  O         26.2220   22.4430    7.1670 O.2    76  PRO76      -0.2865
     67  CB        24.0240   21.0690    5.5400 C.3    76  PRO76       0.0296
     68  CG        24.4330   20.0110    6.4140 C.3    76  PRO76       0.0237
     69  CD        25.6960   19.4540    5.8450 C.3    76  PRO76       0.0939
     70  N         21.2380   19.9220   10.6020 N.3    96  SER96      -0.1202
     71  CA        21.5380   18.6210   10.0200 C.3    96  SER96       0.2020
     72  C         20.3470   18.2040    9.1810 C.2    96  SER96       0.2619
     73  O         19.1930   18.5270    9.5230 O.2    96  SER96      -0.2717
     74  CB        21.8430   17.5790   11.1020 C.3    96  SER96       0.2103
     75  OG        22.1680   16.3200   10.4900 O.3    96  SER96      -0.2182
     76  N         20.6240   17.5310    8.0650 N.am   97  LEU97      -0.1965
     77  CA        19.5930   17.1430    7.1010 C.3    97  LEU97       0.1728
     78  C         19.6580   15.6390    6.8960 C.2    97  LEU97       0.2617
     79  O         20.7230   15.0270    7.0540 O.2    97  LEU97      -0.2715
     80  CB        19.8690   17.8140    5.7190 C.3    97  LEU97       0.0311
     81  CG        19.4360   19.2770    5.5000 C.3    97  LEU97       0.0022
     82  CD1       20.0880   20.2480    6.5020 C.3    97  LEU97       0.0001
     83  CD2       19.7470   19.7100    4.0350 C.3    97  LEU97       0.0001
     84  N         18.5240   15.0520    6.5570 N.am   98  THR98      -0.1937
     85  CA        18.4420   13.6480    6.1990 C.3    98  THR98       0.2028
     86  C         17.2800   13.4210    5.2070 C.2    98  THR98       0.2642
     87  O         16.2830   14.1730    5.2030 O.2    98  THR98      -0.2714
     88  CB        18.3300   12.7190    7.4600 C.3    98  THR98       0.1808
     89  OG1       18.4510   11.3430    7.0440 O.3    98  THR98      -0.2208
     90  CG2       16.9570   12.8900    8.1790 C.3    98  THR98       0.0379
     91  N         17.4170   12.4150    4.3510 N.am   99  HIS99      -0.1959
     92  CA        16.2960   11.9880    3.4930 C.3    99  HIS99       0.1787
     93  C         16.3660   10.4770    3.3160 C.2    99  HIS99       0.2620
     94  O         17.3860    9.9490    2.8860 O.2    99  HIS99      -0.2715
     95  CB        16.2450   12.6930    2.1100 C.3    99  HIS99       0.0785
     96  CG        17.5750   13.1930    1.6060 C.ar   99  HIS99       0.0821
     97  ND1       18.6740   12.3810    1.4130 N.ar   99  HIS99      -0.2267
     98  CD2       17.9630   14.4390    1.2310 C.ar   99  HIS99       0.1154
     99  CE1       19.6820   13.1100    0.9520 C.ar   99  HIS99       0.1986
    100  NE2       19.2780   14.3590    0.8460 N.ar   99  HIS99      -0.2212
    101  N         15.2840    9.7910    3.6410 N.am  100  GLU100     -0.1977
    102  CA        15.2850    8.3540    3.5600 C.3   100  GLU100      0.1602
    103  C         13.9430    7.9640    3.0020 C.2   100  GLU100      0.2287
    104  O         12.8930    8.2660    3.5970 O.2   100  GLU100     -0.2864
    105  CB        15.5340    7.7600    4.9610 C.3   100  GLU100      0.0415
    106  CG        15.5440    6.2210    5.0390 C.3   100  GLU100      0.1163
    107  CD        16.9140    5.6130    4.7780 C.2   100  GLU100      0.3649
    108  OE1       17.7520    6.3110    4.1080 O.co2 100  GLU100     -0.2457
    109  OE2       17.1480    4.4470    5.2760 O.co2 100  GLU100     -0.2457
@<TRIPOS>BOND
     1     7     9   ar
     2     7     6   ar
     3     9    10   ar
     4     6     5    1
     5     6     8   ar
     6     5     2    1
     7    10     8   ar
     8     1     2    1
     9     2     3    1
    10     3     4    2
    11    32    31    1
    12    23    22    1
    13    23    24    2
    14    22    21    1
    15    24    26    1
    16    24    25    1
    17    30    29    2
    18    34    35    1
    19    31    33    1
    20    31    28    1
    21    29    28    1
    22    48    49    1
    23    48    36   am
    24    35    36    1
    25    35    38    1
    26    49    50    1
    27    27    28    1
    28   100    99   ar
    29   100    98   ar
    30    21    20    1
    31    36    37    2
    32    42    40   ar
    33    42    43   ar
    34    99    97   ar
    35    20    17    1
    36    45    43   ar
    37    45    47   ar
    38    40    39   ar
    39    43    41   ar
    40    98    96   ar
    41    47    46   ar
    42    97    96   ar
    43    39    41   ar
    44    39    38    1
    45    41    44   ar
    46    96    95    1
    47    46    44   ar
    48    11    12    1
    49    95    92    1
    50    16    17    1
    51    16    13   am
    52    50    51    2
    53    50    52   am
    54    17    18    1
    55    18    19    2
    56    94    93    2
    57    15    12    1
    58    12    13    1
    59   103   102    1
    60   103   104    2
    61    52    53    1
    62    13    14    2
    63    93    92    1
    64    93   101   am
    65    92    91    1
    66   102   101    1
    67   102   105    1
    68    55    54    2
    69    83    81    1
    70   108   107   ar
    71    91    86   am
    72    54    53    1
    73    54    63   am
    74    53    56    1
    75   107   106    1
    76   107   109   ar
    77    61    60    1
    78   105   106    1
    79    63    64    1
    80    63    69    1
    81    64    67    1
    82    64    65    1
    83    87    86    2
    84    86    85    1
    85    56    57    1
    86    57    58    1
    87    81    80    1
    88    81    82    1
    89    67    68    1
    90    80    77    1
    91    60    62    1
    92    60    59    2
    93    69    68    1
    94    65    66    2
    95    85    84    1
    96    85    88    1
    97    58    59    1
    98    84    78   am
    99    78    79    2
   100    78    77    1
   101    89    88    1
   102    77    76    1
   103    88    90    1
   104    76    72   am
   105    72    73    2
   106    72    71    1
   107    71    70    1
   108    71    74    1
   109    75    74    1
