@<TRIPOS>MOLECULE
tmp/3hqlB00.pdb
 76 77 0 0 0
SMALL
GASTEIGER

@<TRIPOS>ATOM
      1  N         -4.1510  -18.7800   10.3550 N.3    70  PHE70      -0.1241
      2  CA        -4.7430  -19.1950    9.0980 C.3    70  PHE70       0.1605
      3  C         -5.2600  -17.9800    8.3160 C.2    70  PHE70       0.2264
      4  O         -5.5570  -16.9000    8.8820 O.2    70  PHE70      -0.2867
      5  CB        -5.8770  -20.1940    9.3740 C.3    70  PHE70       0.0534
      6  CG        -6.9200  -19.6640   10.3360 C.ar   70  PHE70      -0.0203
      7  CD1       -8.0450  -18.9900    9.8510 C.ar   70  PHE70      -0.0042
      8  CD2       -6.7630  -19.8350   11.7310 C.ar   70  PHE70      -0.0042
      9  CE1       -9.0080  -18.4880   10.7590 C.ar   70  PHE70      -0.0003
     10  CE2       -7.7050  -19.3290   12.6210 C.ar   70  PHE70      -0.0003
     11  CZ        -8.8180  -18.6490   12.1390 C.ar   70  PHE70      -0.0000
     12  N         -7.8190  -13.0430    7.4980 N.3    86  GLU86      -0.1231
     13  CA        -6.7600  -13.7600    8.1960 C.3    86  GLU86       0.1699
     14  C         -6.8690  -13.6200    9.6970 C.2    86  GLU86       0.2593
     15  O         -7.3920  -12.6140   10.2040 O.2    86  GLU86      -0.2718
     16  CB        -5.3820  -13.3300    7.6890 C.3    86  GLU86       0.0402
     17  CG        -5.0620  -11.8760    7.8950 C.3    86  GLU86       0.1161
     18  CD        -3.6020  -11.5060    7.6090 C.2    86  GLU86       0.3649
     19  OE1       -2.7950  -12.3870    7.1980 O.co2  86  GLU86      -0.2457
     20  OE2       -3.2640  -10.3130    7.8210 O.co2  86  GLU86      -0.2457
     21  N         -6.4140  -14.6470   10.4060 N.am   87  SER87      -0.1938
     22  CA        -6.4190  -14.6050   11.8580 C.3    87  SER87       0.2055
     23  C         -5.3520  -13.5840   12.2660 C.2    87  SER87       0.2642
     24  O         -4.3120  -13.4900   11.6490 O.2    87  SER87      -0.2714
     25  CB        -6.1200  -15.9840   12.4230 C.3    87  SER87       0.2130
     26  OG        -4.7880  -16.4020   12.1560 O.3    87  SER87      -0.2179
     27  N         -5.5730  -12.8000   13.2990 N.am   88  GLN88      -0.1976
     28  CA        -4.5330  -11.7500   13.5440 C.3    88  GLN88       0.1601
     29  C         -3.3910  -12.2610   14.4350 C.2    88  GLN88       0.2287
     30  O         -2.3890  -11.5710   14.6880 O.2    88  GLN88      -0.2864
     31  CB        -5.1620  -10.4650   14.0770 C.3    88  GLN88       0.0394
     32  CG        -6.1330   -9.7930   13.0710 C.3    88  GLN88       0.0908
     33  CD        -5.4900   -9.4550   11.7150 C.2    88  GLN88       0.2608
     34  OE1       -6.0880   -9.6910   10.6550 O.2    88  GLN88      -0.2717
     35  NE2       -4.2850   -8.8850   11.7460 N.am   88  GLN88      -0.0878
     36  N         -4.2770  -19.2520   16.8750 N.3    91  TYR91      -0.1241
     37  CA        -5.3570  -19.7460   17.7200 C.3    91  TYR91       0.1605
     38  C         -5.0690  -21.1480   18.2160 C.2    91  TYR91       0.2264
     39  O         -4.3990  -21.9280   17.5310 O.2    91  TYR91      -0.2867
     40  CB        -6.7060  -19.6430   17.0070 C.3    91  TYR91       0.0534
     41  CG        -7.1980  -18.2140   17.0460 C.ar   91  TYR91      -0.0201
     42  CD1       -8.1640  -17.8300   17.9620 C.ar   91  TYR91      -0.0009
     43  CD2       -6.6690  -17.2460   16.1910 C.ar   91  TYR91      -0.0009
     44  CE1       -8.6060  -16.5130   18.0350 C.ar   91  TYR91       0.0417
     45  CE2       -7.0950  -15.9130   16.2540 C.ar   91  TYR91       0.0417
     46  CZ        -8.0650  -15.5590   17.1780 C.ar   91  TYR91       0.1957
     47  OH        -8.4930  -14.2500   17.2750 O.3    91  TYR91      -0.2866
     48  N        -11.9250  -22.7660   14.2800 N.3    99  TRP99      -0.1227
     49  CA       -11.8270  -21.3200   14.3550 C.3    99  TRP99       0.1737
     50  C        -12.0300  -20.8020   12.9580 C.2    99  TRP99       0.2596
     51  O        -11.6880  -21.4900   11.9880 O.2    99  TRP99      -0.2718
     52  CB       -10.4410  -20.9080   14.8280 C.3    99  TRP99       0.0564
     53  CG       -10.1630  -21.1740   16.2920 C.ar   99  TRP99       0.0003
     54  CD1       -9.3960  -22.1650   16.8060 C.ar   99  TRP99       0.0946
     55  CD2      -10.6370  -20.3960   17.4160 C.ar   99  TRP99       0.0152
     56  NE1       -9.3650  -22.0750   18.2170 N.ar   99  TRP99      -0.2442
     57  CE2      -10.1110  -20.9880   18.5950 C.ar   99  TRP99       0.0810
     58  CE3      -11.4600  -19.2580   17.5380 C.ar   99  TRP99       0.0012
     59  CZ2      -10.3860  -20.4810   19.8810 C.ar   99  TRP99       0.0191
     60  CZ3      -11.7070  -18.7450   18.8220 C.ar   99  TRP99       0.0001
     61  CH2      -11.1920  -19.3680   19.9650 C.ar   99  TRP99       0.0015
     62  N        -12.6240  -19.6220   12.8370 N.am  100  GLY100     -0.1942
     63  CA       -12.8650  -19.0620   11.4860 C.3   100  GLY100      0.2014
     64  C        -13.7120  -17.8170   11.5340 C.2   100  GLY100      0.2638
     65  O        -13.6990  -17.0620   12.5400 O.2   100  GLY100     -0.2714
     66  N        -14.4440  -17.5950   10.4470 N.am  101  PHE101     -0.1973
     67  CA       -15.1530  -16.3410   10.2090 C.3   101  PHE101      0.1639
     68  C        -16.6240  -16.6280    9.9500 C.2   101  PHE101      0.2290
     69  O        -16.9910  -17.2100    8.9310 O.2   101  PHE101     -0.2864
     70  CB       -14.5270  -15.6210    8.9880 C.3   101  PHE101      0.0560
     71  CG       -13.0480  -15.3860    9.1370 C.ar  101  PHE101     -0.0200
     72  CD1      -12.5780  -14.3690    9.9890 C.ar  101  PHE101     -0.0042
     73  CD2      -12.1280  -16.2140    8.5010 C.ar  101  PHE101     -0.0042
     74  CE1      -11.1960  -14.1590   10.1470 C.ar  101  PHE101     -0.0003
     75  CE2      -10.7100  -15.9960    8.6480 C.ar  101  PHE101     -0.0003
     76  CZ       -10.2790  -14.9930    9.4930 C.ar  101  PHE101     -0.0000
@<TRIPOS>BOND
     1    19    18   ar
     2    12    13    1
     3    18    20   ar
     4    18    17    1
     5    16    17    1
     6    16    13    1
     7    13    14    1
     8     3     4    2
     9     3     2    1
    10    73    75   ar
    11    73    71   ar
    12    75    76   ar
    13    69    68    2
    14    70    71    1
    15    70    67    1
    16     2     5    1
    17     2     1    1
    18    71    72   ar
    19     5     6    1
    20    76    74   ar
    21    14    15    2
    22    14    21   am
    23     7     6   ar
    24     7     9   ar
    25    68    67    1
    26    72    74   ar
    27    67    66    1
    28     6     8   ar
    29    21    22    1
    30    66    64   am
    31    34    33    2
    32     9    11   ar
    33    63    64    1
    34    63    62    1
    35    64    65    2
    36    24    23    2
    37    33    35   am
    38    33    32    1
    39     8    10   ar
    40    22    23    1
    41    22    25    1
    42    51    50    2
    43    11    10   ar
    44    26    25    1
    45    23    27   am
    46    62    50   am
    47    50    49    1
    48    32    31    1
    49    27    28    1
    50    28    31    1
    51    28    29    1
    52    48    49    1
    53    49    52    1
    54    29    30    2
    55    52    53    1
    56    43    45   ar
    57    43    41   ar
    58    45    46   ar
    59    53    54   ar
    60    53    55   ar
    61    54    56   ar
    62    36    37    1
    63    40    41    1
    64    40    37    1
    65    41    42   ar
    66    46    47    1
    67    46    44   ar
    68    55    58   ar
    69    55    57   ar
    70    39    38    2
    71    58    60   ar
    72    37    38    1
    73    42    44   ar
    74    56    57   ar
    75    57    59   ar
    76    60    61   ar
    77    59    61   ar
