@<TRIPOS>MOLECULE
tmp/3hqlA00.pdb
 76 77 0 0 0
SMALL
GASTEIGER

@<TRIPOS>ATOM
      1  N         -8.5550    3.0780   31.1110 N.3    72  PHE72      -0.1241
      2  CA        -7.9690    2.6610   32.3850 C.3    72  PHE72       0.1605
      3  C         -7.4630    3.8750   33.1870 C.2    72  PHE72       0.2264
      4  O         -7.1810    4.9540   32.6380 O.2    72  PHE72      -0.2867
      5  CB        -6.8290    1.6690   32.1090 C.3    72  PHE72       0.0534
      6  CG        -5.8050    2.1940   31.1130 C.ar   72  PHE72      -0.0203
      7  CD1       -4.6710    2.8900   31.5660 C.ar   72  PHE72      -0.0042
      8  CD2       -5.9880    2.0070   29.7330 C.ar   72  PHE72      -0.0042
      9  CE1       -3.7310    3.3850   30.6190 C.ar   72  PHE72      -0.0003
     10  CE2       -5.0580    2.5070   28.8050 C.ar   72  PHE72      -0.0003
     11  CZ        -3.9420    3.1990   29.2530 C.ar   72  PHE72      -0.0000
     12  N         -4.9140    8.8050   34.0420 N.3    88  GLU88      -0.1231
     13  CA        -6.0060    8.1190   33.3790 C.3    88  GLU88       0.1699
     14  C         -5.8560    8.2300   31.8790 C.2    88  GLU88       0.2593
     15  O         -5.2960    9.2170   31.3700 O.2    88  GLU88      -0.2718
     16  CB        -7.3390    8.7060   33.8320 C.3    88  GLU88       0.0402
     17  CG        -7.4670   10.1870   33.5220 C.3    88  GLU88       0.1161
     18  CD        -8.7680   10.7910   34.0170 C.2    88  GLU88       0.3649
     19  OE1       -9.5540   10.0550   34.6820 O.co2  88  GLU88      -0.2457
     20  OE2       -9.0240   11.9790   33.7440 O.co2  88  GLU88      -0.2457
     21  N         -6.3280    7.2070   31.1680 N.am   89  SER89      -0.1938
     22  CA        -6.3080    7.2410   29.7180 C.3    89  SER89       0.2055
     23  C         -7.3880    8.2460   29.2920 C.2    89  SER89       0.2642
     24  O         -8.4370    8.3460   29.9020 O.2    89  SER89      -0.2714
     25  CB        -6.5800    5.8610   29.1520 C.3    89  SER89       0.2130
     26  OG        -7.9190    5.4510   29.3880 O.3    89  SER89      -0.2179
     27  N         -7.1440    9.0330   28.2680 N.am   90  GLN90      -0.1976
     28  CA        -8.1670   10.0910   27.9940 C.3    90  GLN90       0.1601
     29  C         -9.3230    9.5680   27.1230 C.2    90  GLN90       0.2287
     30  O        -10.3670   10.2180   26.9530 O.2    90  GLN90      -0.2864
     31  CB        -7.5140   11.3450   27.4180 C.3    90  GLN90       0.0394
     32  CG        -6.5500   12.0320   28.4050 C.3    90  GLN90       0.0908
     33  CD        -7.2340   12.4650   29.7080 C.2    90  GLN90       0.2608
     34  OE1       -8.3290   13.0420   29.6880 O.2    90  GLN90      -0.2717
     35  NE2       -6.5810   12.2020   30.8440 N.am   90  GLN90      -0.0878
     36  N         -8.4390    2.6200   24.6200 N.3    93  TYR93      -0.1241
     37  CA        -7.3650    2.1150   23.7740 C.3    93  TYR93       0.1605
     38  C         -7.6640    0.7050   23.2800 C.2    93  TYR93       0.2264
     39  O         -8.3330   -0.0800   23.9730 O.2    93  TYR93      -0.2867
     40  CB        -6.0260    2.2060   24.5130 C.3    93  TYR93       0.0534
     41  CG        -5.5190    3.6300   24.4800 C.ar   93  TYR93      -0.0201
     42  CD1       -4.5730    4.0220   23.5380 C.ar   93  TYR93      -0.0009
     43  CD2       -6.0250    4.5900   25.3530 C.ar   93  TYR93      -0.0009
     44  CE1       -4.1290    5.3430   23.4680 C.ar   93  TYR93       0.0417
     45  CE2       -5.5980    5.9170   25.2950 C.ar   93  TYR93       0.0417
     46  CZ        -4.6540    6.2860   24.3510 C.ar   93  TYR93       0.1957
     47  OH        -4.2370    7.5970   24.2830 O.3    93  TYR93      -0.2866
     48  N         -0.7570   -0.9200   27.2370 N.3   101  TRP101     -0.1227
     49  CA        -0.8860    0.5220   27.1500 C.3   101  TRP101      0.1737
     50  C         -0.6960    1.0450   28.5430 C.2   101  TRP101      0.2596
     51  O         -1.0440    0.3680   29.5230 O.2   101  TRP101     -0.2718
     52  CB        -2.2810    0.9200   26.6590 C.3   101  TRP101      0.0564
     53  CG        -2.5510    0.6560   25.1900 C.ar  101  TRP101      0.0003
     54  CD1       -3.3040   -0.3440   24.6450 C.ar  101  TRP101      0.0946
     55  CD2       -2.0810    1.4490   24.0860 C.ar  101  TRP101      0.0152
     56  NE1       -3.3180   -0.2350   23.2520 N.ar  101  TRP101     -0.2442
     57  CE2       -2.5770    0.8590   22.8930 C.ar  101  TRP101      0.0810
     58  CE3       -1.2720    2.5920   23.9910 C.ar  101  TRP101      0.0012
     59  CZ2       -2.2980    1.3900   21.6180 C.ar  101  TRP101      0.0191
     60  CZ3       -1.0000    3.1130   22.7260 C.ar  101  TRP101      0.0001
     61  CH2       -1.5020    2.5100   21.5640 C.ar  101  TRP101      0.0015
     62  N         -0.0970    2.2200   28.6590 N.am  102  GLY102     -0.1942
     63  CA         0.1240    2.7780   30.0060 C.3   102  GLY102      0.2014
     64  C          0.9820    4.0100   29.9950 C.2   102  GLY102      0.2638
     65  O          0.9780    4.7770   29.0160 O.2   102  GLY102     -0.2714
     66  N          1.7120    4.2230   31.0880 N.am  103  PHE103     -0.1973
     67  CA         2.4250    5.4800   31.3020 C.3   103  PHE103      0.1639
     68  C          3.8950    5.2160   31.5410 C.2   103  PHE103      0.2290
     69  O          4.2730    4.6300   32.5450 O.2   103  PHE103     -0.2864
     70  CB         1.8090    6.2300   32.5010 C.3   103  PHE103      0.0560
     71  CG         0.3440    6.4610   32.3490 C.ar  103  PHE103     -0.0200
     72  CD1       -0.1200    7.4670   31.4790 C.ar  103  PHE103     -0.0042
     73  CD2       -0.5740    5.6340   32.9990 C.ar  103  PHE103     -0.0042
     74  CE1       -1.4920    7.6710   31.3110 C.ar  103  PHE103     -0.0003
     75  CE2       -1.9810    5.8410   32.8480 C.ar  103  PHE103     -0.0003
     76  CZ        -2.4180    6.8430   31.9820 C.ar  103  PHE103     -0.0000
@<TRIPOS>BOND
     1    61    59   ar
     2    61    60   ar
     3    59    57   ar
     4    60    58   ar
     5    57    56   ar
     6    57    55   ar
     7    56    54   ar
     8    38    37    1
     9    38    39    2
    10    44    42   ar
    11    44    46   ar
    12    42    41   ar
    13    37    40    1
    14    37    36    1
    15    58    55   ar
    16    55    53   ar
    17    47    46    1
    18    46    45   ar
    19    41    40    1
    20    41    43   ar
    21    54    53   ar
    22    53    52    1
    23    45    43   ar
    24    52    49    1
    25    30    29    2
    26    29    28    1
    27    49    48    1
    28    49    50    1
    29    31    28    1
    30    31    32    1
    31    28    27    1
    32    27    23   am
    33    32    33    1
    34    50    62   am
    35    50    51    2
    36    62    63    1
    37    10    11   ar
    38    10     8   ar
    39    65    64    2
    40    25    26    1
    41    25    22    1
    42    11     9   ar
    43    23    22    1
    44    23    24    2
    45    34    33    2
    46    33    35   am
    47    22    21    1
    48     8     6   ar
    49    64    63    1
    50    64    66   am
    51     9     7   ar
    52    66    67    1
    53     1     2    1
    54     6     7   ar
    55     6     5    1
    56    21    14   am
    57    67    68    1
    58    67    70    1
    59    74    72   ar
    60    74    76   ar
    61    15    14    2
    62    72    71   ar
    63    68    69    2
    64    14    13    1
    65    76    75   ar
    66     5     2    1
    67    71    70    1
    68    71    73   ar
    69     2     3    1
    70     4     3    2
    71    75    73   ar
    72    13    16    1
    73    13    12    1
    74    17    16    1
    75    17    18    1
    76    20    18   ar
    77    18    19   ar
