@<TRIPOS>MOLECULE
tmp/3hqqO00.pdb
 152 146 0 0 0
SMALL
GASTEIGER

@<TRIPOS>ATOM
      1  N        -20.7320  131.8280  -60.0120 N.3   399  LEU399     -0.1231
      2  CA       -20.1550  133.1200  -59.8620 C.3   399  LEU399      0.1693
      3  C        -19.1000  133.3510  -60.9170 C.2   399  LEU399      0.2593
      4  O        -18.1380  132.6390  -60.9920 O.2   399  LEU399     -0.2718
      5  CB       -19.5530  133.2300  -58.4850 C.3   399  LEU399      0.0284
      6  CG       -20.4750  133.6200  -57.3410 C.3   399  LEU399      0.0019
      7  CD1      -21.7260  132.8770  -57.2430 C.3   399  LEU399      0.0001
      8  CD2      -19.7560  133.6050  -56.0870 C.3   399  LEU399      0.0001
      9  N        -19.3250  134.3250  -61.7780 N.am  400  SER400     -0.1938
     10  CA       -18.3060  134.7750  -62.6990 C.3   400  SER400      0.2055
     11  C        -18.2350  136.2730  -62.8800 C.2   400  SER400      0.2643
     12  O        -19.1860  136.8760  -63.2340 O.2   400  SER400     -0.2714
     13  CB       -18.4640  134.0880  -64.0560 C.3   400  SER400      0.2130
     14  OG       -17.4070  134.4220  -64.8760 O.3   400  SER400     -0.2179
     15  N        -17.0570  136.8290  -62.7000 N.am  401  ASN401     -0.1957
     16  CA       -16.8010  138.2230  -62.9980 C.3   401  ASN401      0.1819
     17  C        -16.2840  138.5080  -64.4120 C.2   401  ASN401      0.2621
     18  O        -16.6990  139.4350  -65.0240 O.2   401  ASN401     -0.2715
     19  CB       -15.8540  138.8270  -61.9650 C.3   401  ASN401      0.1195
     20  CG       -16.1600  138.3850  -60.5640 C.2   401  ASN401      0.2630
     21  OD1      -17.2520  138.5410  -60.0840 O.2   401  ASN401     -0.2716
     22  ND2      -15.1960  137.8110  -59.9270 N.am  401  ASN401     -0.0877
     23  N        -15.3240  137.7300  -64.8840 N.am  402  THR402     -0.1951
     24  CA       -14.8800  137.7850  -66.2610 C.3   402  THR402      0.1897
     25  C        -15.8810  137.2050  -67.2180 C.2   402  THR402      0.2313
     26  O        -15.8710  137.5160  -68.3470 O.2   402  THR402     -0.2863
     27  CB       -13.5320  137.1230  -66.4990 C.3   402  THR402      0.1794
     28  OG1      -13.6890  135.7170  -66.5500 O.3   402  THR402     -0.2208
     29  CG2      -12.5750  137.4950  -65.4470 C.3   402  THR402      0.0378
     30  N        -15.7770  134.0220  -67.6880 N.3   404  ARG404     -0.1231
     31  CA       -15.1050  132.7660  -67.9910 C.3   404  ARG404      0.1694
     32  C        -15.7930  131.5690  -67.3400 C.2   404  ARG404      0.2592
     33  O        -16.0780  130.5770  -68.0100 O.2   404  ARG404     -0.2718
     34  CB       -13.6380  132.8280  -67.5580 C.3   404  ARG404      0.0321
     35  CG       -12.6640  132.2760  -68.5860 C.3   404  ARG404      0.0489
     36  CD       -11.2240  132.4420  -68.1270 C.3   404  ARG404      0.2205
     37  NE       -10.7430  131.2700  -67.4020 N.pl3 404  ARG404     -0.0865
     38  CZ       -10.8300  131.1180  -66.0840 C.cat 404  ARG404      0.5346
     39  NH1      -10.3650  130.0180  -65.5090 N.pl3 404  ARG404      0.1354
     40  NH2      -11.3830  132.0670  -65.3410 N.pl3 404  ARG404      0.1354
     41  N        -16.0560  131.6540  -66.0380 N.am  405  SER405     -0.1952
     42  CA       -16.6490  130.5480  -65.3510 C.3   405  SER405      0.1924
     43  C        -17.9620  130.1830  -65.9520 C.2   405  SER405      0.2314
     44  O        -18.2780  129.0440  -66.0540 O.2   405  SER405     -0.2863
     45  CB       -16.8770  130.8570  -63.8810 C.3   405  SER405      0.2116
     46  OG       -15.6860  130.9530  -63.1780 O.3   405  SER405     -0.2180
     47  N        -20.2760  140.6390  -61.1470 N.3   423  THR423     -0.1218
     48  CA       -20.0490  141.9760  -60.6940 C.3   423  THR423      0.1862
     49  C        -19.7380  142.9440  -61.8020 C.2   423  THR423      0.2287
     50  O        -19.3970  144.0680  -61.5320 O.2   423  THR423     -0.2866
     51  CB       -18.9180  142.0320  -59.7480 C.3   423  THR423      0.1770
     52  OG1      -17.7360  141.6440  -60.4170 O.3   423  THR423     -0.2211
     53  CG2      -19.1610  141.1220  -58.6380 C.3   423  THR423      0.0375
     54  N        -17.6590  143.4530  -51.5120 N.3   449  HIS449     -0.1241
     55  CA       -16.9080  142.4580  -52.2450 C.3   449  HIS449      0.1621
     56  C        -17.3470  141.0120  -52.0940 C.2   449  HIS449      0.2264
     57  O        -16.9440  140.1740  -52.8700 O.2   449  HIS449     -0.2867
     58  CB       -15.4480  142.5800  -51.9060 C.3   449  HIS449      0.0745
     59  CG       -14.7840  143.7420  -52.5480 C.ar  449  HIS449      0.0817
     60  ND1      -15.1250  144.1900  -53.7970 N.ar  449  HIS449     -0.2268
     61  CD2      -13.7940  144.5510  -52.1170 C.ar  449  HIS449      0.1154
     62  CE1      -14.3720  145.2240  -54.1120 C.ar  449  HIS449      0.1986
     63  NE2      -13.5530  145.4620  -53.1090 N.ar  449  HIS449     -0.2212
     64  N        -16.6980  138.3130  -50.1730 N.3   451  GLU451     -0.1245
     65  CA       -15.6560  137.3050  -50.2330 C.3   451  GLU451      0.1567
     66  C        -16.1110  135.9440  -49.7720 C.2   451  GLU451      0.2260
     67  O        -15.6040  134.9530  -50.2000 O.2   451  GLU451     -0.2867
     68  CB       -14.3930  137.7280  -49.5150 C.3   451  GLU451      0.0388
     69  CG       -14.5800  138.8500  -48.5890 C.3   451  GLU451      0.1160
     70  CD       -14.0350  140.1240  -49.1410 C.2   451  GLU451      0.3649
     71  OE1      -14.5650  141.1910  -48.8020 O.co2 451  GLU451     -0.2457
     72  OE2      -13.0720  140.0520  -49.9080 O.co2 451  GLU451     -0.2457
     73  N        -19.0720  134.8020  -50.2880 N.3   453  LYS453     -0.1245
     74  CA       -19.8300  134.3790  -51.4500 C.3   453  LYS453      0.1561
     75  C        -21.2970  134.1670  -51.1660 C.2   453  LYS453      0.2260
     76  O        -22.0600  133.9170  -52.0440 O.2   453  LYS453     -0.2867
     77  CB       -19.1850  133.1540  -52.0980 C.3   453  LYS453      0.0271
     78  CG       -17.8740  133.4890  -52.7320 C.3   453  LYS453      0.0035
     79  CD       -16.8640  132.5800  -52.3000 C.3   453  LYS453      0.0206
     80  CE       -15.4880  133.0580  -52.5570 C.3   453  LYS453      0.1093
     81  NZ       -15.4200  134.0190  -53.5800 N.3   453  LYS453     -0.1314
     82  N        -23.8580  136.8200  -53.1730 N.3   456  ARG456     -0.1245
     83  CA       -23.9860  136.5770  -54.5920 C.3   456  ARG456      0.1563
     84  C        -24.7760  135.3120  -54.7750 C.2   456  ARG456      0.2260
     85  O        -25.6760  135.2550  -55.5450 O.2   456  ARG456     -0.2867
     86  CB       -22.6120  136.4710  -55.2020 C.3   456  ARG456      0.0307
     87  CG       -22.0240  137.7730  -55.4680 C.3   456  ARG456      0.0489
     88  CD       -20.6730  137.6970  -56.0370 C.3   456  ARG456      0.2205
     89  NE       -19.6420  137.2930  -55.1200 N.pl3 456  ARG456     -0.0865
     90  CZ       -18.3970  137.0390  -55.4620 C.cat 456  ARG456      0.5346
     91  NH1      -18.0160  137.1060  -56.7050 N.pl3 456  ARG456      0.1354
     92  NH2      -17.5280  136.7010  -54.5610 N.pl3 456  ARG456      0.1354
     93  N        -21.6740  126.8480  -57.9650 N.3   479  ILE479     -0.1231
     94  CA       -20.2660  126.8300  -58.2860 C.3   479  ILE479      0.1692
     95  C        -19.5110  128.1190  -57.9760 C.2   479  ILE479      0.2592
     96  O        -19.8520  129.1530  -58.4670 O.2   479  ILE479     -0.2718
     97  CB       -20.0740  126.5180  -59.7950 C.3   479  ILE479      0.0266
     98  CG1      -20.7210  125.2050  -60.1940 C.3   479  ILE479      0.0019
     99  CG2      -18.6700  126.4680  -60.1380 C.3   479  ILE479      0.0020
    100  CD1      -20.8760  125.0470  -61.6400 C.3   479  ILE479      0.0001
    101  N        -18.4700  128.0320  -57.1840 N.am  480  HIS480     -0.1962
    102  CA       -17.5950  129.1420  -56.9280 C.3   480  HIS480      0.1787
    103  C        -16.3650  128.6420  -56.2260 C.2   480  HIS480      0.2620
    104  O        -16.2000  127.4760  -56.0820 O.2   480  HIS480     -0.2715
    105  CB       -18.2770  130.2290  -56.1230 C.3   480  HIS480      0.0785
    106  CG       -19.0320  129.7310  -54.9490 C.ar  480  HIS480      0.0821
    107  ND1      -18.4290  129.4170  -53.7660 N.ar  480  HIS480     -0.2267
    108  CD2      -20.3440  129.5050  -54.7760 C.ar  480  HIS480      0.1154
    109  CE1      -19.3370  129.0070  -52.9140 C.ar  480  HIS480      0.1986
    110  NE2      -20.5080  129.0580  -53.4980 N.ar  480  HIS480     -0.2212
    111  N        -15.5060  129.5440  -55.8180 N.am  481  ALA481     -0.1977
    112  CA       -14.4060  129.2070  -54.9600 C.3   481  ALA481      0.1597
    113  C        -14.7900  129.0410  -53.5090 C.2   481  ALA481      0.2287
    114  O        -15.8190  129.4700  -53.0650 O.2   481  ALA481     -0.2864
    115  CB       -13.3140  130.1840  -55.0850 C.3   481  ALA481      0.0319
    116  N         -9.1490  129.9510  -52.1990 N.3   485  VAL485     -0.1231
    117  CA        -8.7720  130.0300  -53.6120 C.3   485  VAL485      0.1692
    118  C         -9.2460  131.2470  -54.3840 C.2   485  VAL485      0.2592
    119  O        -10.3600  131.6590  -54.2700 O.2   485  VAL485     -0.2718
    120  CB        -9.2230  128.7790  -54.3520 C.3   485  VAL485      0.0266
    121  CG1       -8.8990  128.8620  -55.7840 C.3   485  VAL485      0.0020
    122  CG2       -8.5950  127.6040  -53.7730 C.3   485  VAL485      0.0020
    123  N         -8.3580  131.7850  -55.1960 N.am  486  LYS486     -0.1966
    124  CA        -8.6150  132.9760  -55.9800 C.3   486  LYS486      0.1728
    125  C         -8.3290  132.8180  -57.4630 C.2   486  LYS486      0.2617
    126  O         -7.3500  132.2370  -57.8510 O.2   486  LYS486     -0.2715
    127  CB        -7.8220  134.1650  -55.4450 C.3   486  LYS486      0.0311
    128  CG        -8.1170  134.5250  -54.0380 C.3   486  LYS486      0.0038
    129  CD        -9.4710  135.1200  -53.8550 C.3   486  LYS486      0.0206
    130  CE        -9.7560  135.3380  -52.3840 C.3   486  LYS486      0.1093
    131  NZ       -10.8910  134.6150  -51.8280 N.3   486  LYS486     -0.1314
    132  N         -9.1870  133.3870  -58.2850 N.am  487  GLY487     -0.1940
    133  CA        -9.0260  133.3580  -59.7180 C.3   487  GLY487      0.2014
    134  C         -9.7590  132.2930  -60.4890 C.2   487  GLY487      0.2639
    135  O         -9.8460  132.3750  -61.6710 O.2   487  GLY487     -0.2714
    136  N        -10.3070  131.3150  -59.8030 N.am  488  TYR488     -0.1959
    137  CA       -11.1330  130.3110  -60.4120 C.3   488  TYR488      0.1771
    138  C        -12.0390  129.7000  -59.3810 C.2   488  TYR488      0.2619
    139  O        -11.9160  129.9650  -58.2310 O.2   488  TYR488     -0.2715
    140  CB       -10.3000  129.2640  -61.1260 C.3   488  TYR488      0.0574
    141  CG        -9.4650  128.4020  -60.2430 C.ar  488  TYR488     -0.0198
    142  CD1       -9.8950  127.1680  -59.8690 C.ar  488  TYR488     -0.0009
    143  CD2       -8.2430  128.8170  -59.8050 C.ar  488  TYR488     -0.0009
    144  CE1       -9.1550  126.4030  -59.0970 C.ar  488  TYR488      0.0417
    145  CE2       -7.5010  128.0490  -59.0450 C.ar  488  TYR488      0.0417
    146  CZ        -7.9600  126.8460  -58.6790 C.ar  488  TYR488      0.1957
    147  OH        -7.2040  126.0600  -57.9030 O.3   488  TYR488     -0.2866
    148  N        -12.9790  128.8960  -59.8150 N.am  489  ALA489     -0.1977
    149  CA       -13.8310  128.2190  -58.8940 C.3   489  ALA489      0.1597
    150  C        -13.3760  126.7910  -58.7130 C.2   489  ALA489      0.2287
    151  O        -13.2720  126.0460  -59.6380 O.2   489  ALA489     -0.2864
    152  CB       -15.2110  128.2640  -59.3420 C.3   489  ALA489      0.0319
@<TRIPOS>BOND
     1    35    36    1
     2    35    34    1
     3    26    25    2
     4    36    37    1
     5    33    32    2
     6    31    30    1
     7    31    34    1
     8    31    32    1
     9    37    38    2
    10    32    41   am
    11    25    24    1
    12    28    27    1
    13    27    24    1
    14    27    29    1
    15    24    23    1
    16    38    39    1
    17    38    40    1
    18    44    43    2
    19    41    42    1
    20    43    42    1
    21    42    45    1
    22    18    17    2
    23    23    17   am
    24    14    13    1
    25    17    16    1
    26    13    10    1
    27    45    46    1
    28    12    11    2
    29    16    15    1
    30    16    19    1
    31    11    15   am
    32    11    10    1
    33    10     9    1
    34    19    20    1
    35    49    50    2
    36    49    48    1
    37     9     3   am
    38   135   134    2
    39   100    98    1
    40    47    48    1
    41   140   137    1
    42   140   141    1
    43     4     3    2
    44     3     2    1
    45    48    51    1
    46    20    21    2
    47    20    22   am
    48   134   136   am
    49   134   133    1
    50    52    51    1
    51   137   136    1
    52   137   138    1
    53   141   142   ar
    54   141   143   ar
    55    98    97    1
    56    99    97    1
    57     1     2    1
    58   142   144   ar
    59     2     5    1
    60   148   138   am
    61   148   149    1
    62   143   145   ar
    63    97    94    1
    64    51    53    1
    65   133   132    1
    66   151   150    2
    67   138   139    2
    68   152   149    1
    69   144   146   ar
    70   145   146   ar
    71   149   150    1
    72   146   147    1
    73     5     6    1
    74    96    95    2
    75    94    95    1
    76    94    93    1
    77   132   125   am
    78    95   101   am
    79   126   125    2
    80   125   124    1
    81     6     7    1
    82     6     8    1
    83   101   102    1
    84   102   103    1
    85   102   105    1
    86    91    90    1
    87   103   104    2
    88   103   111   am
    89   105   106    1
    90    88    87    1
    91    88    89    1
    92   124   127    1
    93   124   123    1
    94   111   112    1
    95   121   120    1
    96    85    84    2
    97    87    86    1
    98    90    89    2
    99    90    92    1
   100   127   128    1
   101    86    83    1
   102   123   118   am
   103   115   112    1
   104   112   113    1
   105   106   108   ar
   106   106   107   ar
   107   108   110   ar
   108    84    83    1
   109    83    82    1
   110   118   119    2
   111   118   117    1
   112   120   122    1
   113   120   117    1
   114    62    60   ar
   115    62    63   ar
   116   128   129    1
   117   129   130    1
   118    60    59   ar
   119   107   109   ar
   120   117   116    1
   121    81    80    1
   122   113   114    2
   123   110   109   ar
   124    63    61   ar
   125    57    56    2
   126    78    79    1
   127    78    77    1
   128    80    79    1
   129    59    61   ar
   130    59    58    1
   131   130   131    1
   132    55    56    1
   133    55    58    1
   134    55    54    1
   135    77    74    1
   136    76    75    2
   137    74    75    1
   138    74    73    1
   139    65    64    1
   140    65    66    1
   141    65    68    1
   142    67    66    2
   143    72    70   ar
   144    68    69    1
   145    70    71   ar
   146    70    69    1
