@<TRIPOS>MOLECULE
tmp/3hqwA00.pdb
 189 182 0 0 0
SMALL
GASTEIGER

@<TRIPOS>ATOM
      1  N         13.6190   24.4400   50.9140 N.3   171  LEU171     -0.1245
      2  CA        14.2960   24.6740   49.6400 C.3   171  LEU171      0.1561
      3  C         14.0480   26.0770   49.0820 C.2   171  LEU171      0.2260
      4  O         14.8500   26.5680   48.3110 O.2   171  LEU171     -0.2867
      5  CB        13.9190   23.6100   48.6030 C.3   171  LEU171      0.0270
      6  CG        14.7980   23.5360   47.3560 C.3   171  LEU171      0.0019
      7  CD1       16.2230   23.1040   47.6800 C.3   171  LEU171      0.0001
      8  CD2       14.1860   22.6100   46.3000 C.3   171  LEU171      0.0001
      9  N         17.8430   29.1380   47.1010 N.3   175  PHE175     -0.1241
     10  CA        18.1930   29.8710   45.8900 C.3   175  PHE175      0.1605
     11  C         18.9520   31.1350   46.2550 C.2   175  PHE175      0.2264
     12  O         20.0450   31.3930   45.7150 O.2   175  PHE175     -0.2867
     13  CB        16.9400   30.1450   45.0760 C.3   175  PHE175      0.0534
     14  CG        16.2540   28.8780   44.6550 C.ar  175  PHE175     -0.0203
     15  CD1       16.6890   28.2100   43.5190 C.ar  175  PHE175     -0.0042
     16  CD2       15.2720   28.2860   45.4570 C.ar  175  PHE175     -0.0042
     17  CE1       16.1010   27.0150   43.1310 C.ar  175  PHE175     -0.0003
     18  CE2       14.6930   27.0890   45.0740 C.ar  175  PHE175     -0.0003
     19  CZ        15.1180   26.4470   43.9020 C.ar  175  PHE175     -0.0000
     20  N         18.9710   16.8270   49.5180 N.3   211  LEU211     -0.1245
     21  CA        18.7610   16.4950   48.1000 C.3   211  LEU211      0.1561
     22  C         19.5640   15.2890   47.6450 C.2   211  LEU211      0.2260
     23  O         19.5670   14.9500   46.4480 O.2   211  LEU211     -0.2867
     24  CB        19.1600   17.6890   47.2320 C.3   211  LEU211      0.0270
     25  CG        18.3630   18.9730   47.4460 C.3   211  LEU211      0.0019
     26  CD1       18.8300   20.0450   46.4730 C.3   211  LEU211      0.0001
     27  CD2       16.8880   18.7250   47.3100 C.3   211  LEU211      0.0001
     28  N         19.5250   12.1990   47.2740 N.3   213  SER213     -0.1202
     29  CA        19.1170   11.1100   46.3730 C.3   213  SER213      0.2020
     30  C         19.7680   11.2310   44.9930 C.2   213  SER213      0.2618
     31  O         20.0230   10.2100   44.3410 O.2   213  SER213     -0.2717
     32  CB        17.5940   11.0040   46.2360 C.3   213  SER213      0.2103
     33  OG        17.0910   11.8020   45.1790 O.3   213  SER213     -0.2182
     34  N         20.0340   12.4610   44.5410 N.am  214  VAL214     -0.1979
     35  CA        20.5950   12.6800   43.2070 C.3   214  VAL214      0.1595
     36  C         22.1120   12.5210   43.1500 C.2   214  VAL214      0.2287
     37  O         22.7120   12.7310   42.0910 O.2   214  VAL214     -0.2864
     38  CB        20.1670   14.0390   42.6190 C.3   214  VAL214      0.0276
     39  CG1       18.6550   14.1180   42.5510 C.3   214  VAL214      0.0022
     40  CG2       20.7700   15.2260   43.4200 C.3   214  VAL214      0.0022
     41  N         13.3260    8.3220   43.1540 N.3   225  ALA225     -0.1245
     42  CA        12.4070    9.2130   42.4420 C.3   225  ALA225      0.1562
     43  C         10.9580    8.6820   42.4580 C.2   225  ALA225      0.2260
     44  O         10.0060    9.4630   42.5430 O.2   225  ALA225     -0.2867
     45  CB        12.8900    9.4260   41.0290 C.3   225  ALA225      0.0290
     46  N          9.5100    9.9490   45.6680 N.3   228  ILE228     -0.1231
     47  CA         9.3420   11.4000   45.6870 C.3   228  ILE228      0.1692
     48  C          8.0560   11.7540   44.9190 C.2   228  ILE228      0.2592
     49  O          7.2340   12.5420   45.4090 O.2   228  ILE228     -0.2718
     50  CB        10.5920   12.1080   45.1150 C.3   228  ILE228      0.0266
     51  CG1       11.7940   11.8660   46.0310 C.3   228  ILE228      0.0019
     52  CG2       10.3440   13.6010   44.9370 C.3   228  ILE228      0.0020
     53  CD1       13.1020   12.2460   45.4340 C.3   228  ILE228      0.0001
     54  N          7.8570   11.1330   43.7610 N.am  229  TYR229     -0.1976
     55  CA         6.6720   11.4080   42.9520 C.3   229  TYR229      0.1639
     56  C          5.3970   10.8530   43.5800 C.2   229  TYR229      0.2290
     57  O          4.3420   11.4300   43.4050 O.2   229  TYR229     -0.2864
     58  CB         6.8250   10.8910   41.5260 C.3   229  TYR229      0.0560
     59  CG         7.6820   11.7470   40.6470 C.ar  229  TYR229     -0.0198
     60  CD1        7.2500   13.0130   40.2450 C.ar  229  TYR229     -0.0009
     61  CD2        8.9270   11.3120   40.2100 C.ar  229  TYR229     -0.0009
     62  CE1        8.0290   13.8100   39.4230 C.ar  229  TYR229      0.0417
     63  CE2        9.7170   12.1120   39.3910 C.ar  229  TYR229      0.0417
     64  CZ         9.2640   13.3650   39.0040 C.ar  229  TYR229      0.1957
     65  OH        10.0330   14.1690   38.1850 O.3   229  TYR229     -0.2866
     66  N          4.4690   13.7680   45.6550 N.3   232  PHE232     -0.1227
     67  CA         4.0940   14.9340   44.8480 C.3   232  PHE232      0.1736
     68  C          2.7510   14.7440   44.1690 C.2   232  PHE232      0.2595
     69  O          1.9180   15.6410   44.1680 O.2   232  PHE232     -0.2718
     70  CB         5.1400   15.2270   43.7700 C.3   232  PHE232      0.0547
     71  CG         6.4070   15.8890   44.2890 C.ar  232  PHE232     -0.0202
     72  CD1        6.4790   16.4420   45.5600 C.ar  232  PHE232     -0.0042
     73  CD2        7.5080   15.9900   43.4650 C.ar  232  PHE232     -0.0042
     74  CE1        7.6530   17.0800   45.9960 C.ar  232  PHE232     -0.0003
     75  CE2        8.6790   16.6140   43.9080 C.ar  232  PHE232     -0.0003
     76  CZ         8.7450   17.1430   45.1710 C.ar  232  PHE232     -0.0000
     77  N          2.5330   13.5710   43.5980 N.am  233  TRP233     -0.1976
     78  CA         1.2860   13.3210   42.8770 C.3   233  TRP233      0.1640
     79  C          0.0850   13.2690   43.8110 C.2   233  TRP233      0.2290
     80  O         -0.9960   13.7610   43.4620 O.2   233  TRP233     -0.2864
     81  CB         1.4180   12.0530   42.0120 C.3   233  TRP233      0.0576
     82  CG         2.4060   12.2110   40.8680 C.ar  233  TRP233      0.0006
     83  CD1        2.8190   13.3840   40.2790 C.ar  233  TRP233      0.0946
     84  CD2        3.0870   11.1600   40.1630 C.ar  233  TRP233      0.0152
     85  NE1        3.7170   13.1180   39.2800 N.ar  233  TRP233     -0.2442
     86  CE2        3.9070   11.7660   39.1880 C.ar  233  TRP233      0.0810
     87  CE3        3.1040    9.7660   40.2760 C.ar  233  TRP233      0.0012
     88  CZ2        4.7210   11.0230   38.3110 C.ar  233  TRP233      0.0191
     89  CZ3        3.9180    9.0340   39.4200 C.ar  233  TRP233      0.0001
     90  CH2        4.7130    9.6670   38.4510 C.ar  233  TRP233      0.0015
     91  N          2.7940   21.1890   37.2090 N.3   248  PRO248     -0.2102
     92  CA         3.0970   19.9360   36.5130 C.3   248  PRO248      0.1504
     93  C          3.7950   18.8540   37.3560 C.2   248  PRO248      0.2575
     94  O          3.4290   17.6740   37.2600 O.2   248  PRO248     -0.2718
     95  CB         3.9820   20.4090   35.3580 C.3   248  PRO248      0.0282
     96  CG         3.4510   21.7810   35.0430 C.3   248  PRO248      0.0208
     97  CD         3.1490   22.3670   36.3860 C.3   248  PRO248      0.0893
     98  N          4.7520   19.2450   38.1930 N.am  249  MET249     -0.1980
     99  CA         5.5310   18.2770   38.9750 C.3   249  MET249      0.1605
    100  C          4.6310   17.4620   39.9280 C.2   249  MET249      0.2287
    101  O          4.9500   16.3340   40.2810 O.2   249  MET249     -0.2864
    102  CB         6.6170   19.0400   39.7480 C.3   249  MET249      0.0413
    103  CG         7.3460   18.2920   40.7990 C.3   249  MET249      0.0598
    104  SD         8.3740   19.4560   41.7530 S.3   249  MET249     -0.1393
    105  CE         7.3230   19.9580   42.9800 C.3   249  MET249      0.0692
    106  N          1.2880   16.9200   39.2220 N.3   251  ASP251     -0.1239
    107  CA         0.1360   16.4660   38.4440 C.3   251  ASP251      0.1674
    108  C          0.4450   15.1260   37.7780 C.2   251  ASP251      0.2266
    109  O          1.2140   15.0580   36.8520 O.2   251  ASP251     -0.2867
    110  CB        -0.2220   17.5330   37.4140 C.3   251  ASP251      0.1410
    111  CG        -1.5150   17.2420   36.6940 C.2   251  ASP251      0.3668
    112  OD1       -2.0490   16.1140   36.8360 O.co2 251  ASP251     -0.2456
    113  OD2       -2.0530   18.0910   35.9530 O.co2 251  ASP251     -0.2456
    114  N          0.6940   14.5530   34.0450 N.3   254  LYS254     -0.1231
    115  CA         1.8790   15.0420   33.3530 C.3   254  LYS254      0.1693
    116  C          3.1020   14.1440   33.5140 C.2   254  LYS254      0.2591
    117  O          4.2010   14.5580   33.1580 O.2   254  LYS254     -0.2718
    118  CB         2.2210   16.4590   33.8470 C.3   254  LYS254      0.0285
    119  CG         1.1290   17.4830   33.6060 C.3   254  LYS254      0.0035
    120  CD         0.8380   17.6460   32.1280 C.3   254  LYS254      0.0206
    121  CE        -0.1220   18.8000   31.8990 C.3   254  LYS254      0.1093
    122  NZ         0.5410   20.1130   32.1310 N.3   254  LYS254     -0.1314
    123  N          2.9210   12.9080   33.9770 N.am  255  ARG255     -0.1980
    124  CA         4.0640   12.0570   34.3200 C.3   255  ARG255      0.1597
    125  C          4.9900   11.7000   33.1490 C.2   255  ARG255      0.2287
    126  O          6.1520   11.3360   33.3590 O.2   255  ARG255     -0.2864
    127  CB         3.6140   10.7920   35.0490 C.3   255  ARG255      0.0334
    128  CG         2.7960    9.8230   34.2230 C.3   255  ARG255      0.0492
    129  CD         2.3220    8.6020   35.0280 C.3   255  ARG255      0.2205
    130  NE         0.9870    8.8230   35.5740 N.pl3 255  ARG255     -0.0865
    131  CZ        -0.1390    8.7750   34.8650 C.cat 255  ARG255      0.5346
    132  NH1       -0.1100    8.4920   33.5680 N.pl3 255  ARG255      0.1354
    133  NH2       -1.3040    9.0030   35.4530 N.pl3 255  ARG255      0.1354
    134  N          6.3030   13.7390   31.2930 N.3   257  GLU257     -0.1231
    135  CA         7.3060   14.8000   31.2780 C.3   257  GLU257      0.1699
    136  C          8.3150   14.7150   32.4340 C.2   257  GLU257      0.2592
    137  O          9.1280   15.6210   32.6110 O.2   257  GLU257     -0.2718
    138  CB         6.6100   16.1620   31.2830 C.3   257  GLU257      0.0402
    139  CG         5.7810   16.4120   30.0290 C.3   257  GLU257      0.1161
    140  CD         5.0480   17.7440   30.0570 C.2   257  GLU257      0.3649
    141  OE1        5.7040   18.7890   30.2630 O.co2 257  GLU257     -0.2457
    142  OE2        3.8160   17.7490   29.8530 O.co2 257  GLU257     -0.2457
    143  N          8.2850   13.6260   33.1990 N.am  258  VAL258     -0.1980
    144  CA         9.2400   13.4340   34.2800 C.3   258  VAL258      0.1595
    145  C         10.6990   13.6670   33.8600 C.2   258  VAL258      0.2287
    146  O         11.3830   14.4250   34.5430 O.2   258  VAL258     -0.2864
    147  CB         9.0390   12.0610   35.0030 C.3   258  VAL258      0.0276
    148  CG1       10.3010   11.6400   35.7360 C.3   258  VAL258      0.0022
    149  CG2        7.8800   12.1480   35.9760 C.3   258  VAL258      0.0022
    150  N         11.3510   17.2980   33.5680 N.3   261  GLY261     -0.1210
    151  CA        11.2960   17.9000   34.8810 C.3   261  GLY261      0.1956
    152  C         12.5820   17.6780   35.6510 C.2   261  GLY261      0.2611
    153  O         13.1090   18.5870   36.2920 O.2   261  GLY261     -0.2717
    154  N         13.1160   16.4660   35.5630 N.am  262  GLN262     -0.1979
    155  CA        14.3910   16.1530   36.1940 C.3   262  GLN262      0.1601
    156  C         15.5100   17.0410   35.6420 C.2   262  GLN262      0.2287
    157  O         16.2620   17.6240   36.4080 O.2   262  GLN262     -0.2864
    158  CB        14.7280   14.6790   36.0120 C.3   262  GLN262      0.0394
    159  CG        13.7490   13.7480   36.6920 C.3   262  GLN262      0.0908
    160  CD        13.9540   13.6630   38.1950 C.2   262  GLN262      0.2608
    161  OE1       15.0930   13.7240   38.6850 O.2   262  GLN262     -0.2717
    162  NE2       12.8460   13.5450   38.9370 N.am  262  GLN262     -0.0878
    163  N         15.2700   20.0010   34.4340 N.3   264  GLY264     -0.1210
    164  CA        15.0360   21.3110   35.0220 C.3   264  GLY264      0.1956
    165  C         15.6230   21.4330   36.4170 C.2   264  GLY264      0.2611
    166  O         16.3000   22.4040   36.7480 O.2   264  GLY264     -0.2717
    167  N         15.3580   20.4280   37.2370 N.am  265  PHE265     -0.1976
    168  CA        15.8190   20.4270   38.6230 C.3   265  PHE265      0.1639
    169  C         17.3250   20.3050   38.7140 C.2   265  PHE265      0.2290
    170  O         17.9590   20.9960   39.5030 O.2   265  PHE265     -0.2864
    171  CB        15.1550   19.2820   39.3790 C.3   265  PHE265      0.0560
    172  CG        15.7500   19.0150   40.7320 C.ar  265  PHE265     -0.0200
    173  CD1       15.3450   19.7460   41.8400 C.ar  265  PHE265     -0.0042
    174  CD2       16.7020   18.0340   40.8930 C.ar  265  PHE265     -0.0042
    175  CE1       15.8860   19.5010   43.0800 C.ar  265  PHE265     -0.0003
    176  CE2       17.2500   17.7820   42.1370 C.ar  265  PHE265     -0.0003
    177  CZ        16.8430   18.5130   43.2260 C.ar  265  PHE265     -0.0000
    178  N         18.8630   23.7140   37.5000 N.3   268  ALA268     -0.1231
    179  CA        18.5150   24.9020   38.2770 C.3   268  ALA268      0.1694
    180  C         18.8790   24.8030   39.7450 C.2   268  ALA268      0.2591
    181  O         19.0490   25.8230   40.3990 O.2   268  ALA268     -0.2718
    182  CB        17.0290   25.1760   38.1710 C.3   268  ALA268      0.0304
    183  N         18.9450   23.5800   40.2620 N.am  269  VAL269     -0.1980
    184  CA        19.0880   23.3550   41.6940 C.3   269  VAL269      0.1595
    185  C         20.2860   22.4660   41.9810 C.2   269  VAL269      0.2287
    186  O         21.2290   22.8950   42.6420 O.2   269  VAL269     -0.2864
    187  CB        17.8070   22.6890   42.3150 C.3   269  VAL269      0.0276
    188  CG1       17.9390   22.5580   43.8160 C.3   269  VAL269      0.0022
    189  CG2       16.5480   23.4690   41.9350 C.3   269  VAL269      0.0022
@<TRIPOS>BOND
     1   142   140   ar
     2   139   140    1
     3   139   138    1
     4   140   141   ar
     5   135   138    1
     6   135   134    1
     7   135   136    1
     8   121   120    1
     9   121   122    1
    10   120   119    1
    11   136   137    2
    12   136   143   am
    13   125   126    2
    14   125   124    1
    15   117   116    2
    16   143   144    1
    17   115   116    1
    18   115   118    1
    19   115   114    1
    20   116   123   am
    21   150   151    1
    22   132   131    1
    23   119   118    1
    24   145   144    1
    25   145   146    2
    26   123   124    1
    27   128   129    1
    28   128   127    1
    29   144   147    1
    30   124   127    1
    31   163   164    1
    32   131   133    1
    33   131   130    2
    34   151   152    1
    35   147   148    1
    36   147   149    1
    37   164   165    1
    38   129   130    1
    39    96    95    1
    40    96    97    1
    41    95    92    1
    42   154   152   am
    43   154   155    1
    44   156   155    1
    45   156   157    2
    46   152   153    2
    47   113   111   ar
    48   158   155    1
    49   158   159    1
    50    97    91    1
    51   165   166    2
    52   165   167   am
    53    92    91    1
    54    92    93    1
    55   159   160    1
    56   111   112   ar
    57   111   110    1
    58   109   108    2
    59   167   168    1
    60    94    93    2
    61    93    98   am
    62   110   107    1
    63   178   179    1
    64   108   107    1
    65   182   179    1
    66    65    64    1
    67    98    99    1
    68   160   161    2
    69   160   162   am
    70   179   180    1
    71    88    90   ar
    72    88    86   ar
    73   107   106    1
    74    90    89   ar
    75   168   169    1
    76   168   171    1
    77   169   170    2
    78    99   102    1
    79    99   100    1
    80    64    63   ar
    81    64    62   ar
    82    86    85   ar
    83    86    84   ar
    84    85    83   ar
    85   171   172    1
    86    63    61   ar
    87    89    87   ar
    88    62    60   ar
    89   180   183   am
    90   180   181    2
    91   102   103    1
    92   100   101    2
    93    84    87   ar
    94    84    82   ar
    95    61    59   ar
    96    60    59   ar
    97   183   184    1
    98    83    82   ar
    99    59    58    1
   100   172   174   ar
   101   172   173   ar
   102   103   104    1
   103    82    81    1
   104   174   176   ar
   105    45    42    1
   106    58    55    1
   107   184   185    1
   108   184   187    1
   109   104   105    1
   110   173   175   ar
   111   189   187    1
   112   185   186    2
   113    81    78    1
   114    37    36    2
   115   176   177   ar
   116   187   188    1
   117    42    43    1
   118    42    41    1
   119    43    44    2
   120    39    38    1
   121    38    35    1
   122    38    40    1
   123    78    77    1
   124    78    79    1
   125    55    56    1
   126    55    54    1
   127   175   177   ar
   128    17    15   ar
   129    17    19   ar
   130    36    35    1
   131    35    34    1
   132    57    56    2
   133    80    79    2
   134    73    75   ar
   135    73    71   ar
   136    15    14   ar
   137    77    68   am
   138    54    48   am
   139    70    71    1
   140    70    67    1
   141    19    18   ar
   142    75    76   ar
   143    69    68    2
   144    68    67    1
   145    71    72   ar
   146    31    30    2
   147    34    30   am
   148    14    13    1
   149    14    16   ar
   150    67    66    1
   151    48    49    2
   152    48    47    1
   153    52    50    1
   154    30    29    1
   155    18    16   ar
   156    13    10    1
   157    50    47    1
   158    50    51    1
   159    76    74   ar
   160    33    32    1
   161    53    51    1
   162    72    74   ar
   163    46    47    1
   164    12    11    2
   165    10    11    1
   166    10     9    1
   167    32    29    1
   168     8     6    1
   169    29    28    1
   170    23    22    2
   171    26    25    1
   172    24    25    1
   173    24    21    1
   174    27    25    1
   175     6     7    1
   176     6     5    1
   177    22    21    1
   178    21    20    1
   179     4     3    2
   180     5     2    1
   181     3     2    1
   182     2     1    1
