@<TRIPOS>MOLECULE
tmp/3hqyA00.pdb
 192 187 0 0 0
SMALL
GASTEIGER

@<TRIPOS>ATOM
      1  N          8.1790    9.1570   50.7980 N.3    62  TYR62      -0.1227
      2  CA         9.5330    9.7300   50.6790 C.3    62  TYR62       0.1736
      3  C          9.9870   10.4700   51.9580 C.2    62  TYR62       0.2595
      4  O         11.0330   10.1460   52.4710 O.2    62  TYR62      -0.2718
      5  CB         9.6270   10.6950   49.4860 C.3    62  TYR62       0.0548
      6  CG        10.9840   11.3700   49.3230 C.ar   62  TYR62      -0.0200
      7  CD1       12.1180   10.6410   48.9880 C.ar   62  TYR62      -0.0009
      8  CD2       11.1420   12.7390   49.5700 C.ar   62  TYR62      -0.0009
      9  CE1       13.3520   11.2480   48.8720 C.ar   62  TYR62       0.0417
     10  CE2       12.3660   13.3450   49.4580 C.ar   62  TYR62       0.0417
     11  CZ        13.4620   12.6110   49.0910 C.ar   62  TYR62       0.1957
     12  OH        14.6790   13.2500   48.9580 O.3    62  TYR62      -0.2866
     13  N          9.2280   11.4630   52.4400 N.am   63  HIS63      -0.1975
     14  CA         9.6130   12.2270   53.6490 C.3    63  HIS63       0.1656
     15  C          9.4160   11.4160   54.9310 C.2    63  HIS63       0.2291
     16  O          8.6890   11.8190   55.8560 O.2    63  HIS63      -0.2864
     17  CB         8.9070   13.5980   53.7060 C.3    63  HIS63       0.0771
     18  CG         9.3670   14.5380   52.6300 C.ar   63  HIS63       0.0820
     19  ND1        8.8990   14.4740   51.3420 N.ar   63  HIS63      -0.2267
     20  CD2       10.2540   15.5560   52.6510 C.ar   63  HIS63       0.1154
     21  CE1        9.5050   15.3880   50.6030 C.ar   63  HIS63       0.1986
     22  NE2       10.3270   16.0640   51.3770 N.ar   63  HIS63      -0.2212
     23  N         13.7300   24.4130   50.4890 N.3   173  LEU173     -0.1245
     24  CA        14.3910   24.6570   49.2100 C.3   173  LEU173      0.1561
     25  C         14.1480   26.0560   48.6600 C.2   173  LEU173      0.2260
     26  O         14.9240   26.5520   47.8660 O.2   173  LEU173     -0.2867
     27  CB        13.9630   23.6370   48.1380 C.3   173  LEU173      0.0270
     28  CG        14.8840   23.6020   46.9020 C.3   173  LEU173      0.0019
     29  CD1       16.2890   23.0910   47.2670 C.3   173  LEU173      0.0001
     30  CD2       14.2790   22.7340   45.7700 C.3   173  LEU173      0.0001
     31  N         20.0410   17.0390   51.8280 N.3   212  ASP212     -0.1225
     32  CA        18.6240   16.8410   51.5900 C.3   212  ASP212      0.1805
     33  C         18.3850   16.3470   50.1410 C.2   212  ASP212      0.2597
     34  O         17.5480   15.4720   49.9230 O.2   212  ASP212     -0.2718
     35  CB        17.8510   18.1330   51.8650 C.3   212  ASP212      0.1424
     36  CG        16.4170   17.8830   52.3580 C.2   212  ASP212      0.3668
     37  OD1       16.0020   16.6920   52.4570 O.co2 212  ASP212     -0.2456
     38  OD2       15.6450   18.8330   52.6620 O.co2 212  ASP212     -0.2456
     39  N         19.1520   16.8470   49.1660 N.am  213  LEU213     -0.1979
     40  CA        18.9710   16.4510   47.7600 C.3   213  LEU213      0.1596
     41  C         19.7310   15.2100   47.3410 C.2   213  LEU213      0.2287
     42  O         19.7380   14.8720   46.1310 O.2   213  LEU213     -0.2864
     43  CB        19.3990   17.5980   46.8080 C.3   213  LEU213      0.0297
     44  CG        18.6390   18.9100   46.9870 C.3   213  LEU213      0.0022
     45  CD1       19.0810   19.9860   46.0230 C.3   213  LEU213      0.0001
     46  CD2       17.2170   18.6860   46.8570 C.3   213  LEU213      0.0001
     47  N         19.6660   12.1420   46.9930 N.3   215  SER215     -0.1202
     48  CA        19.2230   11.0410   46.1320 C.3   215  SER215      0.2020
     49  C         19.8050   11.1750   44.7290 C.2   215  SER215      0.2618
     50  O         20.0580   10.1670   44.0480 O.2   215  SER215     -0.2717
     51  CB        17.6880   10.9260   46.0910 C.3   215  SER215      0.2103
     52  OG        17.1160   11.8520   45.1950 O.3   215  SER215     -0.2182
     53  N         20.0580   12.4120   44.2990 N.am  216  VAL216     -0.1979
     54  CA        20.5860   12.6520   42.9520 C.3   216  VAL216      0.1595
     55  C         22.0970   12.4590   42.8630 C.2   216  VAL216      0.2287
     56  O         22.6790   12.6830   41.7960 O.2   216  VAL216     -0.2864
     57  CB        20.1660   14.0510   42.3900 C.3   216  VAL216      0.0276
     58  CG1       18.6200   14.2440   42.4360 C.3   216  VAL216      0.0022
     59  CG2       20.8940   15.2220   43.0980 C.3   216  VAL216      0.0022
     60  N         13.4060    8.4450   42.9100 N.3   227  ALA227     -0.1245
     61  CA        12.4990    9.3560   42.2090 C.3   227  ALA227      0.1562
     62  C         11.0370    8.8290   42.1880 C.2   227  ALA227      0.2260
     63  O         10.1020    9.6290   42.2480 O.2   227  ALA227     -0.2867
     64  CB        12.9880    9.6220   40.7910 C.3   227  ALA227      0.0290
     65  N          9.4770    9.9860   45.4170 N.3   230  ILE230     -0.1231
     66  CA         9.2740   11.4270   45.4040 C.3   230  ILE230      0.1692
     67  C          7.9900   11.7690   44.6240 C.2   230  ILE230      0.2592
     68  O          7.1160   12.5130   45.1220 O.2   230  ILE230     -0.2718
     69  CB        10.5010   12.1680   44.8650 C.3   230  ILE230      0.0266
     70  CG1       11.6850   11.9490   45.8100 C.3   230  ILE230      0.0019
     71  CG2       10.2180   13.6630   44.7300 C.3   230  ILE230      0.0020
     72  CD1       13.0050   12.4690   45.2500 C.3   230  ILE230      0.0001
     73  N          7.8510   11.2110   43.4260 N.am  231  TYR231     -0.1976
     74  CA         6.6650   11.4630   42.6150 C.3   231  TYR231      0.1639
     75  C          5.3720   10.9110   43.2320 C.2   231  TYR231      0.2290
     76  O          4.3100   11.4730   43.0220 O.2   231  TYR231     -0.2864
     77  CB         6.8470   10.9210   41.1930 C.3   231  TYR231      0.0560
     78  CG         7.7330   11.7640   40.3320 C.ar  231  TYR231     -0.0198
     79  CD1        7.3770   13.0750   39.9870 C.ar  231  TYR231     -0.0009
     80  CD2        8.9350   11.2610   39.8440 C.ar  231  TYR231     -0.0009
     81  CE1        8.2280   13.8650   39.2010 C.ar  231  TYR231      0.0417
     82  CE2        9.7790   12.0260   39.0720 C.ar  231  TYR231      0.0417
     83  CZ         9.4220   13.3280   38.7330 C.ar  231  TYR231      0.1957
     84  OH        10.2770   14.0540   37.9160 O.3   231  TYR231     -0.2866
     85  N          4.4020   13.7890   45.2840 N.3   234  PHE234     -0.1227
     86  CA         4.0250   14.9430   44.4730 C.3   234  PHE234      0.1736
     87  C          2.6700   14.7480   43.7770 C.2   234  PHE234      0.2595
     88  O          1.8750   15.6810   43.6970 O.2   234  PHE234     -0.2718
     89  CB         5.0430   15.2500   43.3840 C.3   234  PHE234      0.0547
     90  CG         6.3550   15.8230   43.8680 C.ar  234  PHE234     -0.0202
     91  CD1        6.5170   16.3690   45.1370 C.ar  234  PHE234     -0.0042
     92  CD2        7.4330   15.8180   43.0210 C.ar  234  PHE234     -0.0042
     93  CE1        7.7520   16.9030   45.5190 C.ar  234  PHE234     -0.0003
     94  CE2        8.6480   16.3540   43.4030 C.ar  234  PHE234     -0.0003
     95  CZ         8.8020   16.8850   44.6490 C.ar  234  PHE234     -0.0000
     96  N          2.4560   13.5770   43.1980 N.am  235  TRP235     -0.1976
     97  CA         1.2030   13.2800   42.4890 C.3   235  TRP235      0.1640
     98  C          0.0020   13.1970   43.4480 C.2   235  TRP235      0.2290
     99  O         -1.0930   13.6380   43.0960 O.2   235  TRP235     -0.2864
    100  CB         1.3460   12.0140   41.6200 C.3   235  TRP235      0.0576
    101  CG         2.3550   12.1810   40.5240 C.ar  235  TRP235      0.0006
    102  CD1        2.8050   13.3610   40.0030 C.ar  235  TRP235      0.0946
    103  CD2        3.0570   11.1450   39.8230 C.ar  235  TRP235      0.0152
    104  NE1        3.7440   13.1250   39.0330 N.ar  235  TRP235     -0.2442
    105  CE2        3.9290   11.7730   38.9100 C.ar  235  TRP235      0.0810
    106  CE3        3.0750    9.7430   39.9110 C.ar  235  TRP235      0.0012
    107  CZ2        4.7820   11.0500   38.0660 C.ar  235  TRP235      0.0191
    108  CZ3        3.9080    9.0220   39.0690 C.ar  235  TRP235      0.0001
    109  CH2        4.7470    9.6720   38.1560 C.ar  235  TRP235      0.0015
    110  N          2.6890   21.1500   36.7500 N.3   250  PRO250     -0.2102
    111  CA         2.9310   19.9000   36.0320 C.3   250  PRO250      0.1504
    112  C          3.6860   18.8370   36.8650 C.2   250  PRO250      0.2575
    113  O          3.3450   17.6510   36.8260 O.2   250  PRO250     -0.2718
    114  CB         3.7870   20.3580   34.8630 C.3   250  PRO250      0.0282
    115  CG         3.3450   21.7950   34.6240 C.3   250  PRO250      0.0208
    116  CD         3.0940   22.3370   35.9710 C.3   250  PRO250      0.0893
    117  N          4.6840   19.2670   37.6280 N.am  251  MET251     -0.1980
    118  CA         5.4710   18.3240   38.4670 C.3   251  MET251      0.1605
    119  C          4.5670   17.4760   39.3990 C.2   251  MET251      0.2287
    120  O          4.8920   16.3600   39.7130 O.2   251  MET251     -0.2864
    121  CB         6.5090   19.0970   39.2830 C.3   251  MET251      0.0413
    122  CG         7.4620   18.2440   40.0790 C.3   251  MET251      0.0598
    123  SD         8.5320   19.2270   41.1760 S.3   251  MET251     -0.1393
    124  CE         7.3420   19.6390   42.4890 C.3   251  MET251      0.0692
    125  N          1.2270   16.8330   38.7770 N.3   253  ASP253     -0.1239
    126  CA         0.0870   16.3760   37.9790 C.3   253  ASP253      0.1674
    127  C          0.4710   15.0380   37.3750 C.2   253  ASP253      0.2266
    128  O          1.2860   14.9810   36.4710 O.2   253  ASP253     -0.2867
    129  CB        -0.1950   17.4220   36.8960 C.3   253  ASP253      0.1410
    130  CG        -1.4820   17.1640   36.1330 C.2   253  ASP253      0.3668
    131  OD1       -2.0770   16.0880   36.2750 O.co2 253  ASP253     -0.2456
    132  OD2       -1.9590   17.9930   35.3420 O.co2 253  ASP253     -0.2456
    133  N          0.8790   14.4540   33.6240 N.3   256  LYS256     -0.1231
    134  CA         2.0660   14.9010   32.8990 C.3   256  LYS256      0.1693
    135  C          3.2680   14.0180   33.1880 C.2   256  LYS256      0.2595
    136  O          4.3980   14.4520   32.9790 O.2   256  LYS256     -0.2718
    137  CB         2.4030   16.3670   33.2480 C.3   256  LYS256      0.0285
    138  CG         1.2970   17.3530   33.0260 C.3   256  LYS256      0.0035
    139  CD         0.9230   17.4910   31.5920 C.3   256  LYS256      0.0206
    140  CE        -0.1330   18.6000   31.3900 C.3   256  LYS256      0.1093
    141  NZ         0.4830   19.9650   31.3970 N.3   256  LYS256     -0.1314
    142  N          3.0360   12.7840   33.6310 N.am  257  ARG257     -0.1934
    143  CA         4.1120   11.8560   33.9740 C.3   257  ARG257      0.1813
    144  C          5.0540   11.5390   32.8230 C.2   257  ARG257      0.2332
    145  O          6.2170   11.2420   33.0600 O.2   257  ARG257     -0.2860
    146  CB         3.5780   10.5310   34.5700 C.2   257  ARG257      0.0019
    147  CG         2.8120    9.6130   33.6110 C.2   257  ARG257      0.0178
    148  CD         2.3060    8.2730   34.2260 C.3   257  ARG257      0.2464
    149  NE         1.0490    8.4440   34.9540 N.pl3 257  ARG257     -0.0815
    150  CZ        -0.1300    8.7650   34.3970 C.cat 257  ARG257      0.5349
    151  NH1       -0.2600    8.9320   33.0940 N.pl3 257  ARG257      0.1354
    152  NH2       -1.1940    8.9300   35.1580 N.pl3 257  ARG257      0.1354
    153  N          6.3640   13.5650   31.0050 N.3   259  GLU259     -0.1231
    154  CA         7.3340   14.6840   30.9800 C.3   259  GLU259      0.1699
    155  C          8.3660   14.6340   32.1110 C.2   259  GLU259      0.2592
    156  O          9.1730   15.5540   32.2650 O.2   259  GLU259     -0.2718
    157  CB         6.6020   16.0170   31.0050 C.3   259  GLU259      0.0402
    158  CG         5.6750   16.2300   29.8180 C.3   259  GLU259      0.1161
    159  CD         4.8760   17.5210   29.9160 C.2   259  GLU259      0.3649
    160  OE1        5.1660   18.3690   30.7970 O.co2 259  GLU259     -0.2457
    161  OE2        3.9450   17.6780   29.1050 O.co2 259  GLU259     -0.2457
    162  N          8.3420   13.5610   32.8990 N.am  260  VAL260     -0.1980
    163  CA         9.3150   13.3510   33.9570 C.3   260  VAL260      0.1595
    164  C         10.7550   13.6270   33.5230 C.2   260  VAL260      0.2287
    165  O         11.4500   14.3750   34.2170 O.2   260  VAL260     -0.2864
    166  CB         9.1680   11.9210   34.6120 C.3   260  VAL260      0.0276
    167  CG1       10.4080   11.4980   35.3480 C.3   260  VAL260      0.0022
    168  CG2        8.0090   11.9160   35.5550 C.3   260  VAL260      0.0022
    169  N         11.4220   17.2080   33.1050 N.3   263  GLY263     -0.1210
    170  CA        11.3270   17.8110   34.4110 C.3   263  GLY263      0.1956
    171  C         12.5900   17.6000   35.2170 C.2   263  GLY263      0.2611
    172  O         13.0750   18.5290   35.8580 O.2   263  GLY263     -0.2717
    173  N         13.1390   16.3980   35.1290 N.am  264  GLN264     -0.1979
    174  CA        14.3940   16.0880   35.7790 C.3   264  GLN264      0.1601
    175  C         15.5270   16.9240   35.2090 C.2   264  GLN264      0.2287
    176  O         16.2880   17.5110   35.9610 O.2   264  GLN264     -0.2864
    177  CB        14.6960   14.5780   35.6970 C.3   264  GLN264      0.0394
    178  CG        13.6950   13.7120   36.4600 C.3   264  GLN264      0.0908
    179  CD        13.9590   13.7020   37.9660 C.2   264  GLN264      0.2608
    180  OE1       15.1200   13.7570   38.4080 O.2   264  GLN264     -0.2717
    181  NE2       12.8820   13.6630   38.7560 N.am  264  GLN264     -0.0878
    182  N         15.3820   20.3440   36.8170 N.3   267  PHE267     -0.1241
    183  CA        15.8510   20.3040   38.1960 C.3   267  PHE267      0.1605
    184  C         17.3630   20.2020   38.2840 C.2   267  PHE267      0.2264
    185  O         17.9910   20.9080   39.0610 O.2   267  PHE267     -0.2867
    186  CB        15.2310   19.0950   38.9150 C.3   267  PHE267      0.0534
    187  CG        15.6160   18.9930   40.3580 C.ar  267  PHE267     -0.0203
    188  CD1       14.9770   19.7860   41.3120 C.ar  267  PHE267     -0.0042
    189  CD2       16.6150   18.1180   40.7620 C.ar  267  PHE267     -0.0042
    190  CE1       15.3270   19.7090   42.6460 C.ar  267  PHE267     -0.0003
    191  CE2       16.9640   18.0320   42.0940 C.ar  267  PHE267     -0.0003
    192  CZ        16.3280   18.8290   43.0390 C.ar  267  PHE267     -0.0000
@<TRIPOS>BOND
     1   161   159   ar
     2   158   159    1
     3   158   157    1
     4   159   160   ar
     5   154   153    1
     6   154   157    1
     7   154   155    1
     8   140   141    1
     9   140   139    1
    10   139   138    1
    11   155   156    2
    12   155   162   am
    13   144   145    2
    14   144   143    1
    15   162   163    1
    16   134   135    1
    17   134   137    1
    18   134   133    1
    19   136   135    2
    20   138   137    1
    21   151   150    1
    22   169   170    1
    23   135   142   am
    24   164   163    1
    25   164   165    2
    26   147   148    1
    27   147   146    2
    28   142   143    1
    29   163   166    1
    30   143   146    1
    31   148   149    1
    32   150   149    2
    33   150   152    1
    34   170   171    1
    35   166   167    1
    36   166   168    1
    37   115   114    1
    38   115   116    1
    39   114   111    1
    40   173   171   am
    41   173   174    1
    42   175   174    1
    43   175   176    2
    44   171   172    2
    45   132   130   ar
    46   177   174    1
    47   177   178    1
    48   116   110    1
    49   111   110    1
    50   111   112    1
    51   130   131   ar
    52   130   129    1
    53   178   179    1
    54   128   127    2
    55   182   183    1
    56   113   112    2
    57   112   117   am
    58   129   126    1
    59   127   126    1
    60   117   118    1
    61    84    83    1
    62   179   180    2
    63   179   181   am
    64   126   125    1
    65   107   109   ar
    66   107   105   ar
    67   109   108   ar
    68   183   184    1
    69   183   186    1
    70   184   185    2
    71   118   121    1
    72   118   119    1
    73    83    82   ar
    74    83    81   ar
    75   105   104   ar
    76   105   103   ar
    77   186   187    1
    78   104   102   ar
    79   108   106   ar
    80    82    80   ar
    81    81    79   ar
    82   121   122    1
    83   119   120    2
    84   103   106   ar
    85   103   101   ar
    86    80    78   ar
    87    79    78   ar
    88   102   101   ar
    89   122   123    1
    90    78    77    1
    91   187   189   ar
    92   187   188   ar
    93   101   100    1
    94   189   191   ar
    95    64    61    1
    96   123   124    1
    97    77    74    1
    98   188   190   ar
    99   100    97    1
   100    56    55    2
   101   191   192   ar
   102    62    61    1
   103    62    63    2
   104    61    60    1
   105    57    58    1
   106    57    54    1
   107    57    59    1
   108    97    96    1
   109    97    98    1
   110    74    75    1
   111    74    73    1
   112   190   192   ar
   113    55    54    1
   114    54    53    1
   115    92    94   ar
   116    92    90   ar
   117    76    75    2
   118    99    98    2
   119    96    87   am
   120    89    90    1
   121    89    86    1
   122    94    95   ar
   123    73    67   am
   124    88    87    2
   125    87    86    1
   126    90    91   ar
   127    50    49    2
   128    53    49   am
   129    86    85    1
   130    67    68    2
   131    67    66    1
   132    95    93   ar
   133    49    48    1
   134    71    69    1
   135    69    66    1
   136    69    70    1
   137    91    93   ar
   138    52    51    1
   139    72    70    1
   140    66    65    1
   141    30    28    1
   142    45    44    1
   143    51    48    1
   144    42    41    2
   145    48    47    1
   146    43    44    1
   147    43    40    1
   148    46    44    1
   149    28    29    1
   150    28    27    1
   151    41    40    1
   152    40    39    1
   153    26    25    2
   154    27    24    1
   155    25    24    1
   156     9     7   ar
   157     9    11   ar
   158    12    11    1
   159     7     6   ar
   160    11    10   ar
   161    39    33   am
   162    24    23    1
   163     6     5    1
   164     6     8   ar
   165    10     8   ar
   166     5     2    1
   167    34    33    2
   168    33    32    1
   169    21    19   ar
   170    21    22   ar
   171     2     1    1
   172     2     3    1
   173    19    18   ar
   174    22    20   ar
   175    32    31    1
   176    32    35    1
   177    35    36    1
   178     3    13   am
   179     3     4    2
   180    36    37   ar
   181    36    38   ar
   182    13    14    1
   183    18    20   ar
   184    18    17    1
   185    14    17    1
   186    14    15    1
   187    15    16    2
