@<TRIPOS>MOLECULE
tmp/3hr1A00.pdb
 217 212 0 0 0
SMALL
GASTEIGER

@<TRIPOS>ATOM
      1  N          8.0820    9.2050   50.9410 N.3    62  TYR62      -0.1227
      2  CA         9.4280    9.7800   50.8510 C.3    62  TYR62       0.1736
      3  C          9.9150   10.4400   52.1530 C.2    62  TYR62       0.2595
      4  O         10.9870   10.0710   52.6430 O.2    62  TYR62      -0.2718
      5  CB         9.5330   10.7520   49.6690 C.3    62  TYR62       0.0548
      6  CG        10.9170   11.3800   49.5300 C.ar   62  TYR62      -0.0200
      7  CD1       11.9480   10.7050   48.8700 C.ar   62  TYR62      -0.0009
      8  CD2       11.1960   12.6570   50.0710 C.ar   62  TYR62      -0.0009
      9  CE1       13.2170   11.2840   48.7330 C.ar   62  TYR62       0.0417
     10  CE2       12.4770   13.2460   49.9570 C.ar   62  TYR62       0.0417
     11  CZ        13.4720   12.5530   49.2790 C.ar   62  TYR62       0.1957
     12  OH        14.7150   13.1210   49.1380 O.3    62  TYR62      -0.2866
     13  N          9.1500   11.3940   52.7000 N.am   63  HIS63      -0.1975
     14  CA         9.6020   12.1790   53.8710 C.3    63  HIS63       0.1656
     15  C          9.4350   11.4030   55.1640 C.2    63  HIS63       0.2291
     16  O          8.6820   11.8000   56.0650 O.2    63  HIS63      -0.2864
     17  CB         8.9400   13.5710   53.9320 C.3    63  HIS63       0.0771
     18  CG         9.3830   14.4820   52.8260 C.ar   63  HIS63       0.0820
     19  ND1        8.6430   14.6690   51.6810 N.ar   63  HIS63      -0.2267
     20  CD2       10.5340   15.1760   52.6440 C.ar   63  HIS63       0.1154
     21  CE1        9.2830   15.4980   50.8710 C.ar   63  HIS63       0.1986
     22  NE2       10.4380   15.8180   51.4300 N.ar   63  HIS63      -0.2212
     23  N         16.6800   23.6450   55.3040 N.3   171  THR171     -0.1218
     24  CA        16.1530   22.5760   54.4300 C.3   171  THR171      0.1862
     25  C         14.8630   22.9870   53.7000 C.2   171  THR171      0.2287
     26  O         14.3440   22.2170   52.8910 O.2   171  THR171     -0.2866
     27  CB        15.9240   21.2290   55.2170 C.3   171  THR171      0.1770
     28  OG1       14.9210   21.4190   56.2160 O.3   171  THR171     -0.2211
     29  CG2       17.2430   20.7590   55.8720 C.3   171  THR171      0.0375
     30  N         13.7320   24.3770   50.8030 N.3   173  LEU173     -0.1245
     31  CA        14.3690   24.6180   49.4920 C.3   173  LEU173      0.1561
     32  C         14.1090   26.0460   48.9680 C.2   173  LEU173      0.2260
     33  O         14.9190   26.5900   48.2150 O.2   173  LEU173     -0.2867
     34  CB        13.9410   23.5900   48.4350 C.3   173  LEU173      0.0270
     35  CG        14.8450   23.5060   47.2010 C.3   173  LEU173      0.0019
     36  CD1       16.3090   23.1070   47.5780 C.3   173  LEU173      0.0001
     37  CD2       14.2420   22.5390   46.1680 C.3   173  LEU173      0.0001
     38  N         20.0210   17.0700   52.2100 N.3   212  ASP212     -0.1225
     39  CA        18.5970   16.8650   51.9610 C.3   212  ASP212      0.1805
     40  C         18.3190   16.2810   50.5400 C.2   212  ASP212      0.2597
     41  O         17.4440   15.4130   50.3720 O.2   212  ASP212     -0.2718
     42  CB        17.8110   18.1540   52.1910 C.3   212  ASP212      0.1424
     43  CG        16.3220   17.8930   52.4430 C.2   212  ASP212      0.3668
     44  OD1       15.9390   16.7080   52.6860 O.co2 212  ASP212     -0.2456
     45  OD2       15.5400   18.8640   52.3550 O.co2 212  ASP212     -0.2456
     46  N         19.0860   16.7390   49.5410 N.am  213  LEU213     -0.1979
     47  CA        18.8870   16.3340   48.1370 C.3   213  LEU213      0.1596
     48  C         19.7160   15.1110   47.7150 C.2   213  LEU213      0.2287
     49  O         19.7500   14.7630   46.5290 O.2   213  LEU213     -0.2864
     50  CB        19.2520   17.4930   47.1940 C.3   213  LEU213      0.0297
     51  CG        18.4690   18.8030   47.3250 C.3   213  LEU213      0.0022
     52  CD1       18.9290   19.8030   46.2490 C.3   213  LEU213      0.0001
     53  CD2       16.9630   18.5980   47.2620 C.3   213  LEU213      0.0001
     54  N         19.6940   12.0470   47.4990 N.3   215  SER215     -0.1202
     55  CA        19.2190   10.9540   46.6340 C.3   215  SER215      0.2020
     56  C         19.6860   11.1270   45.1880 C.2   215  SER215      0.2618
     57  O         19.8360   10.1300   44.4620 O.2   215  SER215     -0.2717
     58  CB        17.7080   10.7870   46.7180 C.3   215  SER215      0.2103
     59  OG        17.3800   10.4130   48.0580 O.3   215  SER215     -0.2182
     60  N         19.9270   12.3690   44.7610 N.am  216  VAL216     -0.1979
     61  CA        20.4170   12.5880   43.3730 C.3   216  VAL216      0.1595
     62  C         21.9380   12.4040   43.2270 C.2   216  VAL216      0.2287
     63  O         22.5030   12.6020   42.1500 O.2   216  VAL216     -0.2864
     64  CB        19.9810   13.9780   42.7870 C.3   216  VAL216      0.0276
     65  CG1       18.4380   14.1450   42.9160 C.3   216  VAL216      0.0022
     66  CG2       20.7700   15.1630   43.4570 C.3   216  VAL216      0.0022
     67  N         19.0760    6.1920   42.6620 N.3   223  THR223     -0.1218
     68  CA        18.4250    7.4560   42.2640 C.3   223  THR223      0.1862
     69  C         17.1020    7.2230   41.5140 C.2   223  THR223      0.2287
     70  O         16.0630    7.8270   41.8490 O.2   223  THR223     -0.2866
     71  CB        19.4010    8.3000   41.4210 C.3   223  THR223      0.1770
     72  OG1       20.5620    8.5830   42.2190 O.3   223  THR223     -0.2211
     73  CG2       18.7340    9.6060   40.9060 C.3   223  THR223      0.0375
     74  N         14.4240    5.9200   43.8720 N.3   226  THR226     -0.1203
     75  CA        14.0070    6.9440   44.8280 C.3   226  THR226      0.1994
     76  C         13.0330    7.9570   44.1900 C.2   226  THR226      0.2617
     77  O         12.0920    8.4320   44.8390 O.2   226  THR226     -0.2717
     78  CB        15.2320    7.6230   45.4980 C.3   226  THR226      0.1784
     79  OG1       16.0100    6.6200   46.1790 O.3   226  THR226     -0.2211
     80  CG2       14.7850    8.6780   46.5180 C.3   226  THR226      0.0376
     81  N         13.2370    8.2370   42.8990 N.am  227  ALA227     -0.1979
     82  CA        12.3490    9.1540   42.1800 C.3   227  ALA227      0.1597
     83  C         10.8780    8.6800   42.2660 C.2   227  ALA227      0.2287
     84  O          9.9600    9.5010   42.3760 O.2   227  ALA227     -0.2864
     85  CB        12.7990    9.3060   40.7440 C.3   227  ALA227      0.0319
     86  N          9.4290   10.0940   45.6970 N.3   230  ILE230     -0.1231
     87  CA         9.1610   11.5420   45.7190 C.3   230  ILE230      0.1692
     88  C          7.9160   11.8920   44.8820 C.2   230  ILE230      0.2592
     89  O          7.0300   12.6170   45.3490 O.2   230  ILE230     -0.2718
     90  CB        10.4070   12.4190   45.3600 C.3   230  ILE230      0.0266
     91  CG1       10.1820   13.9070   45.7210 C.3   230  ILE230      0.0019
     92  CG2       10.7910   12.2820   43.9120 C.3   230  ILE230      0.0020
     93  CD1        9.7570   14.1620   47.1600 C.3   230  ILE230      0.0001
     94  N          7.8330   11.3460   43.6680 N.am  231  TYR231     -0.1976
     95  CA         6.6480   11.5710   42.8360 C.3   231  TYR231      0.1639
     96  C          5.3520   10.9880   43.4250 C.2   231  TYR231      0.2290
     97  O          4.2790   11.5610   43.2290 O.2   231  TYR231     -0.2864
     98  CB         6.8770   11.1240   41.3860 C.3   231  TYR231      0.0560
     99  CG         7.7450   12.0840   40.5920 C.ar  231  TYR231     -0.0198
    100  CD1        7.2670   13.3550   40.2160 C.ar  231  TYR231     -0.0009
    101  CD2        9.0350   11.7260   40.2130 C.ar  231  TYR231     -0.0009
    102  CE1        8.0650   14.2440   39.4820 C.ar  231  TYR231      0.0417
    103  CE2        9.8430   12.6060   39.4810 C.ar  231  TYR231      0.0417
    104  CZ         9.3560   13.8580   39.1110 C.ar  231  TYR231      0.1957
    105  OH        10.1640   14.7190   38.3830 O.3   231  TYR231     -0.2866
    106  N          4.3660   13.8720   45.5450 N.3   234  PHE234     -0.1227
    107  CA         3.9680   15.0320   44.7250 C.3   234  PHE234      0.1736
    108  C          2.6370   14.8280   43.9920 C.2   234  PHE234      0.2595
    109  O          1.7930   15.7190   43.9780 O.2   234  PHE234     -0.2718
    110  CB         5.0540   15.4240   43.7180 C.3   234  PHE234      0.0547
    111  CG         6.2730   16.0520   44.3490 C.ar  234  PHE234     -0.0202
    112  CD1        6.2600   16.4640   45.6850 C.ar  234  PHE234     -0.0042
    113  CD2        7.4210   16.2670   43.5960 C.ar  234  PHE234     -0.0042
    114  CE1        7.4060   17.0560   46.2710 C.ar  234  PHE234     -0.0003
    115  CE2        8.5510   16.8580   44.1650 C.ar  234  PHE234     -0.0003
    116  CZ         8.5420   17.2450   45.5080 C.ar  234  PHE234     -0.0000
    117  N          2.4630   13.6550   43.3900 N.am  235  TRP235     -0.1976
    118  CA         1.2110   13.3630   42.6890 C.3   235  TRP235      0.1640
    119  C          0.0070   13.2960   43.6380 C.2   235  TRP235      0.2290
    120  O         -1.0730   13.7620   43.2730 O.2   235  TRP235     -0.2864
    121  CB         1.3390   12.0990   41.8080 C.3   235  TRP235      0.0576
    122  CG         2.3550   12.2560   40.6870 C.ar  235  TRP235      0.0006
    123  CD1        2.7380   13.4260   40.0560 C.ar  235  TRP235      0.0946
    124  CD2        3.1040   11.2100   40.0600 C.ar  235  TRP235      0.0152
    125  NE1        3.6860   13.1670   39.1000 N.ar  235  TRP235     -0.2442
    126  CE2        3.9330   11.8170   39.0740 C.ar  235  TRP235      0.0810
    127  CE3        3.1840    9.8250   40.2550 C.ar  235  TRP235      0.0012
    128  CZ2        4.8230   11.0770   38.2780 C.ar  235  TRP235      0.0191
    129  CZ3        4.0710    9.0770   39.4460 C.ar  235  TRP235      0.0001
    130  CH2        4.8750    9.7170   38.4730 C.ar  235  TRP235      0.0015
    131  N          2.6850   21.2070   36.9570 N.3   250  PRO250     -0.2102
    132  CA         2.9180   19.9480   36.2450 C.3   250  PRO250      0.1504
    133  C          3.6580   18.8790   37.0780 C.2   250  PRO250      0.2575
    134  O          3.2920   17.6980   37.0270 O.2   250  PRO250     -0.2718
    135  CB         3.7440   20.3860   35.0370 C.3   250  PRO250      0.0282
    136  CG         3.3060   21.8180   34.8100 C.3   250  PRO250      0.0208
    137  CD         3.1560   22.3740   36.1790 C.3   250  PRO250      0.0893
    138  N          4.6470   19.2980   37.8730 N.am  251  MET251     -0.1980
    139  CA         5.4050   18.3580   38.7110 C.3   251  MET251      0.1605
    140  C          4.4860   17.5160   39.6190 C.2   251  MET251      0.2287
    141  O          4.7820   16.3540   39.8920 O.2   251  MET251     -0.2864
    142  CB         6.4160   19.1260   39.5470 C.3   251  MET251      0.0413
    143  CG         7.2340   18.2840   40.5090 C.3   251  MET251      0.0598
    144  SD         8.3000   19.3810   41.5020 S.3   251  MET251     -0.1393
    145  CE         7.1940   19.9760   42.7710 C.3   251  MET251      0.0692
    146  N          0.6940   14.4580   33.8830 N.3   256  LYS256     -0.1231
    147  CA         1.8730   14.9500   33.1550 C.3   256  LYS256      0.1693
    148  C          3.0980   14.0650   33.4170 C.2   256  LYS256      0.2591
    149  O          4.2310   14.4480   33.1140 O.2   256  LYS256     -0.2718
    150  CB         2.1700   16.4120   33.5400 C.3   256  LYS256      0.0285
    151  CG         1.0540   17.4060   33.2200 C.3   256  LYS256      0.0035
    152  CD         0.7490   17.4490   31.7250 C.3   256  LYS256      0.0206
    153  CE        -0.2840   18.5220   31.4080 C.3   256  LYS256      0.1093
    154  NZ         0.3180   19.8720   31.5480 N.3   256  LYS256     -0.1314
    155  N          2.8520   12.8580   33.9360 N.am  257  ARG257     -0.1980
    156  CA         3.9290   11.9650   34.3660 C.3   257  ARG257      0.1597
    157  C          4.9290   11.5520   33.2660 C.2   257  ARG257      0.2287
    158  O          6.0900   11.2380   33.5520 O.2   257  ARG257     -0.2864
    159  CB         3.3530   10.7290   35.0670 C.3   257  ARG257      0.0334
    160  CG         2.6120    9.7870   34.1320 C.3   257  ARG257      0.0492
    161  CD         2.1650    8.5040   34.8270 C.3   257  ARG257      0.2205
    162  NE         0.8600    8.6580   35.4680 N.pl3 257  ARG257     -0.0865
    163  CZ        -0.2970    8.7810   34.8130 C.cat 257  ARG257      0.5346
    164  NH1       -0.3270    8.7800   33.4880 N.pl3 257  ARG257      0.1354
    165  NH2       -1.4270    8.9230   35.4860 N.pl3 257  ARG257      0.1354
    166  N          6.3250   13.4510   31.3600 N.3   259  GLU259     -0.1231
    167  CA         7.3180   14.5400   31.2860 C.3   259  GLU259      0.1699
    168  C          8.3470   14.5080   32.4420 C.2   259  GLU259      0.2592
    169  O          9.1820   15.4200   32.5800 O.2   259  GLU259     -0.2718
    170  CB         6.6050   15.9050   31.2120 C.3   259  GLU259      0.0402
    171  CG         5.8170   16.1020   29.9210 C.3   259  GLU259      0.1161
    172  CD         4.9470   17.3500   29.9420 C.2   259  GLU259      0.3649
    173  OE1        5.4440   18.4200   30.3290 O.co2 259  GLU259     -0.2457
    174  OE2        3.7630   17.2610   29.5680 O.co2 259  GLU259     -0.2457
    175  N          8.2890   13.4520   33.2640 N.am  260  VAL260     -0.1980
    176  CA         9.2590   13.2700   34.3590 C.3   260  VAL260      0.1595
    177  C         10.7360   13.4910   33.9450 C.2   260  VAL260      0.2287
    178  O         11.4350   14.2320   34.6370 O.2   260  VAL260     -0.2864
    179  CB         9.0490   11.9230   35.1470 C.3   260  VAL260      0.0276
    180  CG1       10.2610   11.5880   36.0120 C.3   260  VAL260      0.0022
    181  CG2        7.8090   12.0370   36.0140 C.3   260  VAL260      0.0022
    182  N         11.3010   17.1070   33.4920 N.3   263  GLY263     -0.1210
    183  CA        11.2100   17.7490   34.8060 C.3   263  GLY263      0.1956
    184  C         12.4880   17.5630   35.6120 C.2   263  GLY263      0.2611
    185  O         13.0290   18.5100   36.1970 O.2   263  GLY263     -0.2717
    186  N         13.0040   16.3380   35.5930 N.am  264  GLN264     -0.1979
    187  CA        14.2660   16.0200   36.2570 C.3   264  GLN264      0.1601
    188  C         15.4340   16.8280   35.6740 C.2   264  GLN264      0.2287
    189  O         16.1800   17.4560   36.3990 O.2   264  GLN264     -0.2864
    190  CB        14.5060   14.5110   36.2200 C.3   264  GLN264      0.0394
    191  CG        13.5860   13.7530   37.1940 C.3   264  GLN264      0.0908
    192  CD        13.8200   14.1400   38.6520 C.2   264  GLN264      0.2608
    193  OE1       14.9200   13.9850   39.1930 O.2   264  GLN264     -0.2717
    194  NE2       12.7840   14.6640   39.2920 N.am  264  GLN264     -0.0878
    195  N         15.3160   20.2650   37.1000 N.3   267  PHE267     -0.1227
    196  CA        15.7170   20.2810   38.4910 C.3   267  PHE267      0.1736
    197  C         17.2280   20.1720   38.6370 C.2   267  PHE267      0.2595
    198  O         17.8340   20.8800   39.4430 O.2   267  PHE267     -0.2718
    199  CB        15.0580   19.1210   39.2210 C.3   267  PHE267      0.0547
    200  CG        15.4410   19.0300   40.6770 C.ar  267  PHE267     -0.0202
    201  CD1       15.0240   20.0070   41.5770 C.ar  267  PHE267     -0.0042
    202  CD2       16.2400   17.9800   41.1380 C.ar  267  PHE267     -0.0042
    203  CE1       15.3780   19.9290   42.9310 C.ar  267  PHE267     -0.0003
    204  CE2       16.5910   17.8930   42.4880 C.ar  267  PHE267     -0.0003
    205  CZ        16.1660   18.8690   43.3730 C.ar  267  PHE267     -0.0000
    206  N         17.8430   19.2490   37.9030 N.am  268  TYR268     -0.1976
    207  CA        19.2980   19.1050   37.9530 C.3   268  TYR268      0.1639
    208  C         19.9740   20.3890   37.4770 C.2   268  TYR268      0.2290
    209  O         20.9010   20.8630   38.1270 O.2   268  TYR268     -0.2864
    210  CB        19.7900   17.9220   37.1310 C.3   268  TYR268      0.0560
    211  CG        19.6340   16.5930   37.8380 C.ar  268  TYR268     -0.0198
    212  CD1       18.3690   16.0280   38.0320 C.ar  268  TYR268     -0.0009
    213  CD2       20.7540   15.8910   38.3180 C.ar  268  TYR268     -0.0009
    214  CE1       18.2070   14.7760   38.6740 C.ar  268  TYR268      0.0417
    215  CE2       20.5980   14.6470   38.9660 C.ar  268  TYR268      0.0417
    216  CZ        19.3340   14.1080   39.1430 C.ar  268  TYR268      0.1957
    217  OH        19.1870   12.8950   39.7760 O.3   268  TYR268     -0.2866
@<TRIPOS>BOND
     1   174   172   ar
     2   171   172    1
     3   171   170    1
     4   172   173   ar
     5   170   167    1
     6   167   166    1
     7   167   168    1
     8   153   154    1
     9   153   152    1
    10   152   151    1
    11   168   169    2
    12   168   175   am
    13   149   148    2
    14   147   148    1
    15   147   150    1
    16   147   146    1
    17   151   150    1
    18   175   176    1
    19   157   158    2
    20   157   156    1
    21   148   155   am
    22   164   163    1
    23   182   183    1
    24   155   156    1
    25   177   176    1
    26   177   178    2
    27   160   161    1
    28   160   159    1
    29   176   179    1
    30   156   159    1
    31   183   184    1
    32   136   135    1
    33   136   137    1
    34   163   162    2
    35   163   165    1
    36   161   162    1
    37   135   132    1
    38   179   180    1
    39   179   181    1
    40   186   184   am
    41   186   187    1
    42   184   185    2
    43   188   187    1
    44   188   189    2
    45   137   131    1
    46   190   187    1
    47   190   191    1
    48   132   131    1
    49   132   133    1
    50   134   133    2
    51   133   138   am
    52   195   196    1
    53   210   211    1
    54   210   207    1
    55   191   192    1
    56   208   207    1
    57   208   209    2
    58   211   212   ar
    59   211   213   ar
    60   138   139    1
    61   206   207    1
    62   206   197   am
    63   212   214   ar
    64   128   130   ar
    65   128   126   ar
    66   213   215   ar
    67   105   104    1
    68   130   129   ar
    69   196   197    1
    70   196   199    1
    71   197   198    2
    72   192   193    2
    73   192   194   am
    74   214   216   ar
    75   139   142    1
    76   139   140    1
    77   215   216   ar
    78   126   125   ar
    79   126   124   ar
    80   125   123   ar
    81   104   103   ar
    82   104   102   ar
    83   216   217    1
    84   199   200    1
    85   129   127   ar
    86   103   101   ar
    87   102   100   ar
    88   142   143    1
    89   140   141    2
    90   123   122   ar
    91   124   127   ar
    92   124   122   ar
    93   101    99   ar
    94   100    99   ar
    95   143   144    1
    96    99    98    1
    97   200   202   ar
    98   200   201   ar
    99   122   121    1
   100    85    82    1
   101    73    71    1
   102   202   204   ar
   103    98    95    1
   104    71    72    1
   105    71    68    1
   106   144   145    1
   107    69    70    2
   108    69    68    1
   109   201   203   ar
   110   121   118    1
   111    63    62    2
   112    82    83    1
   113    82    81    1
   114    68    67    1
   115    83    84    2
   116   204   205   ar
   117   118   117    1
   118   118   119    1
   119    64    65    1
   120    64    61    1
   121    64    66    1
   122    95    96    1
   123    95    94    1
   124    81    76   am
   125   203   205   ar
   126    62    61    1
   127    97    96    2
   128   120   119    2
   129    61    60    1
   130   117   108   am
   131   113   115   ar
   132   113   111   ar
   133    94    88   am
   134   110   111    1
   135   110   107    1
   136    74    75    1
   137    92    90    1
   138   109   108    2
   139   108   107    1
   140   115   116   ar
   141    76    75    1
   142    76    77    2
   143   111   112   ar
   144    57    56    2
   145   107   106    1
   146    60    56   am
   147    75    78    1
   148    88    89    2
   149    88    87    1
   150    56    55    1
   151    90    87    1
   152    90    91    1
   153    78    79    1
   154    78    80    1
   155   116   114   ar
   156   112   114   ar
   157    86    87    1
   158    91    93    1
   159    37    35    1
   160    52    51    1
   161    49    48    2
   162    55    58    1
   163    55    54    1
   164    58    59    1
   165    50    51    1
   166    50    47    1
   167    35    36    1
   168    35    34    1
   169    53    51    1
   170    48    47    1
   171    47    46    1
   172    33    32    2
   173    34    31    1
   174     9     7   ar
   175     9    11   ar
   176     7     6   ar
   177    32    31    1
   178    12    11    1
   179    11    10   ar
   180    31    30    1
   181     6     5    1
   182     6     8   ar
   183    46    40   am
   184     5     2    1
   185    10     8   ar
   186    41    40    2
   187    40    39    1
   188     2     1    1
   189     2     3    1
   190    21    22   ar
   191    21    19   ar
   192    22    20   ar
   193    19    18   ar
   194    39    42    1
   195    39    38    1
   196     3     4    2
   197     3    13   am
   198    42    43    1
   199    45    43   ar
   200    43    44   ar
   201    20    18   ar
   202    13    14    1
   203    18    17    1
   204    26    25    2
   205    25    24    1
   206    14    17    1
   207    14    15    1
   208    24    27    1
   209    24    23    1
   210    15    16    2
   211    27    29    1
   212    27    28    1
