@<TRIPOS>MOLECULE
tmp/3hr4A00.pdb
 158 154 0 0 0
SMALL
GASTEIGER

@<TRIPOS>ATOM
      1  N         -4.6000    6.6630  -57.3520 N.3    35  THR35      -0.1203
      2  CA        -3.6390    5.9610  -58.1880 C.3    35  THR35       0.1994
      3  C         -4.2280    4.9950  -59.2240 C.2    35  THR35       0.2618
      4  O         -5.2170    4.3110  -58.9720 O.2    35  THR35      -0.2717
      5  CB        -2.6670    5.1720  -57.3140 C.3    35  THR35       0.1784
      6  OG1       -1.5960    4.6850  -58.1210 O.3    35  THR35      -0.2211
      7  CG2       -3.3810    3.9790  -56.6800 C.3    35  THR35       0.0376
      8  N         -3.5880    4.9350  -60.3870 N.am   36  GLU36      -0.1965
      9  CA        -4.0050    4.0480  -61.4600 C.3    36  GLU36       0.1733
     10  C         -3.1640    2.7790  -61.4120 C.2    36  GLU36       0.2617
     11  O         -3.7060    1.6760  -61.4090 O.2    36  GLU36      -0.2715
     12  CB        -3.8080    4.7160  -62.8190 C.3    36  GLU36       0.0429
     13  CG        -4.7620    5.8670  -63.1410 C.3    36  GLU36       0.1163
     14  CD        -6.1250    5.3990  -63.6330 C.2    36  GLU36       0.3649
     15  OE1       -6.8320    6.2020  -64.2860 O.co2  36  GLU36      -0.2457
     16  OE2       -6.4950    4.2340  -63.3650 O.co2  36  GLU36      -0.2457
     17  N         -1.8390    2.9260  -61.3660 N.am   37  THR37      -0.1937
     18  CA        -0.9700    1.7490  -61.3350 C.3    37  THR37       0.2028
     19  C         -0.4450    1.3480  -59.9510 C.2    37  THR37       0.2643
     20  O          0.3990    0.4510  -59.8450 O.2    37  THR37      -0.2714
     21  CB         0.2470    1.8910  -62.3040 C.3    37  THR37       0.1808
     22  OG1        1.0950    2.9510  -61.8680 O.3    37  THR37      -0.2208
     23  CG2       -0.2200    2.1780  -63.7240 C.3    37  THR37       0.0379
     24  N         -0.9290    2.0120  -58.9010 N.am   38  GLY38      -0.1939
     25  CA        -0.5280    1.6600  -57.5400 C.3    38  GLY38       0.2014
     26  C          0.7490    2.2040  -56.8980 C.2    38  GLY38       0.2639
     27  O          1.0490    1.8840  -55.7390 O.2    38  GLY38      -0.2714
     28  N          1.4960    3.0260  -57.6210 N.am   39  LYS39      -0.1963
     29  CA         2.7340    3.5790  -57.0880 C.3    39  LYS39       0.1728
     30  C          2.4840    4.6860  -56.0470 C.2    39  LYS39       0.2616
     31  O          3.2960    4.8920  -55.1510 O.2    39  LYS39      -0.2715
     32  CB         3.5930    4.0960  -58.2500 C.3    39  LYS39       0.0311
     33  CG         3.8420    3.0210  -59.2950 C.3    39  LYS39       0.0038
     34  CD         4.2520    3.5710  -60.6480 C.3    39  LYS39       0.0206
     35  CE         5.6160    4.2350  -60.6100 C.3    39  LYS39       0.1093
     36  NZ         6.0020    4.6720  -61.9820 N.3    39  LYS39      -0.1314
     37  N          1.3530    5.3780  -56.1620 N.am   40  SER40      -0.1950
     38  CA         0.9960    6.4510  -55.2360 C.3    40  SER40       0.1924
     39  C          0.5460    5.8640  -53.9000 C.2    40  SER40       0.2314
     40  O          0.8650    6.3920  -52.8290 O.2    40  SER40      -0.2863
     41  CB        -0.1240    7.3310  -55.8300 C.3    40  SER40       0.2116
     42  OG         0.3570    8.1430  -56.8990 O.3    40  SER40      -0.2180
     43  N         -0.8290   10.5740  -58.6190 N.3    81  SER81      -0.1202
     44  CA        -0.2260   10.6870  -59.9290 C.3    81  SER81       0.2020
     45  C         -1.1950   11.4720  -60.8200 C.2    81  SER81       0.2619
     46  O         -2.2670   11.8840  -60.3650 O.2    81  SER81      -0.2717
     47  CB        -0.0070    9.2900  -60.4910 C.3    81  SER81       0.2103
     48  OG        -1.1940    8.5330  -60.3550 O.3    81  SER81      -0.2182
     49  N         -0.8020   11.6760  -62.0770 N.am   82  THR82      -0.1938
     50  CA        -1.6010   12.3890  -63.0750 C.3    82  THR82       0.2028
     51  C         -1.7720   11.5240  -64.3250 C.2    82  THR82       0.2642
     52  O         -0.9570   10.6430  -64.5850 O.2    82  THR82      -0.2714
     53  CB        -0.9280   13.7000  -63.5050 C.3    82  THR82       0.1808
     54  OG1       -0.9350   14.6210  -62.4110 O.3    82  THR82      -0.2208
     55  CG2       -1.6600   14.3190  -64.6700 C.3    82  THR82       0.0379
     56  N         -2.8330   11.7700  -65.0900 N.am   83  PHE83      -0.1959
     57  CA        -3.0760   11.0170  -66.3170 C.3    83  PHE83       0.1771
     58  C         -3.6900   11.8530  -67.4180 C.2    83  PHE83       0.2620
     59  O         -3.9280   13.0470  -67.2360 O.2    83  PHE83      -0.2715
     60  CB        -3.9560    9.8080  -66.0420 C.3    83  PHE83       0.0574
     61  CG        -3.2150    8.6780  -65.4290 C.ar   83  PHE83      -0.0200
     62  CD1       -2.9070    8.6880  -64.0800 C.ar   83  PHE83      -0.0042
     63  CD2       -2.7560    7.6320  -66.2170 C.ar   83  PHE83      -0.0042
     64  CE1       -2.1360    7.6680  -63.5150 C.ar   83  PHE83      -0.0003
     65  CE2       -1.9890    6.6090  -65.6720 C.ar   83  PHE83      -0.0003
     66  CZ        -1.6750    6.6240  -64.3190 C.ar   83  PHE83      -0.0000
     67  N         -3.9350   11.2240  -68.5670 N.am   84  GLY84      -0.1940
     68  CA        -4.5150   11.9410  -69.6910 C.3    84  GLY84       0.2014
     69  C         -3.8550   13.2900  -69.9180 C.2    84  GLY84       0.2639
     70  O         -2.6870   13.3570  -70.3060 O.2    84  GLY84      -0.2714
     71  N         -4.5960   14.3690  -69.6780 N.am   85  ASN85      -0.1958
     72  CA        -4.0500   15.7110  -69.8600 C.3    85  ASN85       0.1819
     73  C         -4.3120   16.5580  -68.6280 C.2    85  ASN85       0.2621
     74  O         -5.1010   17.5020  -68.6770 O.2    85  ASN85      -0.2715
     75  CB        -4.6780   16.3900  -71.0740 C.3    85  ASN85       0.1195
     76  CG        -4.8250   15.4520  -72.2470 C.2    85  ASN85       0.2630
     77  OD1       -5.7290   14.6060  -72.2700 O.2    85  ASN85      -0.2716
     78  ND2       -3.9320   15.5830  -73.2280 N.am   85  ASN85      -0.0877
     79  N         -3.6350   16.2220  -67.5310 N.am   86  GLY86      -0.1954
     80  CA        -3.8210   16.9540  -66.2910 C.3    86  GLY86       0.1869
     81  C         -4.9920   16.3440  -65.5590 C.2    86  GLY86       0.2309
     82  O         -5.5740   16.9430  -64.6530 O.2    86  GLY86      -0.2863
     83  N          2.8980   12.0560  -58.3550 N.3   116  LEU116     -0.1231
     84  CA         3.6950   11.2130  -59.2290 C.3   116  LEU116      0.1693
     85  C          3.3570   11.5900  -60.6620 C.2   116  LEU116      0.2593
     86  O          2.1930   11.7900  -60.9910 O.2   116  LEU116     -0.2718
     87  CB         3.3840    9.7290  -58.9990 C.3   116  LEU116      0.0284
     88  CG         4.0140    9.0350  -57.7860 C.3   116  LEU116      0.0019
     89  CD1        3.3900    9.5270  -56.4910 C.3   116  LEU116      0.0001
     90  CD2        3.8200    7.5490  -57.9190 C.3   116  LEU116      0.0001
     91  N          4.3800   11.7040  -61.5010 N.am  117  GLY117     -0.1942
     92  CA         4.1590   12.0550  -62.8900 C.3   117  GLY117      0.2014
     93  C          5.2110   11.4630  -63.8060 C.2   117  GLY117      0.2639
     94  O          5.8590   10.4790  -63.4520 O.2   117  GLY117     -0.2714
     95  N          5.3680   12.0610  -64.9860 N.am  118  SER118     -0.1949
     96  CA         6.3500   11.6260  -65.9730 C.3   118  SER118      0.1924
     97  C          6.6260   12.7570  -66.9580 C.2   118  SER118      0.2314
     98  O          5.7650   13.1030  -67.7670 O.2   118  SER118     -0.2863
     99  CB         5.8540   10.4000  -66.7360 C.3   118  SER118      0.2116
    100  OG         6.7320   10.1070  -67.8110 O.3   118  SER118     -0.2180
    101  N          5.1400   13.9720  -70.5970 N.3   121  TYR121     -0.1241
    102  CA         3.9090   14.7390  -70.8140 C.3   121  TYR121      0.1605
    103  C          4.0360   16.2110  -70.4280 C.2   121  TYR121      0.2264
    104  O          4.6230   16.5470  -69.4030 O.2   121  TYR121     -0.2867
    105  CB         2.7710   14.1030  -70.0280 C.3   121  TYR121      0.0534
    106  CG         2.6120   12.6400  -70.3340 C.ar  121  TYR121     -0.0201
    107  CD1        1.8680   12.2100  -71.4300 C.ar  121  TYR121     -0.0009
    108  CD2        3.2430   11.6810  -69.5470 C.ar  121  TYR121     -0.0009
    109  CE1        1.7580   10.8490  -71.7350 C.ar  121  TYR121      0.0417
    110  CE2        3.1380   10.3220  -69.8390 C.ar  121  TYR121      0.0417
    111  CZ         2.3980    9.9110  -70.9310 C.ar  121  TYR121      0.1957
    112  OH         2.3070    8.5610  -71.2110 O.3   121  TYR121     -0.2866
    113  N          1.8170   18.3700  -69.2930 N.3   123  ARG123     -0.1231
    114  CA         1.1380   18.7350  -68.0480 C.3   123  ARG123      0.1694
    115  C          1.6600   17.8260  -66.9350 C.2   123  ARG123      0.2592
    116  O          1.0140   16.8440  -66.5450 O.2   123  ARG123     -0.2718
    117  CB        -0.3700   18.5840  -68.2300 C.3   123  ARG123      0.0321
    118  CG        -0.9810   19.6560  -69.1210 C.3   123  ARG123      0.0489
    119  CD        -2.2810   19.1830  -69.7570 C.3   123  ARG123      0.2205
    120  NE        -3.0420   20.2790  -70.3590 N.pl3 123  ARG123     -0.0865
    121  CZ        -2.5870   21.0940  -71.3090 C.cat 123  ARG123      0.5346
    122  NH1       -1.3550   20.9530  -71.7960 N.pl3 123  ARG123      0.1354
    123  NH2       -3.3680   22.0630  -71.7680 N.pl3 123  ARG123      0.1354
    124  N          2.8480   18.1780  -66.4400 N.am  124  PHE124     -0.1962
    125  CA         3.5530   17.4170  -65.4140 C.3   124  PHE124      0.1771
    126  C          2.9760   17.5380  -64.0190 C.2   124  PHE124      0.2619
    127  O          2.8950   18.6350  -63.4570 O.2   124  PHE124     -0.2715
    128  CB         5.0400   17.8210  -65.3900 C.3   124  PHE124      0.0574
    129  CG         5.9200   16.8460  -64.6530 C.ar  124  PHE124     -0.0200
    130  CD1        5.8550   15.4820  -64.9340 C.ar  124  PHE124     -0.0042
    131  CD2        6.7920   17.2830  -63.6700 C.ar  124  PHE124     -0.0042
    132  CE1        6.6440   14.5670  -64.2410 C.ar  124  PHE124     -0.0003
    133  CE2        7.5870   16.3770  -62.9710 C.ar  124  PHE124     -0.0003
    134  CZ         7.5120   15.0110  -63.2570 C.ar  124  PHE124     -0.0000
    135  N          2.6050   16.3890  -63.4590 N.am  125  CYS125     -0.1968
    136  CA         2.0280   16.3340  -62.1230 C.3   125  CYS125      0.1712
    137  C          0.9710   17.4240  -62.0180 C.2   125  CYS125      0.2296
    138  O          0.8130   18.0640  -60.9720 O.2   125  CYS125     -0.2864
    139  CB         3.1210   16.5490  -61.0710 C.3   125  CYS125      0.0983
    140  SG         4.3300   15.2160  -60.9890 S.3   125  CYS125     -0.0798
    141  N          8.5790    9.7040  -62.9040 N.3   151  GLU151     -0.1245
    142  CA         8.6740    8.2880  -63.2560 C.3   151  GLU151      0.1567
    143  C         10.0080    7.9650  -63.9300 C.2   151  GLU151      0.2260
    144  O         10.5450    6.8680  -63.7710 O.2   151  GLU151     -0.2867
    145  CB         7.5150    7.9390  -64.1880 C.3   151  GLU151      0.0388
    146  CG         7.3730    6.4830  -64.5960 C.3   151  GLU151      0.1160
    147  CD         6.2650    6.3090  -65.6270 C.2   151  GLU151      0.3649
    148  OE1        6.0540    5.1840  -66.1370 O.co2 151  GLU151     -0.2457
    149  OE2        5.5990    7.3200  -65.9290 O.co2 151  GLU151     -0.2457
    150  N         11.7500    8.5310  -58.8920 N.3   155  GLN155     -0.1245
    151  CA        10.5450    8.9260  -58.1790 C.3   155  GLN155      0.1566
    152  C         10.7560    8.7670  -56.6710 C.2   155  GLN155      0.2260
    153  O         10.6720    9.7460  -55.9250 O.2   155  GLN155     -0.2867
    154  CB         9.3760    8.0590  -58.6410 C.3   155  GLN155      0.0367
    155  CG         8.1310    8.8260  -58.9850 C.3   155  GLN155      0.0905
    156  CD         7.0630    7.9260  -59.5490 C.2   155  GLN155      0.2608
    157  OE1        6.8010    6.8450  -59.0110 O.2   155  GLN155     -0.2717
    158  NE2        6.4320    8.3610  -60.6350 N.am  155  GLN155     -0.0878
@<TRIPOS>BOND
     1    78    76   am
     2    77    76    2
     3    76    75    1
     4   122   121    1
     5   123   121    1
     6   109   107   ar
     7   109   111   ar
     8   107   106   ar
     9   121   120    2
    10   112   111    1
    11    75    72    1
    12   111   110   ar
    13   102   101    1
    14   102   103    1
    15   102   105    1
    16   103   104    2
    17   120   119    1
    18   106   105    1
    19   106   108   ar
    20    70    69    2
    21    69    68    1
    22    69    71   am
    23    72    71    1
    24    72    73    1
    25   110   108   ar
    26   119   118    1
    27    68    67    1
    28   113   114    1
    29   118   117    1
    30    74    73    2
    31    73    79   am
    32    67    58   am
    33   117   114    1
    34   114   115    1
    35   100    99    1
    36    98    97    2
    37    79    80    1
    38    58    59    2
    39    58    57    1
    40    97    96    1
    41   115   116    2
    42   115   124   am
    43    99    96    1
    44   124   125    1
    45    57    60    1
    46    57    56    1
    47    80    81    1
    48    63    65   ar
    49    63    61   ar
    50   148   147   ar
    51    60    61    1
    52    96    95    1
    53   149   147   ar
    54    65    66   ar
    55   147   146    1
    56    81    82    2
    57    61    62   ar
    58   125   128    1
    59   125   126    1
    60   128   129    1
    61    56    51   am
    62    95    93   am
    63   130   129   ar
    64   130   132   ar
    65    55    53    1
    66   129   131   ar
    67   146   145    1
    68    52    51    2
    69    51    50    1
    70    66    64   ar
    71    15    14   ar
    72   132   134   ar
    73   145   142    1
    74    62    64   ar
    75   126   135   am
    76   126   127    2
    77   143   144    2
    78   143   142    1
    79    93    94    2
    80    93    92    1
    81    23    21    1
    82   131   133   ar
    83    14    16   ar
    84    14    13    1
    85    53    50    1
    86    53    54    1
    87   135   136    1
    88   134   133   ar
    89   142   141    1
    90    13    12    1
    91    50    49    1
    92    92    91    1
    93    12     9    1
    94    21    22    1
    95    21    18    1
    96   136   137    1
    97   136   139    1
    98    49    45   am
    99   137   138    2
   100    36    35    1
   101    91    85   am
   102     9    10    1
   103     9     8    1
   104    10    11    2
   105    10    17   am
   106    17    18    1
   107    18    19    1
   108   139   140    1
   109    86    85    2
   110    45    46    2
   111    45    44    1
   112    85    84    1
   113    34    35    1
   114    34    33    1
   115   158   156   am
   116    47    48    1
   117    47    44    1
   118     8     3   am
   119    19    20    2
   120    19    24   am
   121    44    43    1
   122   156   157    2
   123   156   155    1
   124    33    32    1
   125    84    87    1
   126    84    83    1
   127     3     4    2
   128     3     2    1
   129    87    88    1
   130   155   154    1
   131    24    25    1
   132   150   151    1
   133   154   151    1
   134    32    29    1
   135     2     1    1
   136     2     5    1
   137   151   152    1
   138     6     5    1
   139    90    88    1
   140    88    89    1
   141    28    29    1
   142    28    26   am
   143    25    26    1
   144     5     7    1
   145    29    30    1
   146    42    41    1
   147    26    27    2
   148   152   153    2
   149    37    30   am
   150    37    38    1
   151    30    31    2
   152    41    38    1
   153    38    39    1
   154    39    40    2
