@<TRIPOS>MOLECULE
tmp/3hr5F00.pdb
 114 113 0 0 0
SMALL
GASTEIGER

@<TRIPOS>ATOM
      1  N          1.1840  -25.7110  -14.8670 N.3    31  ASP31      -0.1225
      2  CA         1.7190  -25.0280  -16.0520 C.3    31  ASP31       0.1805
      3  C          3.0860  -24.3770  -15.8290 C.2    31  ASP31       0.2597
      4  O          3.7800  -24.0110  -16.7880 O.2    31  ASP31      -0.2718
      5  CB         0.7480  -23.9320  -16.4900 C.3    31  ASP31       0.1424
      6  CG        -0.3500  -24.4370  -17.3870 C.2    31  ASP31       0.3668
      7  OD1       -0.3720  -25.6460  -17.7230 O.co2  31  ASP31      -0.2456
      8  OD2       -1.2020  -23.6040  -17.7660 O.co2  31  ASP31      -0.2456
      9  N          3.4540  -24.2170  -14.5620 N.am   32  TYR32      -0.1976
     10  CA         4.6560  -23.4850  -14.1870 C.3    32  TYR32       0.1639
     11  C          5.6290  -24.3400  -13.3970 C.2    32  TYR32       0.2290
     12  O          5.2360  -25.3280  -12.7670 O.2    32  TYR32      -0.2864
     13  CB         4.2930  -22.2570  -13.3460 C.3    32  TYR32       0.0560
     14  CG         3.3660  -21.2950  -14.0290 C.ar   32  TYR32      -0.0198
     15  CD1        3.8600  -20.1820  -14.6840 C.ar   32  TYR32      -0.0009
     16  CD2        1.9860  -21.5000  -14.0200 C.ar   32  TYR32      -0.0009
     17  CE1        3.0060  -19.2860  -15.3190 C.ar   32  TYR32       0.0417
     18  CE2        1.1220  -20.6130  -14.6460 C.ar   32  TYR32       0.0417
     19  CZ         1.6400  -19.5070  -15.2940 C.ar   32  TYR32       0.1957
     20  OH         0.7940  -18.6150  -15.9170 O.3    32  TYR32      -0.2866
     21  N         14.7040  -25.7040   -7.6700 N.3    50  PHE50      -0.1241
     22  CA        13.7700  -25.4590   -8.7610 C.3    50  PHE50       0.1605
     23  C         13.2100  -26.7830   -9.2800 C.2    50  PHE50       0.2264
     24  O         13.9480  -27.7490   -9.4590 O.2    50  PHE50      -0.2867
     25  CB        14.4390  -24.6790   -9.8970 C.3    50  PHE50       0.0534
     26  CG        13.6320  -24.6510  -11.1630 C.ar   50  PHE50      -0.0203
     27  CD1       12.5230  -23.8150  -11.2800 C.ar   50  PHE50      -0.0042
     28  CD2       13.9630  -25.4870  -12.2320 C.ar   50  PHE50      -0.0042
     29  CE1       11.7590  -23.8050  -12.4510 C.ar   50  PHE50      -0.0003
     30  CE2       13.2170  -25.4830  -13.3980 C.ar   50  PHE50      -0.0003
     31  CZ        12.1100  -24.6390  -13.5090 C.ar   50  PHE50      -0.0000
     32  N         10.5490  -28.3200  -12.3250 N.3    52  SER52      -0.1202
     33  CA         9.9510  -27.9560  -13.5940 C.3    52  SER52       0.2020
     34  C          8.4900  -28.3530  -13.6490 C.2    52  SER52       0.2619
     35  O          8.0310  -29.2150  -12.8850 O.2    52  SER52      -0.2717
     36  CB        10.7100  -28.6010  -14.7490 C.3    52  SER52       0.2103
     37  OG        10.7390  -30.0100  -14.5940 O.3    52  SER52      -0.2182
     38  N          7.7740  -27.6570  -14.5360 N.am   53  ASP53      -0.1959
     39  CA         6.4600  -28.0240  -15.0540 C.3    53  ASP53       0.1840
     40  C          5.9660  -29.3890  -14.5290 C.2    53  ASP53       0.2621
     41  O          5.0460  -29.4430  -13.7150 O.2    53  ASP53      -0.2715
     42  CB         6.5410  -27.9760  -16.5960 C.3    53  ASP53       0.1450
     43  CG         5.2340  -28.3420  -17.2860 C.2    53  ASP53       0.3671
     44  OD1        4.1700  -27.7930  -16.9350 O.co2  53  ASP53      -0.2456
     45  OD2        5.2770  -29.1710  -18.2190 O.co2  53  ASP53      -0.2456
     46  N          6.6120  -30.4720  -14.9630 N.am   54  LEU54      -0.1977
     47  CA         6.1720  -31.8360  -14.6510 C.3    54  LEU54       0.1596
     48  C          7.2100  -32.6760  -13.8840 C.2    54  LEU54       0.2287
     49  O          7.1890  -33.9080  -13.9540 O.2    54  LEU54      -0.2864
     50  CB         5.7710  -32.5610  -15.9500 C.3    54  LEU54       0.0297
     51  CG         4.5910  -32.0630  -16.7900 C.3    54  LEU54       0.0022
     52  CD1        4.7590  -32.5150  -18.2280 C.3    54  LEU54       0.0001
     53  CD2        3.2560  -32.5330  -16.2310 C.3    54  LEU54       0.0001
     54  N         10.3280  -33.1050  -14.4970 N.3    56  TYR56      -0.1227
     55  CA        11.3470  -33.7080  -15.3560 C.3    56  TYR56       0.1736
     56  C         12.7300  -33.1280  -15.0180 C.2    56  TYR56       0.2596
     57  O         13.7130  -33.8640  -14.8970 O.2    56  TYR56      -0.2718
     58  CB        11.0090  -33.4900  -16.8420 C.3    56  TYR56       0.0548
     59  CG         9.8540  -34.3230  -17.3970 C.ar   56  TYR56      -0.0200
     60  CD1        9.6540  -34.4270  -18.7720 C.ar   56  TYR56      -0.0009
     61  CD2        8.9710  -35.0150  -16.5530 C.ar   56  TYR56      -0.0009
     62  CE1        8.6000  -35.1910  -19.3000 C.ar   56  TYR56       0.0417
     63  CE2        7.9130  -35.7810  -17.0700 C.ar   56  TYR56       0.0417
     64  CZ         7.7380  -35.8620  -18.4420 C.ar   56  TYR56       0.1957
     65  OH         6.7050  -36.6120  -18.9610 O.3    56  TYR56      -0.2866
     66  N         12.7900  -31.8080  -14.8520 N.am   57  THR57      -0.1953
     67  CA        14.0400  -31.1110  -14.5670 C.3    57  THR57       0.1897
     68  C         14.0400  -30.4700  -13.1830 C.2    57  THR57       0.2313
     69  O         13.2240  -29.5900  -12.8860 O.2    57  THR57      -0.2863
     70  CB        14.3250  -30.0430  -15.6310 C.3    57  THR57       0.1794
     71  OG1       14.5750  -30.6870  -16.8810 O.3    57  THR57      -0.2208
     72  CG2       15.5310  -29.2190  -15.2630 C.3    57  THR57       0.0378
     73  N         16.7260  -28.5470  -10.3440 N.3    59  TYR59      -0.1241
     74  CA        18.0370  -27.9490  -10.0540 C.3    59  TYR59       0.1605
     75  C         18.1680  -27.6240   -8.5780 C.2    59  TYR59       0.2264
     76  O         17.2060  -27.1880   -7.9500 O.2    59  TYR59      -0.2867
     77  CB        18.2880  -26.6590  -10.8360 C.3    59  TYR59       0.0534
     78  CG        18.0310  -26.6930  -12.3240 C.ar   59  TYR59      -0.0201
     79  CD1       17.1460  -25.7850  -12.9060 C.ar   59  TYR59      -0.0009
     80  CD2       18.6920  -27.5960  -13.1560 C.ar   59  TYR59      -0.0009
     81  CE1       16.9030  -25.7860  -14.2760 C.ar   59  TYR59       0.0417
     82  CE2       18.4610  -27.6050  -14.5370 C.ar   59  TYR59       0.0417
     83  CZ        17.5610  -26.6940  -15.0830 C.ar   59  TYR59       0.1957
     84  OH        17.3090  -26.6930  -16.4290 O.3    59  TYR59      -0.2866
     85  N          7.8300  -19.5140  -11.2120 N.3    99  ASP99      -0.1239
     86  CA         8.6090  -19.0780  -12.3550 C.3    99  ASP99       0.1674
     87  C          7.7440  -18.9960  -13.6130 C.2    99  ASP99       0.2266
     88  O          7.0770  -19.9700  -13.9890 O.2    99  ASP99      -0.2867
     89  CB         9.8070  -20.0080  -12.5660 C.3    99  ASP99       0.1410
     90  CG        10.6060  -19.6660  -13.8190 C.2    99  ASP99       0.3668
     91  OD1       11.1830  -18.5600  -13.8870 O.co2  99  ASP99      -0.2456
     92  OD2       10.6710  -20.5160  -14.7320 O.co2  99  ASP99      -0.2456
     93  N          8.6660  -18.9690  -16.6170 N.3   101  TRP101     -0.1227
     94  CA         9.3850  -19.5190  -17.7680 C.3   101  TRP101      0.1737
     95  C         10.2490  -18.4440  -18.4180 C.2   101  TRP101      0.2595
     96  O         10.9380  -18.6910  -19.4090 O.2   101  TRP101     -0.2718
     97  CB         8.4610  -20.2050  -18.7770 C.3   101  TRP101      0.0564
     98  CG         7.8930  -21.4400  -18.2220 C.ar  101  TRP101      0.0003
     99  CD1        6.5790  -21.7050  -18.0010 C.ar  101  TRP101      0.0946
    100  CD2        8.6210  -22.5860  -17.7690 C.ar  101  TRP101      0.0152
    101  NE1        6.4340  -22.9540  -17.4560 N.ar  101  TRP101     -0.2442
    102  CE2        7.6710  -23.5190  -17.2980 C.ar  101  TRP101      0.0810
    103  CE3        9.9860  -22.9190  -17.7160 C.ar  101  TRP101      0.0012
    104  CZ2        8.0360  -24.7680  -16.7800 C.ar  101  TRP101      0.0191
    105  CZ3       10.3500  -24.1630  -17.2000 C.ar  101  TRP101      0.0001
    106  CH2        9.3740  -25.0730  -16.7430 C.ar  101  TRP101      0.0015
    107  N         10.2080  -17.2470  -17.8490 N.am  102  ASP102     -0.1974
    108  CA        11.2780  -16.2900  -18.0810 C.3   102  ASP102      0.1709
    109  C         11.7810  -15.6000  -16.8040 C.2   102  ASP102      0.2293
    110  O         12.8920  -15.0810  -16.7950 O.2   102  ASP102     -0.2864
    111  CB        10.9520  -15.3030  -19.2240 C.3   102  ASP102      0.1436
    112  CG         9.5910  -14.6530  -19.0850 C.2   102  ASP102      0.3671
    113  OD1        9.1570  -14.4580  -17.9270 O.co2 102  ASP102     -0.2456
    114  OD2        8.9690  -14.3260  -20.1280 O.co2 102  ASP102     -0.2456
@<TRIPOS>BOND
     1   114   112   ar
     2    96    95    2
     3    62    60   ar
     4    62    64   ar
     5   111   112    1
     6   111   108    1
     7   112   113   ar
     8    65    64    1
     9    97    98    1
    10    97    94    1
    11    60    59   ar
    12    64    63   ar
    13    95   107   am
    14    95    94    1
    15    52    51    1
    16    98    99   ar
    17    98   100   ar
    18    45    43   ar
    19   108   107    1
    20   108   109    1
    21    99   101   ar
    22   100   103   ar
    23   100   102   ar
    24    94    93    1
    25     8     6   ar
    26     7     6   ar
    27   103   105   ar
    28   101   102   ar
    29    59    58    1
    30    59    61   ar
    31     6     5    1
    32   102   104   ar
    33    43    44   ar
    34    43    42    1
    35   105   106   ar
    36    63    61   ar
    37    71    70    1
    38    58    55    1
    39   109   110    2
    40    51    53    1
    41    51    50    1
    42     4     3    2
    43   104   106   ar
    44    42    39    1
    45     5     2    1
    46    84    83    1
    47     2     3    1
    48     2     1    1
    49    50    47    1
    50    20    19    1
    51     3     9   am
    52    70    72    1
    53    70    67    1
    54    55    56    1
    55    55    54    1
    56    17    19   ar
    57    17    15   ar
    58    19    18   ar
    59    83    82   ar
    60    83    81   ar
    61    39    38    1
    62    39    40    1
    63    56    57    2
    64    56    66   am
    65    46    47    1
    66    46    40   am
    67    66    67    1
    68    36    37    1
    69    36    33    1
    70    92    90   ar
    71    15    14   ar
    72    47    48    1
    73    18    16   ar
    74    67    68    1
    75     9    10    1
    76    82    80   ar
    77    38    34   am
    78    40    41    2
    79    81    79   ar
    80    10    11    1
    81    10    13    1
    82    14    16   ar
    83    14    13    1
    84    88    87    2
    85    49    48    2
    86    91    90   ar
    87    90    89    1
    88    34    33    1
    89    34    35    2
    90    87    86    1
    91    33    32    1
    92    31    30   ar
    93    31    29   ar
    94    30    28   ar
    95    11    12    2
    96    68    69    2
    97    80    78   ar
    98    79    78   ar
    99    89    86    1
   100    29    27   ar
   101    86    85    1
   102    78    77    1
   103    28    26   ar
   104    27    26   ar
   105    26    25    1
   106    77    74    1
   107    73    74    1
   108    74    75    1
   109    25    22    1
   110    24    23    2
   111    23    22    1
   112    22    21    1
   113    75    76    2
