@<TRIPOS>MOLECULE
tmp/3hr9A00.pdb
 124 120 0 0 0
SMALL
GASTEIGER

@<TRIPOS>ATOM
      1  N         10.5530   31.5380   19.8840 N.3     9  GLU9       -0.1245
      2  CA        11.3300   31.0040   20.9960 C.3     9  GLU9        0.1567
      3  C         10.4120   30.6750   22.1630 C.2     9  GLU9        0.2260
      4  O          9.6780   31.5340   22.6370 O.2     9  GLU9       -0.2867
      5  CB        12.3890   31.9820   21.4730 C.3     9  GLU9        0.0388
      6  CG        13.2390   31.3850   22.6160 C.3     9  GLU9        0.1160
      7  CD        14.5950   32.0780   22.7980 C.2     9  GLU9        0.3649
      8  OE1       15.3480   32.2110   21.8090 O.co2   9  GLU9       -0.2457
      9  OE2       14.9310   32.4810   23.9280 O.co2   9  GLU9       -0.2457
     10  N         17.9410   24.3370   23.8590 N.3    38  ILE38      -0.1245
     11  CA        19.1120   24.8390   24.5730 C.3    38  ILE38       0.1561
     12  C         18.8400   25.0640   26.0590 C.2    38  ILE38       0.2260
     13  O         17.6890   25.0750   26.5130 O.2    38  ILE38      -0.2867
     14  CB        19.6220   26.2170   23.9850 C.3    38  ILE38       0.0252
     15  CG1       18.6490   27.3640   24.3490 C.3    38  ILE38       0.0019
     16  CG2       19.7180   26.1320   22.4810 C.3    38  ILE38       0.0019
     17  CD1       19.1690   28.7560   24.0040 C.3    38  ILE38       0.0001
     18  N         19.9700   27.9350   28.8060 N.3    40  TYR40      -0.1241
     19  CA        20.4870   29.2920   28.6830 C.3    40  TYR40       0.1605
     20  C         20.3470   30.0840   29.9610 C.2    40  TYR40       0.2264
     21  O         19.2650   30.1240   30.5470 O.2    40  TYR40      -0.2867
     22  CB        19.7110   30.0160   27.5770 C.3    40  TYR40       0.0534
     23  CG        20.2540   31.3870   27.1990 C.ar   40  TYR40      -0.0201
     24  CD1       21.4310   31.5080   26.4650 C.ar   40  TYR40      -0.0009
     25  CD2       19.5910   32.5650   27.5850 C.ar   40  TYR40      -0.0009
     26  CE1       21.9620   32.7750   26.1060 C.ar   40  TYR40       0.0417
     27  CE2       20.1100   33.8380   27.2340 C.ar   40  TYR40       0.0417
     28  CZ        21.2870   33.9320   26.4960 C.ar   40  TYR40       0.1957
     29  OH        21.7900   35.1720   26.1290 O.3    40  TYR40      -0.2866
     30  N         29.0670   33.9690   30.3320 N.3    52  TRP52      -0.1241
     31  CA        28.0580   33.4610   29.4120 C.3    52  TRP52       0.1605
     32  C         27.9320   32.0040   29.8430 C.2    52  TRP52       0.2264
     33  O         28.9440   31.3250   30.1030 O.2    52  TRP52      -0.2867
     34  CB        28.5570   33.5170   27.9630 C.3    52  TRP52       0.0550
     35  CG        27.4730   33.2560   26.9460 C.ar   52  TRP52       0.0003
     36  CD1       26.7670   32.0990   26.7580 C.ar   52  TRP52       0.0946
     37  CD2       27.0000   34.1820   25.9630 C.ar   52  TRP52       0.0152
     38  NE1       25.8730   32.2480   25.7100 N.ar   52  TRP52      -0.2442
     39  CE2       26.0000   33.5200   25.2050 C.ar   52  TRP52       0.0810
     40  CE3       27.3260   35.5100   25.6490 C.ar   52  TRP52       0.0012
     41  CZ2       25.3250   34.1440   24.1480 C.ar   52  TRP52       0.0191
     42  CZ3       26.6550   36.1360   24.5930 C.ar   52  TRP52       0.0001
     43  CH2       25.6660   35.4510   23.8550 C.ar   52  TRP52       0.0015
     44  N         25.6570   28.6460   28.6080 N.3    54  GLU54      -0.1245
     45  CA        24.7180   28.0850   27.6500 C.3    54  GLU54       0.1567
     46  C         25.1560   26.6900   27.1580 C.2    54  GLU54       0.2260
     47  O         26.3510   26.4210   27.0270 O.2    54  GLU54      -0.2867
     48  CB        24.6180   29.0480   26.4360 C.3    54  GLU54       0.0388
     49  CG        23.7580   28.5240   25.2810 C.3    54  GLU54       0.1160
     50  CD        23.5460   29.5210   24.1410 C.2    54  GLU54       0.3649
     51  OE1       23.9980   30.6840   24.2260 O.co2  54  GLU54      -0.2457
     52  OE2       22.9060   29.1270   23.1320 O.co2  54  GLU54      -0.2457
     53  N         23.9730   23.8970   24.0410 N.3    56  ASP56      -0.1239
     54  CA        23.1450   23.8110   22.8450 C.3    56  ASP56       0.1674
     55  C         22.9790   22.5130   22.0930 C.2    56  ASP56       0.2266
     56  O         23.8730   21.6820   22.0520 O.2    56  ASP56      -0.2867
     57  CB        23.6830   24.7620   21.7540 C.3    56  ASP56       0.1410
     58  CG        23.7730   26.1900   22.2130 C.2    56  ASP56       0.3668
     59  OD1       22.7320   26.7100   22.6520 O.co2  56  ASP56      -0.2456
     60  OD2       24.8720   26.7970   22.1360 O.co2  56  ASP56      -0.2456
     61  N         21.5990   22.2460   18.1890 N.3    58  GLU58      -0.1245
     62  CA        21.1420   23.0680   17.0900 C.3    58  GLU58       0.1567
     63  C         21.1910   22.3230   15.7540 C.2    58  GLU58       0.2260
     64  O         22.2510   21.9090   15.3290 O.2    58  GLU58      -0.2867
     65  CB        22.0190   24.3310   16.9910 C.3    58  GLU58       0.0388
     66  CG        21.7620   25.3580   18.1240 C.3    58  GLU58       0.1160
     67  CD        22.7620   26.5000   18.1210 C.2    58  GLU58       0.3649
     68  OE1       23.9760   26.2000   18.1230 O.co2  58  GLU58      -0.2457
     69  OE2       22.3380   27.6910   18.1450 O.co2  58  GLU58      -0.2457
     70  N         28.6750   27.0740   25.5310 N.3    72  ILE72      -0.1245
     71  CA        29.2350   28.4080   25.3910 C.3    72  ILE72       0.1561
     72  C         29.5430   28.9750   26.7650 C.2    72  ILE72       0.2260
     73  O         28.6430   29.1060   27.6140 O.2    72  ILE72      -0.2867
     74  CB        28.2550   29.3970   24.7100 C.3    72  ILE72       0.0252
     75  CG1       27.6720   28.7820   23.4360 C.3    72  ILE72       0.0019
     76  CG2       29.0020   30.7320   24.4270 C.3    72  ILE72       0.0019
     77  CD1       28.6560   28.3160   22.4820 C.3    72  ILE72       0.0001
     78  N         14.2280   27.2680   20.0440 N.3   137  ASN137     -0.1240
     79  CA        14.0110   28.3810   19.1400 C.3   137  ASN137      0.1653
     80  C         14.1720   27.9680   17.6960 C.2   137  ASN137      0.2266
     81  O         14.7200   26.9050   17.4050 O.2   137  ASN137     -0.2867
     82  CB        14.8790   29.6060   19.4970 C.3   137  ASN137      0.1155
     83  CG        16.3680   29.3250   19.5160 C.2   137  ASN137      0.2627
     84  OD1       16.8940   28.5750   18.7090 O.2   137  ASN137     -0.2716
     85  ND2       17.0700   29.9860   20.4460 N.am  137  ASN137     -0.0877
     86  N         15.0260   29.9910   14.0610 N.3   139  TRP139     -0.1241
     87  CA        15.4290   31.2340   13.4270 C.3   139  TRP139      0.1605
     88  C         16.3000   30.9640   12.2030 C.2   139  TRP139      0.2264
     89  O         16.3340   29.8500   11.7010 O.2   139  TRP139     -0.2867
     90  CB        16.1770   32.1610   14.4270 C.3   139  TRP139      0.0550
     91  CG        17.3240   31.5010   15.1800 C.ar  139  TRP139      0.0003
     92  CD1       17.2270   30.5040   16.1180 C.ar  139  TRP139      0.0946
     93  CD2       18.7140   31.8350   15.0950 C.ar  139  TRP139      0.0152
     94  NE1       18.4730   30.2020   16.6170 N.ar  139  TRP139     -0.2442
     95  CE2       19.4040   31.0030   16.0130 C.ar  139  TRP139      0.0810
     96  CE3       19.4460   32.7630   14.3380 C.ar  139  TRP139      0.0012
     97  CZ2       20.8000   31.0710   16.1950 C.ar  139  TRP139      0.0191
     98  CZ3       20.8240   32.8370   14.5150 C.ar  139  TRP139      0.0001
     99  CH2       21.4930   31.9910   15.4430 C.ar  139  TRP139      0.0015
    100  N         27.8910   28.6810    8.1360 N.3   146  TRP146     -0.1241
    101  CA        27.3880   27.8620    9.2300 C.3   146  TRP146      0.1605
    102  C         26.1240   27.0690    8.9350 C.2   146  TRP146      0.2264
    103  O         26.0550   25.8660    9.2380 O.2   146  TRP146     -0.2867
    104  CB        27.1800   28.7720   10.4630 C.3   146  TRP146      0.0550
    105  CG        26.8580   28.0360   11.7540 C.ar  146  TRP146      0.0003
    106  CD1       27.4800   26.9190   12.2460 C.ar  146  TRP146      0.0946
    107  CD2       25.8800   28.4170   12.7420 C.ar  146  TRP146      0.0152
    108  NE1       26.9490   26.5800   13.4810 N.ar  146  TRP146     -0.2442
    109  CE2       25.9700   27.4830   13.8060 C.ar  146  TRP146      0.0810
    110  CE3       24.9450   29.4540   12.8270 C.ar  146  TRP146      0.0012
    111  CZ2       25.1590   27.5550   14.9360 C.ar  146  TRP146      0.0191
    112  CZ3       24.1280   29.5310   13.9690 C.ar  146  TRP146      0.0001
    113  CH2       24.2460   28.5850   15.0030 C.ar  146  TRP146      0.0015
    114  N         18.5670   39.2750   17.8480 N.3   203  PHE203     -0.1241
    115  CA        19.9740   39.4730   18.1590 C.3   203  PHE203      0.1605
    116  C         20.7560   39.5580   16.8840 C.2   203  PHE203      0.2264
    117  O         20.2810   39.1560   15.8270 O.2   203  PHE203     -0.2867
    118  CB        20.5380   38.3680   19.0800 C.3   203  PHE203      0.0534
    119  CG        20.2360   36.9570   18.6360 C.ar  203  PHE203     -0.0203
    120  CD1       21.1060   36.2660   17.7990 C.ar  203  PHE203     -0.0042
    121  CD2       19.1000   36.3060   19.1020 C.ar  203  PHE203     -0.0042
    122  CE1       20.8350   34.9210   17.4400 C.ar  203  PHE203     -0.0003
    123  CE2       18.8220   34.9810   18.7510 C.ar  203  PHE203     -0.0003
    124  CZ        19.6950   34.2900   17.9180 C.ar  203  PHE203     -0.0000
@<TRIPOS>BOND
     1   100   101    1
     2   102   101    1
     3   102   103    2
     4   101   104    1
     5   104   105    1
     6    89    88    2
     7   105   106   ar
     8   105   107   ar
     9    88    87    1
    10   106   108   ar
    11   107   110   ar
    12   107   109   ar
    13   110   112   ar
    14    87    86    1
    15    87    90    1
    16   108   109   ar
    17   109   111   ar
    18   112   113   ar
    19    96    98   ar
    20    96    93   ar
    21    90    91    1
    22    98    99   ar
    23   111   113   ar
    24    93    91   ar
    25    93    95   ar
    26    91    92   ar
    27    64    63    2
    28    99    97   ar
    29    63    62    1
    30   117   116    2
    31    95    97   ar
    32    95    94   ar
    33    92    94   ar
    34   116   115    1
    35    65    62    1
    36    65    66    1
    37    62    61    1
    38    81    80    2
    39   122   120   ar
    40   122   124   ar
    41    80    79    1
    42   120   119   ar
    43   114   115    1
    44   124   123   ar
    45    67    68   ar
    46    67    66    1
    47    67    69   ar
    48   115   118    1
    49   119   118    1
    50   119   121   ar
    51    84    83    2
    52   123   121   ar
    53    79    82    1
    54    79    78    1
    55    82    83    1
    56    83    85   am
    57     1     2    1
    58     2     5    1
    59     2     3    1
    60     5     6    1
    61    57    58    1
    62    57    54    1
    63     8     7   ar
    64    56    55    2
    65    55    54    1
    66    60    58   ar
    67     3     4    2
    68    58    59   ar
    69    16    14    1
    70    77    75    1
    71     6     7    1
    72     7     9   ar
    73    54    53    1
    74    52    50   ar
    75    75    74    1
    76    43    41   ar
    77    43    42   ar
    78    10    11    1
    79    14    15    1
    80    14    11    1
    81    17    15    1
    82    50    51   ar
    83    50    49    1
    84    41    39   ar
    85    76    74    1
    86    11    12    1
    87    42    40   ar
    88    74    71    1
    89    39    38   ar
    90    39    37   ar
    91    49    48    1
    92    71    70    1
    93    71    72    1
    94    40    37   ar
    95    38    36   ar
    96    37    35   ar
    97    12    13    2
    98    26    24   ar
    99    26    28   ar
   100    29    28    1
   101    48    45    1
   102    24    23   ar
   103    28    27   ar
   104    36    35   ar
   105    72    73    2
   106    35    34    1
   107    47    46    2
   108    46    45    1
   109    23    22    1
   110    23    25   ar
   111    27    25   ar
   112    22    19    1
   113    45    44    1
   114    34    31    1
   115    19    18    1
   116    19    20    1
   117    31    32    1
   118    31    30    1
   119    32    33    2
   120    20    21    2
