@<TRIPOS>MOLECULE
tmp/3hrbA00.pdb
 165 154 0 0 0
SMALL
GASTEIGER

@<TRIPOS>ATOM
      1  N         -1.4950   33.0660   39.8850 N.3    27  VAL27      -0.1245
      2  CA        -2.3080   33.2320   38.6990 C.3    27  VAL27       0.1561
      3  C         -2.2790   31.9170   37.8980 C.2    27  VAL27       0.2260
      4  O         -3.3150   31.4430   37.4270 O.2    27  VAL27      -0.2867
      5  CB        -1.7660   34.4460   37.8720 C.3    27  VAL27       0.0252
      6  CG1       -0.9750   33.9790   36.6220 C.3    27  VAL27       0.0019
      7  CG2       -2.8920   35.4290   37.5120 C.3    27  VAL27       0.0019
      8  N          2.5360   29.7440   38.5250 N.3    30  VAL30      -0.1245
      9  CA         2.7320   30.9850   37.8080 C.3    30  VAL30       0.1561
     10  C          2.2280   32.1650   38.6370 C.2    30  VAL30       0.2260
     11  O          1.1450   32.1120   39.2020 O.2    30  VAL30      -0.2867
     12  CB         2.0000   30.9370   36.4640 C.3    30  VAL30       0.0252
     13  CG1        2.0760   32.2870   35.7440 C.3    30  VAL30       0.0019
     14  CG2        2.5990   29.8150   35.5970 C.3    30  VAL30       0.0019
     15  N          4.5660   37.4460   33.4860 N.3    43  ALA43      -0.1245
     16  CA         4.2320   36.1800   34.1120 C.3    43  ALA43       0.1562
     17  C          5.5180   35.4450   34.4460 C.2    43  ALA43       0.2260
     18  O          6.3720   35.2830   33.5850 O.2    43  ALA43      -0.2867
     19  CB         3.3490   35.3480   33.1920 C.3    43  ALA43       0.0290
     20  N          7.0140   31.9000   35.9070 N.3    45  LYS45      -0.1245
     21  CA         6.7580   30.4720   36.1780 C.3    45  LYS45       0.1561
     22  C          7.9320   29.8620   36.9390 C.2    45  LYS45       0.2260
     23  O          9.0820   29.9620   36.5060 O.2    45  LYS45      -0.2867
     24  CB         6.5220   29.7120   34.8640 C.3    45  LYS45       0.0271
     25  CG         6.4260   28.1870   35.0310 C.3    45  LYS45       0.0035
     26  CD         5.4970   27.5140   34.0080 C.3    45  LYS45       0.0206
     27  CE         6.1720   27.1680   32.6970 C.3    45  LYS45       0.1093
     28  NZ         5.3240   26.1890   31.9060 N.3    45  LYS45      -0.1314
     29  N         12.1160   22.7610   27.5870 N.3    63  GLU63      -0.1245
     30  CA        11.2910   23.9640   27.7330 C.3    63  GLU63       0.1567
     31  C         12.1450   25.2230   27.5940 C.2    63  GLU63       0.2260
     32  O         11.7960   26.1350   26.8450 O.2    63  GLU63      -0.2867
     33  CB        10.4720   23.9580   29.0350 C.3    63  GLU63       0.0388
     34  CG         9.6580   25.2520   29.2250 C.3    63  GLU63       0.1160
     35  CD         8.4840   25.1160   30.1680 C.2    63  GLU63       0.3649
     36  OE1        8.4410   24.1200   30.9180 O.co2  63  GLU63      -0.2457
     37  OE2        7.5940   26.0120   30.1440 O.co2  63  GLU63      -0.2457
     38  N         11.8080   28.0480   24.7720 N.3    67  LEU67      -0.1245
     39  CA        11.4790   29.4380   25.1250 C.3    67  LEU67       0.1561
     40  C         12.6180   30.4000   24.7820 C.2    67  LEU67       0.2260
     41  O         12.3770   31.5300   24.3750 O.2    67  LEU67      -0.2867
     42  CB        11.1030   29.5660   26.6060 C.3    67  LEU67       0.0270
     43  CG         9.8160   28.8930   27.0870 C.3    67  LEU67       0.0019
     44  CD1        9.7740   28.8130   28.6120 C.3    67  LEU67       0.0001
     45  CD2        8.5640   29.6000   26.5710 C.3    67  LEU67       0.0001
     46  N          4.8920   33.0680   22.7840 N.3    76  ILE76      -0.1231
     47  CA         5.4200   33.3910   24.1020 C.3    76  ILE76       0.1692
     48  C          6.9160   33.0930   24.1080 C.2    76  ILE76       0.2593
     49  O          7.3130   31.9820   23.8120 O.2    76  ILE76      -0.2718
     50  CB         4.7510   32.6070   25.2650 C.3    76  ILE76       0.0266
     51  CG1        4.0410   33.5710   26.2350 C.3    76  ILE76       0.0019
     52  CG2        5.8090   31.9140   26.1090 C.3    76  ILE76       0.0020
     53  CD1        2.8160   34.2060   25.7170 C.3    76  ILE76       0.0001
     54  N          7.7210   34.1050   24.4140 N.am   77  GLY77      -0.1942
     55  CA         9.1650   33.9330   24.6230 C.3    77  GLY77       0.2014
     56  C          9.6370   34.4330   25.9890 C.2    77  GLY77       0.2638
     57  O          8.8140   34.7620   26.8550 O.2    77  GLY77      -0.2714
     58  N         10.9580   34.4730   26.1820 N.am   78  LEU78      -0.1977
     59  CA        11.5480   34.8230   27.4760 C.3    78  LEU78       0.1596
     60  C         11.9980   36.2710   27.5540 C.2    78  LEU78       0.2287
     61  O         12.8500   36.6930   26.7970 O.2    78  LEU78      -0.2864
     62  CB        12.7780   33.9670   27.7660 C.3    78  LEU78       0.0297
     63  CG        12.5890   32.5600   28.2880 C.3    78  LEU78       0.0022
     64  CD1       13.9670   31.9410   28.4870 C.3    78  LEU78       0.0001
     65  CD2       11.7790   32.5420   29.5690 C.3    78  LEU78       0.0001
     66  N         11.1330   31.2170   34.8730 N.3    96  LEU96      -0.1231
     67  CA        11.0400   31.7020   33.5100 C.3    96  LEU96       0.1693
     68  C         10.0820   32.8740   33.5030 C.2    96  LEU96       0.2592
     69  O          9.0380   32.8180   34.1500 O.2    96  LEU96      -0.2718
     70  CB        10.5080   30.5960   32.5850 C.3    96  LEU96       0.0284
     71  CG        11.2390   29.2500   32.5630 C.3    96  LEU96       0.0019
     72  CD1       10.2730   28.1360   32.2210 C.3    96  LEU96       0.0001
     73  CD2       12.4250   29.2820   31.5920 C.3    96  LEU96       0.0001
     74  N         10.4310   33.9210   32.7560 N.am   97  VAL97      -0.1966
     75  CA         9.6440   35.1340   32.7110 C.3    97  VAL97       0.1727
     76  C          9.2240   35.4710   31.2900 C.2    97  VAL97       0.2617
     77  O         10.0440   35.4520   30.3460 O.2    97  VAL97      -0.2715
     78  CB        10.4250   36.3390   33.3170 C.3    97  VAL97       0.0290
     79  CG1        9.5450   37.5810   33.3710 C.3    97  VAL97       0.0023
     80  CG2       10.9210   35.9990   34.7170 C.3    97  VAL97       0.0023
     81  N          7.9380   35.7800   31.1360 N.am   98  THR98      -0.1937
     82  CA         7.4170   36.2680   29.8690 C.3    98  THR98       0.2028
     83  C          6.3600   37.3440   30.0780 C.2    98  THR98       0.2642
     84  O          6.0550   37.7140   31.2000 O.2    98  THR98      -0.2714
     85  CB         6.8200   35.1330   29.0320 C.3    98  THR98       0.1808
     86  OG1        6.5400   35.6430   27.7270 O.3    98  THR98      -0.2208
     87  CG2        5.5460   34.5710   29.6750 C.3    98  THR98       0.0379
     88  N          5.8030   37.8430   28.9920 N.am   99  HIS99      -0.1959
     89  CA         4.7760   38.8840   29.0870 C.3    99  HIS99       0.1787
     90  C          3.5380   38.3170   29.7720 C.2    99  HIS99       0.2620
     91  O          3.1650   37.1740   29.5130 O.2    99  HIS99      -0.2715
     92  CB         4.3620   39.3710   27.7070 C.3    99  HIS99       0.0785
     93  CG         5.4690   39.9690   26.9130 C.ar   99  HIS99       0.0821
     94  ND1        6.3410   39.2030   26.1660 N.ar   99  HIS99      -0.2267
     95  CD2        5.8280   41.2600   26.7160 C.ar   99  HIS99       0.1154
     96  CE1        7.2050   40.0010   25.5590 C.ar   99  HIS99       0.1986
     97  NE2        6.9120   41.2530   25.8710 N.ar   99  HIS99      -0.2212
     98  N          2.9070   39.1060   30.6400 N.am  100  LEU100     -0.1963
     99  CA         1.6300   38.7010   31.2350 C.3   100  LEU100      0.1728
    100  C          0.5600   39.0160   30.2170 C.2   100  LEU100      0.2616
    101  O          0.4180   40.1540   29.7950 O.2   100  LEU100     -0.2715
    102  CB         1.3470   39.4430   32.5480 C.3   100  LEU100      0.0311
    103  CG         0.0650   39.0450   33.3050 C.3   100  LEU100      0.0022
    104  CD1        0.1100   37.6070   33.7960 C.3   100  LEU100      0.0001
    105  CD2       -0.2020   39.9860   34.4900 C.3   100  LEU100      0.0001
    106  N         -0.1650   37.9970   29.7770 N.am  101  MET101     -0.1963
    107  CA        -1.3090   38.2120   28.9020 C.3   101  MET101      0.1736
    108  C         -2.5990   38.1360   29.7330 C.2   101  MET101      0.2617
    109  O         -3.5130   38.9060   29.5180 O.2   101  MET101     -0.2715
    110  CB        -1.2880   37.2080   27.7540 C.3   101  MET101      0.0427
    111  CG         0.0220   37.2130   26.9580 C.3   101  MET101      0.0599
    112  SD         0.1610   38.6450   25.9190 S.3   101  MET101     -0.1393
    113  CE        -1.0390   38.2560   24.6460 C.3   101  MET101      0.0692
    114  N         -2.6680   37.2130   30.6800 N.am  102  GLY102     -0.1940
    115  CA        -3.7060   37.2490   31.7210 C.3   102  GLY102      0.2014
    116  C         -4.9760   36.4480   31.4920 C.2   102  GLY102      0.2639
    117  O         -5.7320   36.2290   32.4400 O.2   102  GLY102     -0.2714
    118  N         -5.2240   36.0350   30.2490 N.am  103  ALA103     -0.1963
    119  CA        -6.3720   35.1830   29.9020 C.3   103  ALA103      0.1728
    120  C         -5.9550   34.2140   28.7850 C.2   103  ALA103      0.2616
    121  O         -4.9000   34.3970   28.1620 O.2   103  ALA103     -0.2715
    122  CB        -7.5570   36.0480   29.4440 C.3   103  ALA103      0.0334
    123  N         -6.7720   33.2010   28.5260 N.am  104  ASP104     -0.1971
    124  CA        -6.5850   32.3660   27.3420 C.3   104  ASP104      0.1709
    125  C         -7.7730   32.5410   26.3890 C.2   104  ASP104      0.2293
    126  O         -8.7070   33.2680   26.6910 O.2   104  ASP104     -0.2864
    127  CB        -6.3610   30.9070   27.7300 C.3   104  ASP104      0.1436
    128  CG        -7.5660   30.2840   28.3770 C.2   104  ASP104      0.3671
    129  OD1       -8.6980   30.5980   27.9600 O.co2 104  ASP104     -0.2456
    130  OD2       -7.3840   29.4680   29.3010 O.co2 104  ASP104     -0.2456
    131  N        -11.2940   32.0270   28.0110 N.3   107  ASN107     -0.1240
    132  CA       -11.6950   33.1070   28.9150 C.3   107  ASN107      0.1653
    133  C        -12.0650   34.3750   28.1260 C.2   107  ASN107      0.2266
    134  O        -11.6310   35.4700   28.4730 O.2   107  ASN107     -0.2867
    135  CB       -10.5620   33.4570   29.9110 C.3   107  ASN107      0.1155
    136  CG        -9.9730   32.2370   30.6350 C.2   107  ASN107      0.2627
    137  OD1      -10.6550   31.2300   30.8680 O.2   107  ASN107     -0.2716
    138  ND2       -8.6870   32.3400   31.0080 N.am  107  ASN107     -0.0877
    139  N         -6.8420   26.8860   25.0090 N.3   146  SER146     -0.1217
    140  CA        -6.1920   27.0910   26.3010 C.3   146  SER146      0.1889
    141  C         -4.6790   27.2750   26.2030 C.2   146  SER146      0.2288
    142  O         -4.0490   27.6710   27.1780 O.2   146  SER146     -0.2866
    143  CB        -6.5130   25.9300   27.2430 C.3   146  SER146      0.2089
    144  OG        -5.9440   24.7290   26.7600 O.3   146  SER146     -0.2183
    145  N         -2.6440   32.4840   24.5290 N.3   149  ALA149     -0.1245
    146  CA        -2.7050   33.5530   25.5080 C.3   149  ALA149      0.1562
    147  C         -3.1600   34.8130   24.8090 C.2   149  ALA149      0.2260
    148  O         -2.6670   35.1630   23.7290 O.2   149  ALA149     -0.2867
    149  CB        -1.3530   33.7450   26.1610 C.3   149  ALA149      0.0290
    150  N          1.3420   29.5640   23.4550 N.3   159  LEU159     -0.1231
    151  CA         1.9930   28.9460   24.6080 C.3   159  LEU159      0.1693
    152  C          2.1750   27.4470   24.4340 C.2   159  LEU159      0.2592
    153  O          1.4440   26.7990   23.6740 O.2   159  LEU159     -0.2718
    154  CB         1.1210   29.0480   25.8640 C.3   159  LEU159      0.0284
    155  CG         0.6060   30.3480   26.4370 C.3   159  LEU159      0.0019
    156  CD1       -0.3290   30.0060   27.6170 C.3   159  LEU159      0.0001
    157  CD2        1.7550   31.2180   26.8940 C.3   159  LEU159      0.0001
    158  N          3.1120   26.9140   25.2210 N.am  160  ASP160     -0.1974
    159  CA         3.3230   25.4660   25.4320 C.3   160  ASP160      0.1709
    160  C          3.6590   24.6170   24.1810 C.2   160  ASP160      0.2293
    161  O          3.4350   23.4080   24.1440 O.2   160  ASP160     -0.2864
    162  CB         2.1320   24.8800   26.2050 C.3   160  ASP160      0.1436
    163  CG         2.0420   25.4130   27.6410 C.2   160  ASP160      0.3671
    164  OD1        3.0600   25.4180   28.3680 O.co2 160  ASP160     -0.2456
    165  OD2        0.9460   25.8350   28.0560 O.co2 160  ASP160     -0.2456
@<TRIPOS>BOND
     1    46    47    1
     2   150   151    1
     3   153   152    2
     4   148   147    2
     5    49    48    2
     6    47    48    1
     7    47    50    1
     8    48    54   am
     9   161   160    2
    10   160   159    1
    11    41    40    2
    12    54    55    1
    13   152   151    1
    14   152   158   am
    15   145   146    1
    16   151   154    1
    17    55    56    1
    18   113   112    1
    19    38    39    1
    20    40    39    1
    21   147   146    1
    22   139   140    1
    23    39    42    1
    24   158   159    1
    25    50    52    1
    26    50    51    1
    27   159   162    1
    28   146   149    1
    29    96    97   ar
    30    96    94   ar
    31    53    51    1
    32   154   155    1
    33    97    95   ar
    34   112   111    1
    35    56    58   am
    36    56    57    2
    37    94    93   ar
    38    58    59    1
    39   141   140    1
    40   141   142    2
    41   162   163    1
    42   140   143    1
    43   125   126    2
    44   125   124    1
    45   155   157    1
    46   155   156    1
    47    45    43    1
    48    42    43    1
    49    95    93   ar
    50   144   143    1
    51    61    60    2
    52    32    31    2
    53    93    92    1
    54   111   110    1
    55    43    44    1
    56   124   127    1
    57   124   123    1
    58    59    60    1
    59    59    62    1
    60    29    30    1
    61    31    30    1
    62   163   165   ar
    63   163   164   ar
    64    92    89    1
    65    86    85    1
    66   127   128    1
    67    30    33    1
    68   110   107    1
    69    62    63    1
    70   129   128   ar
    71   131   132    1
    72   133   134    2
    73   133   132    1
    74   121   120    2
    75    63    64    1
    76    63    65    1
    77   128   130   ar
    78   123   120   am
    79   120   119    1
    80   107   108    1
    81   107   106    1
    82   132   135    1
    83    88    89    1
    84    88    83   am
    85    85    87    1
    86    85    82    1
    87    33    34    1
    88    89    90    1
    89    34    35    1
    90   122   119    1
    91    91    90    2
    92   109   108    2
    93   108   114   am
    94    90    98   am
    95   106   100   am
    96   101   100    2
    97    82    83    1
    98    82    81    1
    99   119   118    1
   100   135   136    1
   101    83    84    2
   102    37    35   ar
   103    35    36   ar
   104   100    99    1
   105   118   116   am
   106    77    76    2
   107   136   137    2
   108   136   138   am
   109    98    99    1
   110   114   115    1
   111    81    76   am
   112    99   102    1
   113    76    75    1
   114   116   115    1
   115   116   117    2
   116    73    71    1
   117    28    27    1
   118    72    71    1
   119   102   103    1
   120    71    70    1
   121    70    67    1
   122    27    26    1
   123    75    74    1
   124    75    78    1
   125    74    68   am
   126    19    16    1
   127   103   104    1
   128   103   105    1
   129    78    79    1
   130    78    80    1
   131    15    16    1
   132    68    67    1
   133    68    69    2
   134    67    66    1
   135    18    17    2
   136    26    25    1
   137    16    17    1
   138    24    25    1
   139    24    21    1
   140    14    12    1
   141    13    12    1
   142    20    21    1
   143    21    22    1
   144    12     9    1
   145    23    22    2
   146     6     5    1
   147     4     3    2
   148     7     5    1
   149     9     8    1
   150     9    10    1
   151     5     2    1
   152     3     2    1
   153    10    11    2
   154     2     1    1
