@<TRIPOS>MOLECULE
tmp/3hrdB00.pdb
 194 187 0 0 0
SMALL
GASTEIGER

@<TRIPOS>ATOM
      1  N        -16.5020   11.6660  -36.3440 N.3    45  ILE45      -0.1231
      2  CA       -17.6770   11.7550  -35.4920 C.3    45  ILE45       0.1692
      3  C        -17.5190   12.8550  -34.4540 C.2    45  ILE45       0.2593
      4  O        -18.0750   12.7770  -33.3520 O.2    45  ILE45      -0.2718
      5  CB       -17.9440   10.4080  -34.7980 C.3    45  ILE45       0.0266
      6  CG1      -16.7050    9.9750  -34.0140 C.3    45  ILE45       0.0019
      7  CG2      -18.3170    9.3570  -35.8480 C.3    45  ILE45       0.0020
      8  CD1      -16.7610    8.5300  -33.5150 C.3    45  ILE45       0.0001
      9  N        -16.7600   13.8850  -34.8170 N.am   46  GLY46      -0.1942
     10  CA       -16.5550   15.0010  -33.9130 C.3    46  GLY46       0.2014
     11  C        -15.1440   15.1280  -33.3720 C.2    46  GLY46       0.2639
     12  O        -14.7380   16.2150  -32.9500 O.2    46  GLY46      -0.2714
     13  N        -14.3990   14.0220  -33.3800 N.am   47  GLN47      -0.1963
     14  CA       -13.0250   14.0090  -32.8750 C.3    47  GLN47       0.1733
     15  C        -12.0690   14.7980  -33.7730 C.2    47  GLN47       0.2617
     16  O        -11.0480   15.2920  -33.3020 O.2    47  GLN47      -0.2715
     17  CB       -12.5200   12.5670  -32.7090 C.3    47  GLN47       0.0408
     18  CG       -11.9050   11.9700  -33.9580 C.3    47  GLN47       0.0908
     19  CD       -12.9210   11.3960  -34.9180 C.2    47  GLN47       0.2608
     20  OE1      -14.0920   11.7480  -34.8900 O.2    47  GLN47      -0.2717
     21  NE2      -12.4660   10.5160  -35.7920 N.am   47  GLN47      -0.0878
     22  N        -12.3840   14.9000  -35.0610 N.am   48  GLY48      -0.1940
     23  CA       -11.5400   15.6850  -35.9510 C.3    48  GLY48       0.2014
     24  C        -10.6790   14.9930  -36.9870 C.2    48  GLY48       0.2639
     25  O         -9.7700   15.6110  -37.5470 O.2    48  GLY48      -0.2714
     26  N        -10.9620   13.7250  -37.2520 N.am   49  SER49      -0.1949
     27  CA       -10.2070   12.9410  -38.2220 C.3    49  SER49       0.1924
     28  C        -10.0770   13.6030  -39.6010 C.2    49  SER49       0.2314
     29  O         -9.0320   13.4920  -40.2450 O.2    49  SER49      -0.2863
     30  CB       -10.8590   11.5630  -38.3770 C.3    49  SER49       0.2116
     31  OG       -12.2230   11.7000  -38.7360 O.3    49  SER49      -0.2180
     32  N         -7.4840   16.2460  -39.2650 N.3    52  ALA52      -0.1245
     33  CA        -6.1800   15.6300  -39.0590 C.3    52  ALA52       0.1562
     34  C         -5.5940   15.1590  -40.3860 C.2    52  ALA52       0.2260
     35  O         -4.4270   15.4100  -40.6930 O.2    52  ALA52      -0.2867
     36  CB        -6.2980   14.4550  -38.0840 C.3    52  ALA52       0.0290
     37  N        -14.3010    3.8180  -37.1680 N.3    84  THR84      -0.1203
     38  CA       -13.6870    4.8620  -36.3820 C.3    84  THR84       0.1994
     39  C        -13.9090    4.4150  -34.9390 C.2    84  THR84       0.2619
     40  O        -14.9240    4.7260  -34.3180 O.2    84  THR84      -0.2717
     41  CB       -14.3430    6.2250  -36.6500 C.3    84  THR84       0.1784
     42  OG1      -13.8870    6.7140  -37.9150 O.3    84  THR84      -0.2211
     43  CG2      -13.9760    7.2320  -35.5540 C.3    84  THR84       0.0376
     44  N        -12.9680    3.6160  -34.4480 N.am   85  SER85      -0.1937
     45  CA       -12.9890    3.0910  -33.0870 C.3    85  SER85       0.2055
     46  C        -11.5700    2.6590  -32.7730 C.2    85  SER85       0.2643
     47  O        -10.7080    2.6570  -33.6540 O.2    85  SER85      -0.2714
     48  CB       -13.9270    1.8820  -32.9690 C.3    85  SER85       0.2130
     49  OG       -13.4720    0.7880  -33.7480 O.3    85  SER85      -0.2179
     50  N        -11.3320    2.3050  -31.5150 N.am   86  ALA86      -0.1963
     51  CA       -10.0180    1.8570  -31.0690 C.3    86  ALA86       0.1728
     52  C         -8.9560    2.9420  -31.1990 C.2    86  ALA86       0.2617
     53  O         -7.7620    2.6360  -31.2920 O.2    86  ALA86      -0.2715
     54  CB        -9.5920    0.6080  -31.8550 C.3    86  ALA86       0.0334
     55  N         -9.3960    4.2030  -31.1990 N.am   87  SER87      -0.1936
     56  CA        -8.4880    5.3470  -31.3070 C.3    87  SER87       0.2055
     57  C         -7.4320    5.0350  -32.3670 C.2    87  SER87       0.2643
     58  O         -6.2520    5.2980  -32.1730 O.2    87  SER87      -0.2714
     59  CB        -7.8130    5.5950  -29.9550 C.3    87  SER87       0.2130
     60  OG        -8.7540    5.5230  -28.8870 O.3    87  SER87      -0.2179
     61  N         -7.8860    4.4990  -33.4990 N.am   88  ARG88      -0.1963
     62  CA        -7.0110    4.0630  -34.5960 C.3    88  ARG88       0.1729
     63  C         -6.8870    4.9240  -35.8510 C.2    88  ARG88       0.2616
     64  O         -5.9180    4.7790  -36.5890 O.2    88  ARG88      -0.2715
     65  CB        -7.4600    2.6700  -35.0640 C.3    88  ARG88       0.0348
     66  CG        -8.7700    2.7120  -35.8850 C.3    88  ARG88       0.0492
     67  CD        -9.3140    1.3230  -36.2090 C.3    88  ARG88       0.2205
     68  NE        -8.7590    0.7720  -37.4410 N.pl3  88  ARG88      -0.0865
     69  CZ        -9.1620    1.1090  -38.6670 C.cat  88  ARG88       0.5346
     70  NH1      -10.1370    2.0000  -38.8300 N.pl3  88  ARG88       0.1354
     71  NH2       -8.5810    0.5660  -39.7350 N.pl3  88  ARG88       0.1354
     72  N         -7.8500    5.8000  -36.1160 N.am   89  GLN89      -0.1963
     73  CA        -7.8150    6.5760  -37.3580 C.3    89  GLN89       0.1733
     74  C         -6.5980    7.4530  -37.6580 C.2    89  GLN89       0.2617
     75  O         -6.1210    7.4780  -38.7950 O.2    89  GLN89      -0.2715
     76  CB        -9.0980    7.4130  -37.4960 C.3    89  GLN89       0.0408
     77  CG       -10.3720    6.5820  -37.6390 C.3    89  GLN89       0.0908
     78  CD       -10.3820    5.6820  -38.8710 C.2    89  GLN89       0.2608
     79  OE1       -9.3500    5.4670  -39.5130 O.2    89  GLN89      -0.2717
     80  NE2      -11.5520    5.1380  -39.1960 N.am   89  GLN89      -0.0878
     81  N         -6.1070    8.1810  -36.6620 N.am   90  THR90      -0.1937
     82  CA        -4.9590    9.0470  -36.8860 C.3    90  THR90       0.2028
     83  C         -3.7960    8.1830  -37.3280 C.2    90  THR90       0.2642
     84  O         -3.0360    8.5520  -38.2030 O.2    90  THR90      -0.2714
     85  CB        -4.5340    9.7910  -35.6150 C.3    90  THR90       0.1808
     86  OG1       -5.6370   10.5480  -35.0960 O.3    90  THR90      -0.2208
     87  CG2       -3.3710   10.7290  -35.9360 C.3    90  THR90       0.0379
     88  N         -3.6680    7.0220  -36.7060 N.am   91  LEU91      -0.1977
     89  CA        -2.5970    6.0980  -37.0430 C.3    91  LEU91       0.1596
     90  C         -2.7850    5.4270  -38.4010 C.2    91  LEU91       0.2287
     91  O         -1.9880    5.6170  -39.3150 O.2    91  LEU91      -0.2864
     92  CB        -2.4830    5.0130  -35.9660 C.3    91  LEU91       0.0297
     93  CG        -1.6760    3.7590  -36.3310 C.3    91  LEU91       0.0022
     94  CD1       -0.2160    4.1390  -36.5870 C.3    91  LEU91       0.0001
     95  CD2       -1.7720    2.7250  -35.2030 C.3    91  LEU91       0.0001
     96  N          1.0560   11.3430  -26.8090 N.3   211  VAL211     -0.1245
     97  CA         0.4070   11.1970  -28.1040 C.3   211  VAL211      0.1561
     98  C          1.3730   11.0240  -29.2730 C.2   211  VAL211      0.2260
     99  O          0.9500   11.0490  -30.4290 O.2   211  VAL211     -0.2867
    100  CB        -0.4970   12.4190  -28.3950 C.3   211  VAL211      0.0252
    101  CG1       -1.5620   12.5540  -27.3080 C.3   211  VAL211      0.0019
    102  CG2        0.3480   13.6880  -28.4700 C.3   211  VAL211      0.0019
    103  N          3.1130   12.6660  -31.2760 N.3   213  THR213     -0.1204
    104  CA         3.2070   14.0510  -31.7150 C.3   213  THR213      0.1979
    105  C          1.7680   14.4360  -32.0420 C.2   213  THR213      0.2460
    106  O          1.0370   13.6620  -32.6630 O.2   213  THR213     -0.2732
    107  CB         4.1010   14.2250  -32.9560 C.3   213  THR213      0.1783
    108  OG1        4.2210   15.6230  -33.2460 O.3   213  THR213     -0.2211
    109  CG2        3.5140   13.5210  -34.1570 C.3   213  THR213      0.0376
    110  N          1.3330   15.6280  -31.6180 N.am  214  PRO214     -0.2717
    111  CA        -0.0480   16.0360  -31.9000 C.3   214  PRO214      0.1535
    112  C         -0.2430   16.6100  -33.3000 C.2   214  PRO214      0.2598
    113  O          0.5410   17.4390  -33.7460 O.2   214  PRO214     -0.2715
    114  CB        -0.3210   17.0550  -30.8010 C.3   214  PRO214      0.0310
    115  CG         1.0260   17.7600  -30.6960 C.3   214  PRO214      0.0237
    116  CD         2.0240   16.6170  -30.7660 C.3   214  PRO214      0.0939
    117  N         -1.2880   16.1640  -33.9920 N.am  215  ILE215     -0.1964
    118  CA        -1.5720   16.6570  -35.3340 C.3   215  ILE215      0.1727
    119  C         -2.1810   18.0640  -35.2280 C.2   215  ILE215      0.2616
    120  O         -1.9730   18.9240  -36.0900 O.2   215  ILE215     -0.2715
    121  CB        -2.5560   15.7210  -36.0710 C.3   215  ILE215      0.0290
    122  CG1       -2.0200   14.2860  -36.0710 C.3   215  ILE215      0.0022
    123  CG2       -2.7520   16.1890  -37.4980 C.3   215  ILE215      0.0023
    124  CD1       -0.6830   14.1240  -36.7660 C.3   215  ILE215      0.0001
    125  N         -2.9340   18.2840  -34.1560 N.am  216  ASN216     -0.1972
    126  CA        -3.5750   19.5710  -33.8990 C.3   216  ASN216      0.1688
    127  C         -3.7130   19.6590  -32.3840 C.2   216  ASN216      0.2292
    128  O         -4.5480   18.9660  -31.7880 O.2   216  ASN216     -0.2864
    129  CB        -4.9540   19.6140  -34.5600 C.3   216  ASN216      0.1181
    130  CG        -5.5970   20.9810  -34.4830 C.2   216  ASN216      0.2629
    131  OD1       -5.6770   21.5830  -33.4110 O.2   216  ASN216     -0.2716
    132  ND2       -6.0660   21.4800  -35.6250 N.am  216  ASN216     -0.0877
    133  N         -7.2760   20.3280  -30.9710 N.3   219  MET219     -0.1230
    134  CA        -8.1620   19.1710  -31.0620 C.3   219  MET219      0.1702
    135  C         -7.7950   18.1160  -30.0130 C.2   219  MET219      0.2592
    136  O         -8.6780   17.4920  -29.4320 O.2   219  MET219     -0.2718
    137  CB        -8.1360   18.5570  -32.4690 C.3   219  MET219      0.0401
    138  CG        -8.8080   19.4200  -33.5320 C.3   219  MET219      0.0596
    139  SD        -9.2560   18.5230  -35.0420 S.3   219  MET219     -0.1393
    140  CE        -7.6260   18.1180  -35.7310 C.3   219  MET219      0.0692
    141  N         -6.5050   17.9120  -29.7600 N.am  220  VAL220     -0.1980
    142  CA        -6.0950   16.9260  -28.7490 C.3   220  VAL220      0.1595
    143  C         -6.5630   17.3710  -27.3620 C.2   220  VAL220      0.2287
    144  O         -7.0320   16.5590  -26.5570 O.2   220  VAL220     -0.2864
    145  CB        -4.5650   16.7440  -28.6840 C.3   220  VAL220      0.0276
    146  CG1       -4.2060   15.8110  -27.5300 C.3   220  VAL220      0.0022
    147  CG2       -4.0480   16.1870  -29.9840 C.3   220  VAL220      0.0022
    148  N        -10.1470   16.6350  -26.8320 N.3   223  GLN223     -0.1245
    149  CA       -10.3710   15.2250  -26.5610 C.3   223  GLN223      0.1566
    150  C        -10.1610   14.9930  -25.0790 C.2   223  GLN223      0.2260
    151  O        -10.9820   14.3560  -24.4180 O.2   223  GLN223     -0.2867
    152  CB        -9.4030   14.3630  -27.3750 C.3   223  GLN223      0.0367
    153  CG        -9.8250   14.2180  -28.8300 C.3   223  GLN223      0.0905
    154  CD       -11.2010   13.5870  -28.9490 C.2   223  GLN223      0.2608
    155  OE1      -11.3960   12.4280  -28.5680 O.2   223  GLN223     -0.2717
    156  NE2      -12.1670   14.3480  -29.4650 N.am  223  GLN223     -0.0878
    157  N          2.7120    9.9850  -34.8390 N.3   284  ALA284     -0.1231
    158  CA         1.5260   10.2290  -34.0120 C.3   284  ALA284      0.1694
    159  C          0.7280    8.9760  -33.6640 C.2   284  ALA284      0.2592
    160  O          0.5960    8.0720  -34.4820 O.2   284  ALA284     -0.2718
    161  CB         0.6070   11.2420  -34.7100 C.3   284  ALA284      0.0304
    162  N          0.1970    8.9320  -32.4450 N.am  285  LYS285     -0.1966
    163  CA        -0.6230    7.8030  -32.0030 C.3   285  LYS285      0.1728
    164  C         -1.9290    8.3140  -31.3930 C.2   285  LYS285      0.2617
    165  O         -2.0620    9.4970  -31.1020 O.2   285  LYS285     -0.2715
    166  CB         0.1460    6.9160  -31.0130 C.3   285  LYS285      0.0311
    167  CG         0.7350    7.6330  -29.8160 C.3   285  LYS285      0.0038
    168  CD         1.5440    6.6550  -28.9840 C.3   285  LYS285      0.0206
    169  CE         2.2120    7.3180  -27.8020 C.3   285  LYS285      0.1093
    170  NZ         3.0070    6.3060  -27.0420 N.3   285  LYS285     -0.1314
    171  N         -2.8880    7.4170  -31.2010 N.am  286  GLY286     -0.1940
    172  CA        -4.1990    7.8070  -30.6950 C.3   286  GLY286      0.2014
    173  C         -4.3970    8.3580  -29.2960 C.2   286  GLY286      0.2639
    174  O         -3.6340    8.0650  -28.3800 O.2   286  GLY286     -0.2714
    175  N         -5.4600    9.1480  -29.1330 N.am  287  VAL287     -0.1963
    176  CA        -5.7820    9.7520  -27.8470 C.3   287  VAL287      0.1727
    177  C         -7.3020    9.7840  -27.5700 C.2   287  VAL287      0.2617
    178  O         -7.7260   10.0880  -26.4600 O.2   287  VAL287     -0.2715
    179  CB        -5.2170   11.1970  -27.7780 C.3   287  VAL287      0.0290
    180  CG1       -6.0270   12.1110  -28.6810 C.3   287  VAL287      0.0023
    181  CG2       -5.2110   11.7060  -26.3410 C.3   287  VAL287      0.0023
    182  N         -8.1030    9.4510  -28.5780 N.am  288  GLY288     -0.1940
    183  CA        -9.5490    9.4720  -28.4390 C.3   288  GLY288      0.2014
    184  C        -10.0800    8.8490  -27.1620 C.2   288  GLY288      0.2638
    185  O        -10.7960    9.4860  -26.3900 O.2   288  GLY288     -0.2714
    186  N         -9.7250    7.5880  -26.9520 N.am  289  GLU289     -0.1977
    187  CA       -10.1420    6.8530  -25.7820 C.3   289  GLU289      0.1602
    188  C         -9.1740    7.0570  -24.6220 C.2   289  GLU289      0.2287
    189  O         -9.5900    7.1150  -23.4650 O.2   289  GLU289     -0.2864
    190  CB       -10.2910    5.3870  -26.1600 C.3   289  GLU289      0.0415
    191  CG       -11.3900    5.2220  -27.2200 C.3   289  GLU289      0.1163
    192  CD       -11.5070    3.8100  -27.7430 C.2   289  GLU289      0.3649
    193  OE1      -10.6120    3.3760  -28.4940 O.co2 289  GLU289     -0.2457
    194  OE2      -12.4990    3.1390  -27.4030 O.co2 289  GLU289     -0.2457
@<TRIPOS>BOND
     1    35    34    2
     2    34    33    1
     3    29    28    2
     4    71    69    1
     5    28    27    1
     6    79    78    2
     7    91    90    2
     8    32    33    1
     9    80    78   am
    10    33    36    1
    11    78    77    1
    12    70    69    1
    13    75    74    2
    14    31    30    1
    15    69    68    2
    16    90    89    1
    17    30    27    1
    18    27    26    1
    19    84    83    2
    20    42    41    1
    21    74    73    1
    22    74    81   am
    23    77    76    1
    24    25    24    2
    25   123   121    1
    26    76    73    1
    27    68    67    1
    28    73    72    1
    29    83    82    1
    30    83    88   am
    31    26    24   am
    32    37    38    1
    33    89    88    1
    34    89    92    1
    35    24    23    1
    36    82    81    1
    37    82    85    1
    38   124   122    1
    39    41    38    1
    40    41    43    1
    41    64    63    2
    42    94    93    1
    43    38    39    1
    44     1     2    1
    45    93    92    1
    46    93    95    1
    47    67    66    1
    48    72    63   am
    49   120   119    2
    50   122   121    1
    51   121   118    1
    52    23    22    1
    53    87    85    1
    54    66    65    1
    55    63    62    1
    56     7     5    1
    57    21    19   am
    58   140   139    1
    59   132   130   am
    60    85    86    1
    61     2     5    1
    62     2     3    1
    63   118   119    1
    64   118   117    1
    65   119   125   am
    66    65    62    1
    67    22    15   am
    68   139   138    1
    69    39    44   am
    70    39    40    2
    71    19    20    2
    72    19    18    1
    73   157   158    1
    74     9     3   am
    75     9    10    1
    76     5     6    1
    77   161   158    1
    78    62    61    1
    79   129   130    1
    80   129   126    1
    81   130   131    2
    82   160   159    2
    83     3     4    2
    84    44    45    1
    85   109   107    1
    86   125   126    1
    87     6     8    1
    88   158   159    1
    89   117   112   am
    90    18    17    1
    91    10    11    1
    92   126   127    1
    93    15    16    2
    94    15    14    1
    95    49    48    1
    96   113   112    2
    97   159   162   am
    98    47    46    2
    99   138   137    1
   100    61    57   am
   101    13    11   am
   102    13    14    1
   103    11    12    2
   104   112   111    1
   105   108   107    1
   106    45    48    1
   107    45    46    1
   108   107   104    1
   109    14    17    1
   110    46    50   am
   111   106   105    2
   112   137   134    1
   113   162   163    1
   114   127   128    2
   115    57    58    2
   116    57    56    1
   117   105   104    1
   118   105   110   am
   119   163   164    1
   120   163   166    1
   121   111   110    1
   122   111   114    1
   123    54    51    1
   124   104   103    1
   125   110   116    1
   126    50    51    1
   127   164   171   am
   128   164   165    2
   129    56    55    1
   130    56    59    1
   131    53    52    2
   132   171   172    1
   133    52    55   am
   134    52    51    1
   135   134   133    1
   136   134   135    1
   137   166   167    1
   138   114   115    1
   139   116   115    1
   140   172   173    1
   141    99    98    2
   142   135   141   am
   143   135   136    2
   144   147   145    1
   145    59    60    1
   146   167   168    1
   147   141   142    1
   148   156   154   am
   149   173   175   am
   150   173   174    2
   151    98    97    1
   152   175   176    1
   153   168   169    1
   154   154   153    1
   155   154   155    2
   156   153   152    1
   157   142   145    1
   158   142   143    1
   159   145   146    1
   160   180   179    1
   161   182   183    1
   162   182   177   am
   163   193   192   ar
   164   102   100    1
   165   183   184    1
   166   100    97    1
   167   100   101    1
   168    97    96    1
   169   176   179    1
   170   176   177    1
   171   169   170    1
   172   179   181    1
   173   192   194   ar
   174   192   191    1
   175   177   178    2
   176   152   149    1
   177   143   144    2
   178   191   190    1
   179   184   186   am
   180   184   185    2
   181   186   187    1
   182   148   149    1
   183   149   150    1
   184   190   187    1
   185   187   188    1
   186   150   151    2
   187   188   189    2
