@<TRIPOS>MOLECULE
tmp/3hrfA01.pdb
 124 119 0 0 0
SMALL
GASTEIGER

@<TRIPOS>ATOM
      1  N          2.6210   -8.5810  -12.1820 N.3     2  LYS2       -0.1245
      2  CA         3.8500   -9.3410  -12.0450 C.3     2  LYS2        0.1561
      3  C          3.6800  -10.3910  -10.9610 C.2     2  LYS2        0.2260
      4  O          2.9280  -10.1890   -9.9960 O.2     2  LYS2       -0.2867
      5  CB         5.0040   -8.4090  -11.6770 C.3     2  LYS2        0.0271
      6  CG         5.5350   -7.5580  -12.8230 C.3     2  LYS2        0.0035
      7  CD         6.3870   -8.3800  -13.7850 C.3     2  LYS2        0.0206
      8  CE         7.3120   -7.5080  -14.5990 C.3     2  LYS2        0.1093
      9  NZ         8.1520   -8.3230  -15.4990 N.3     2  LYS2       -0.1314
     10  N         20.1700   -8.3210   -5.4940 N.3    41  LYS41      -0.1245
     11  CA        20.4000   -6.9750   -6.0440 C.3    41  LYS41       0.1561
     12  C         21.7100   -6.3230   -5.5630 C.2    41  LYS41       0.2260
     13  O         22.5270   -5.8860   -6.3860 O.2    41  LYS41      -0.2867
     14  CB        19.2140   -6.0640   -5.7270 C.3    41  LYS41       0.0271
     15  CG        18.0590   -6.1410   -6.7240 C.3    41  LYS41       0.0035
     16  CD        16.9180   -5.3800   -6.1560 C.3    41  LYS41       0.0206
     17  CE        15.7440   -5.4120   -7.0570 C.3    41  LYS41       0.1093
     18  NZ        14.6440   -4.6600   -6.4030 N.3    41  LYS41      -0.1314
     19  N         24.8640   -8.0820   -7.1590 N.3    44  ILE44      -0.1231
     20  CA        25.1350   -7.8120   -8.5710 C.3    44  ILE44       0.1692
     21  C         25.5170   -6.3460   -8.7970 C.2    44  ILE44       0.2591
     22  O         26.2970   -6.0590   -9.7040 O.2    44  ILE44      -0.2718
     23  CB        23.9920   -8.2510   -9.5390 C.3    44  ILE44       0.0266
     24  CG1       22.7060   -7.5020   -9.2390 C.3    44  ILE44       0.0019
     25  CG2       23.7430   -9.7690   -9.4610 C.3    44  ILE44       0.0020
     26  CD1       21.6080   -7.6760  -10.2920 C.3    44  ILE44       0.0001
     27  N         24.9750   -5.4410   -7.9790 N.am   45  ILE45      -0.1980
     28  CA        25.3420   -4.0160   -8.0320 C.3    45  ILE45       0.1595
     29  C         26.7890   -3.8410   -7.5780 C.2    45  ILE45       0.2287
     30  O         27.5640   -3.1700   -8.2560 O.2    45  ILE45      -0.2864
     31  CB        24.4050   -3.0880   -7.1840 C.3    45  ILE45       0.0276
     32  CG1       23.0070   -3.0110   -7.7890 C.3    45  ILE45       0.0022
     33  CG2       24.9670   -1.6540   -7.0840 C.3    45  ILE45       0.0022
     34  CD1       21.9630   -2.5180   -6.7960 C.3    45  ILE45       0.0001
     35  N         25.2690   -5.9650  -13.2470 N.3    50  VAL50      -0.1245
     36  CA        23.9350   -5.6040  -13.7130 C.3    50  VAL50       0.1561
     37  C         23.7380   -5.7480  -15.2320 C.2    50  VAL50       0.2260
     38  O         22.6720   -6.1940  -15.6590 O.2    50  VAL50      -0.2867
     39  CB        23.5060   -4.2190  -13.2440 C.3    50  VAL50       0.0252
     40  CG1       22.2200   -3.7750  -13.9580 C.3    50  VAL50       0.0019
     41  CG2       23.3200   -4.2100  -11.7080 C.3    50  VAL50       0.0019
     42  N         22.6450   -9.1850  -16.2740 N.3    53  VAL53      -0.1231
     43  CA        21.2930   -9.5460  -15.8960 C.3    53  VAL53       0.1692
     44  C         20.2610   -8.9560  -16.8550 C.2    53  VAL53       0.2592
     45  O         19.3230   -9.6380  -17.2700 O.2    53  VAL53      -0.2718
     46  CB        21.0060   -9.0570  -14.4660 C.3    53  VAL53       0.0266
     47  CG1       19.5790   -9.2740  -14.1310 C.3    53  VAL53       0.0020
     48  CG2       21.9180   -9.7790  -13.5010 C.3    53  VAL53       0.0020
     49  N         20.4490   -7.6890  -17.2020 N.am   54  THR54      -0.1953
     50  CA        19.5800   -7.0350  -18.1700 C.3    54  THR54       0.1897
     51  C         19.8090   -7.6510  -19.5600 C.2    54  THR54       0.2313
     52  O         18.8630   -7.8200  -20.3070 O.2    54  THR54      -0.2863
     53  CB        19.7570   -5.4800  -18.2050 C.3    54  THR54       0.1794
     54  OG1       21.1250   -5.1430  -18.4460 O.3    54  THR54      -0.2208
     55  CG2       19.3520   -4.8580  -16.8800 C.3    54  THR54       0.0378
     56  N         17.8360  -10.9890  -19.6820 N.3    57  ARG57      -0.1245
     57  CA        16.3950  -10.7640  -19.8230 C.3    57  ARG57       0.1563
     58  C         16.0570  -10.3280  -21.2480 C.2    57  ARG57       0.2260
     59  O         15.1340  -10.8430  -21.8750 O.2    57  ARG57      -0.2867
     60  CB        15.9090   -9.6820  -18.8430 C.3    57  ARG57       0.0307
     61  CG        14.3980   -9.5050  -18.8680 C.3    57  ARG57       0.0489
     62  CD        13.9360   -8.3070  -18.0740 C.3    57  ARG57       0.2205
     63  NE        14.4840   -7.0730  -18.6280 N.pl3  57  ARG57      -0.0865
     64  CZ        14.2830   -5.8620  -18.1170 C.cat  57  ARG57       0.5346
     65  NH1       14.8410   -4.8140  -18.6920 N.pl3  57  ARG57       0.1354
     66  NH2       13.5310   -5.6980  -17.0390 N.pl3  57  ARG57       0.1354
     67  N          9.4350  -12.4290  -15.3690 N.3    74  THR74      -0.1203
     68  CA        10.4190  -11.9150  -14.4370 C.3    74  THR74       0.1994
     69  C          9.6730  -11.1280  -13.3490 C.2    74  THR74       0.2618
     70  O          8.5550  -10.6300  -13.5600 O.2    74  THR74      -0.2717
     71  CB        11.4740  -11.0050  -15.1260 C.3    74  THR74       0.1784
     72  OG1       10.7910   -9.9590  -15.8330 O.3    74  THR74      -0.2211
     73  CG2       12.3490  -11.7930  -16.1170 C.3    74  THR74       0.0376
     74  N         10.2770  -11.0380  -12.1720 N.am   75  PHE75      -0.1961
     75  CA         9.7720  -10.1570  -11.1340 C.3    75  PHE75       0.1771
     76  C         10.9020   -9.8080  -10.1800 C.2    75  PHE75       0.2619
     77  O         12.0190  -10.2740  -10.3300 O.2    75  PHE75      -0.2715
     78  CB         8.5350  -10.7250  -10.4160 C.3    75  PHE75       0.0574
     79  CG         8.7450  -12.0650   -9.7600 C.ar   75  PHE75      -0.0200
     80  CD1        9.1330  -12.1500   -8.4300 C.ar   75  PHE75      -0.0042
     81  CD2        8.5310  -13.2420  -10.4680 C.ar   75  PHE75      -0.0042
     82  CE1        9.3020  -13.3910   -7.8250 C.ar   75  PHE75      -0.0003
     83  CE2        8.6960  -14.4920   -9.8600 C.ar   75  PHE75      -0.0003
     84  CZ         9.0820  -14.5570   -8.5390 C.ar   75  PHE75      -0.0000
     85  N         10.6170   -8.9600   -9.2140 N.am   76  GLN76      -0.1977
     86  CA        11.6510   -8.5470   -8.2970 C.3    76  GLN76       0.1601
     87  C         10.9990   -8.3360   -6.9510 C.2    76  GLN76       0.2287
     88  O          9.7760   -8.1110   -6.8710 O.2    76  GLN76      -0.2864
     89  CB        12.3280   -7.2630   -8.7980 C.3    76  GLN76       0.0394
     90  CG        11.4200   -6.0210   -8.8010 C.3    76  GLN76       0.0908
     91  CD        12.1160   -4.7960   -9.3470 C.2    76  GLN76       0.2608
     92  OE1       13.0640   -4.2810   -8.7510 O.2    76  GLN76      -0.2717
     93  NE2       11.6520   -4.3210  -10.4950 N.am   76  GLN76      -0.0878
     94  N         16.0650  -10.3530   -7.6840 N.3    81  LEU81      -0.1231
     95  CA        15.5460  -10.4330   -9.0470 C.3    81  LEU81       0.1693
     96  C         15.2660  -11.8960   -9.3340 C.2    81  LEU81       0.2592
     97  O         16.0400  -12.7600   -8.8830 O.2    81  LEU81      -0.2718
     98  CB        16.6010   -9.9640  -10.0490 C.3    81  LEU81       0.0284
     99  CG        17.0430   -8.4920   -9.9890 C.3    81  LEU81       0.0019
    100  CD1       18.1380   -8.1990  -11.0050 C.3    81  LEU81       0.0001
    101  CD2       15.8490   -7.5590  -10.2020 C.3    81  LEU81       0.0001
    102  N         14.2020  -12.1690  -10.0960 N.am   82  TYR82      -0.1962
    103  CA        13.7800  -13.5350  -10.3770 C.3    82  TYR82       0.1771
    104  C         13.4680  -13.7020  -11.8460 C.2    82  TYR82       0.2619
    105  O         12.6800  -12.9380  -12.4000 O.2    82  TYR82      -0.2715
    106  CB        12.5200  -13.9160   -9.5980 C.3    82  TYR82       0.0574
    107  CG        12.5890  -13.7390   -8.0820 C.ar   82  TYR82      -0.0198
    108  CD1       12.5140  -12.4690   -7.4990 C.ar   82  TYR82      -0.0009
    109  CD2       12.6500  -14.8470   -7.2400 C.ar   82  TYR82      -0.0009
    110  CE1       12.5420  -12.3080   -6.1150 C.ar   82  TYR82       0.0417
    111  CE2       12.6900  -14.7100   -5.8750 C.ar   82  TYR82       0.0417
    112  CZ        12.6460  -13.4380   -5.3110 C.ar   82  TYR82       0.1957
    113  OH        12.6530  -13.2980   -3.9590 O.3    82  TYR82      -0.2866
    114  N         14.0600  -14.7240  -12.4490 N.am   83  PHE83      -0.1974
    115  CA        13.7160  -15.1430  -13.8120 C.3    83  PHE83       0.1639
    116  C         12.9150  -16.4350  -13.7040 C.2    83  PHE83       0.2290
    117  O         13.4380  -17.4180  -13.1960 O.2    83  PHE83      -0.2864
    118  CB        14.9710  -15.5240  -14.5850 C.3    83  PHE83       0.0560
    119  CG        15.8800  -14.3720  -14.9610 C.ar   83  PHE83      -0.0200
    120  CD1       16.8530  -13.9160  -14.0880 C.ar   83  PHE83      -0.0042
    121  CD2       15.8570  -13.8520  -16.2620 C.ar   83  PHE83      -0.0042
    122  CE1       17.7500  -12.8860  -14.4770 C.ar   83  PHE83      -0.0003
    123  CE2       16.7400  -12.8350  -16.6520 C.ar   83  PHE83      -0.0003
    124  CZ        17.6830  -12.3520  -15.7720 C.ar   83  PHE83      -0.0000
@<TRIPOS>BOND
     1    59    58    2
     2    58    57    1
     3    52    51    2
     4    57    56    1
     5    57    60    1
     6    51    50    1
     7    61    60    1
     8    61    62    1
     9    65    64    1
    10    63    64    2
    11    63    62    1
    12    54    53    1
    13    53    50    1
    14    53    55    1
    15    50    49    1
    16    64    66    1
    17    45    44    2
    18    49    44   am
    19    44    43    1
    20   123   121   ar
    21   123   124   ar
    22    42    43    1
    23   121   119   ar
    24    73    71    1
    25    43    46    1
    26    72    71    1
    27   124   122   ar
    28    38    37    2
    29     9     8    1
    30    67    68    1
    31    37    36    1
    32    71    68    1
    33   119   118    1
    34   119   120   ar
    35     8     7    1
    36   118   115    1
    37   122   120   ar
    38    46    47    1
    39    46    48    1
    40    68    69    1
    41    40    39    1
    42   115   116    1
    43   115   114    1
    44     7     6    1
    45    36    35    1
    46    36    39    1
    47   116   117    2
    48    70    69    2
    49    69    74   am
    50    39    41    1
    51     6     5    1
    52   114   104   am
    53   105   104    2
    54     1     2    1
    55    74    75    1
    56     2     5    1
    57     2     3    1
    58   104   103    1
    59    75    78    1
    60    75    76    1
    61   100    99    1
    62     3     4    2
    63    93    91   am
    64    81    83   ar
    65    81    79   ar
    66    78    79    1
    67   103   102    1
    68   103   106    1
    69    77    76    2
    70    26    24    1
    71   101    99    1
    72    76    85   am
    73   102    96   am
    74    98    99    1
    75    98    95    1
    76    83    84   ar
    77    79    80   ar
    78    22    21    2
    79   106   107    1
    80    23    25    1
    81    23    24    1
    82    23    20    1
    83    91    90    1
    84    91    92    2
    85    96    95    1
    86    96    97    2
    87    85    86    1
    88    95    94    1
    89    90    89    1
    90    89    86    1
    91    21    20    1
    92    21    27   am
    93    20    19    1
    94    84    82   ar
    95    80    82   ar
    96    86    87    1
    97    30    29    2
    98   107   108   ar
    99   107   109   ar
   100    28    27    1
   101    28    29    1
   102    28    31    1
   103    32    31    1
   104    32    34    1
   105   108   110   ar
   106   109   111   ar
   107    31    33    1
   108    17    18    1
   109    17    16    1
   110    87    88    2
   111    15    16    1
   112    15    14    1
   113    13    12    2
   114   110   112   ar
   115    11    14    1
   116    11    12    1
   117    11    10    1
   118   111   112   ar
   119   112   113    1
