@<TRIPOS>MOLECULE
tmp/3hrpA00.pdb
 142 135 0 0 0
SMALL
GASTEIGER

@<TRIPOS>ATOM
      1  N         44.6760   -6.2170    5.7090 N.3    49  ARG49      -0.1245
      2  CA        45.2100   -5.1420    6.5380 C.3    49  ARG49       0.1563
      3  C         46.6180   -4.8370    6.0960 C.2    49  ARG49       0.2260
      4  O         47.5030   -5.6670    6.2510 O.2    49  ARG49      -0.2867
      5  CB        45.2360   -5.5530    8.0120 C.3    49  ARG49       0.0307
      6  CG        43.9350   -6.1770    8.5100 C.3    49  ARG49       0.0489
      7  CD        42.8220   -5.1720    8.7680 C.3    49  ARG49       0.2205
      8  NE        41.5910   -5.8750    9.0800 N.pl3  49  ARG49      -0.0865
      9  CZ        40.3810   -5.3150    9.1330 C.cat  49  ARG49       0.5346
     10  NH1       40.2210   -4.0010    8.9350 N.pl3  49  ARG49       0.1354
     11  NH2       39.3190   -6.0660    9.3890 N.pl3  49  ARG49       0.1354
     12  N         46.8210   -3.5670   13.0510 N.3    67  ARG67      -0.1231
     13  CA        45.5190   -3.9060   13.6560 C.3    67  ARG67       0.1694
     14  C         44.8270   -4.8410   12.6940 C.2    67  ARG67       0.2592
     15  O         44.8570   -4.6430   11.4760 O.2    67  ARG67      -0.2718
     16  CB        44.6510   -2.6770   13.9340 C.3    67  ARG67       0.0321
     17  CG        45.2260   -1.7440   14.9850 C.3    67  ARG67       0.0489
     18  CD        44.3950   -0.4880   15.1540 C.3    67  ARG67       0.2205
     19  NE        44.2650    0.2550   13.9010 N.pl3  67  ARG67      -0.0865
     20  CZ        43.1940    0.2700   13.1020 C.cat  67  ARG67       0.5346
     21  NH1       42.0750   -0.3900   13.3870 N.pl3  67  ARG67       0.1354
     22  NH2       43.2380    0.9930   11.9930 N.pl3  67  ARG67       0.1354
     23  N         44.2910   -5.9230   13.2360 N.am   68  GLN68      -0.1966
     24  CA        43.6370   -6.9360   12.4260 C.3    68  GLN68       0.1733
     25  C         42.7790   -7.7670   13.3640 C.2    68  GLN68       0.2616
     26  O         42.9540   -7.6930   14.5830 O.2    68  GLN68      -0.2715
     27  CB        44.6900   -7.8220   11.7470 C.3    68  GLN68       0.0408
     28  CG        45.5720   -8.6060   12.7330 C.3    68  GLN68       0.0908
     29  CD        46.7700   -9.2350   12.0740 C.2    68  GLN68       0.2608
     30  OE1       46.7190  -10.4010   11.6800 O.2    68  GLN68      -0.2717
     31  NE2       47.8590   -8.4700   11.9350 N.am   68  GLN68      -0.0878
     32  N         41.8650   -8.5490   12.8060 N.am   69  LEU69      -0.1977
     33  CA        40.9700   -9.3570   13.6220 C.3    69  LEU69       0.1596
     34  C         41.7320  -10.4590   14.3380 C.2    69  LEU69       0.2287
     35  O         42.6870  -11.0200   13.7880 O.2    69  LEU69      -0.2864
     36  CB        39.8440   -9.9620   12.7720 C.3    69  LEU69       0.0297
     37  CG        38.8290   -8.9410   12.2280 C.3    69  LEU69       0.0022
     38  CD1       37.7150   -9.5950   11.3810 C.3    69  LEU69       0.0001
     39  CD2       38.2720   -8.1620   13.4040 C.3    69  LEU69       0.0001
     40  N         44.4440   -9.8430   19.9620 N.3    94  GLN94      -0.1245
     41  CA        43.9170   -8.4830   19.9680 C.3    94  GLN94       0.1566
     42  C         43.8180   -8.0160   21.3930 C.2    94  GLN94       0.2260
     43  O         43.4990   -8.8220   22.2720 O.2    94  GLN94      -0.2867
     44  CB        42.5390   -8.4760   19.3140 C.3    94  GLN94       0.0367
     45  CG        41.8060   -7.1270   19.2950 C.3    94  GLN94       0.0905
     46  CD        40.3900   -7.2830   18.7820 C.2    94  GLN94       0.2608
     47  OE1       39.5390   -7.8860   19.4470 O.2    94  GLN94      -0.2717
     48  NE2       40.1260   -6.7350   17.6000 N.am   94  GLN94      -0.0878
     49  N         33.7120    2.4930   11.7400 N.3   317  ASP317     -0.1225
     50  CA        35.1280    2.1210   11.5460 C.3   317  ASP317      0.1805
     51  C         35.4640    1.8870   10.0730 C.2   317  ASP317      0.2598
     52  O         34.5750    1.9500    9.2060 O.2   317  ASP317     -0.2718
     53  CB        35.5420    0.9430   12.4540 C.3   317  ASP317      0.1424
     54  CG        34.9870   -0.3760   12.0150 C.2   317  ASP317      0.3668
     55  OD1       34.4590   -0.4920   10.8860 O.co2 317  ASP317     -0.2456
     56  OD2       35.1130   -1.3300   12.8170 O.co2 317  ASP317     -0.2456
     57  N         36.7380    1.6100    9.7750 N.am  318  GLU318     -0.1965
     58  CA        37.2020    1.4940    8.3730 C.3   318  GLU318      0.1733
     59  C         36.6320    0.2810    7.6240 C.2   318  GLU318      0.2616
     60  O         36.7420    0.2020    6.4070 O.2   318  GLU318     -0.2715
     61  CB        38.7450    1.5440    8.2550 C.3   318  GLU318      0.0429
     62  CG        39.5120    0.3760    8.8790 C.3   318  GLU318      0.1163
     63  CD        39.8800    0.5840   10.3500 C.2   318  GLU318      0.3649
     64  OE1       39.1640    1.3260   11.0730 O.co2 318  GLU318     -0.2457
     65  OE2       40.8870   -0.0350   10.7760 O.co2 318  GLU318     -0.2457
     66  N         36.0010   -0.6350    8.3630 N.am  319  ASP319     -0.1971
     67  CA        35.2930   -1.7850    7.7880 C.3   319  ASP319      0.1709
     68  C         33.7950   -1.5160    7.5590 C.2   319  ASP319      0.2293
     69  O         33.0890   -2.3760    7.0270 O.2   319  ASP319     -0.2864
     70  CB        35.4020   -2.9920    8.7230 C.3   319  ASP319      0.1436
     71  CG        36.7660   -3.6410    8.7140 C.2   319  ASP319      0.3671
     72  OD1       37.7140   -3.2090    7.9870 O.co2 319  ASP319     -0.2456
     73  OD2       36.8860   -4.6200    9.4760 O.co2 319  ASP319     -0.2456
     74  N         31.6670   -0.9480    9.9620 N.3   321  ASN321     -0.1240
     75  CA        30.8860   -1.3090   11.1390 C.3   321  ASN321      0.1653
     76  C         30.3910   -0.0530   11.8250 C.2   321  ASN321      0.2266
     77  O         31.0930    0.9490   11.8610 O.2   321  ASN321     -0.2867
     78  CB        31.7070   -2.1310   12.1310 C.3   321  ASN321      0.1155
     79  CG        32.2200   -3.4060   11.5370 C.2   321  ASN321      0.2627
     80  OD1       31.4830   -4.1370   10.8480 O.2   321  ASN321     -0.2716
     81  ND2       33.4960   -3.6970   11.7840 N.am  321  ASN321     -0.0877
     82  N         29.0250    1.8800   15.3250 N.3   323  TYR323     -0.1241
     83  CA        29.1140    1.9210   16.7960 C.3   323  TYR323      0.1605
     84  C         28.1160    2.9360   17.3080 C.2   323  TYR323      0.2264
     85  O         28.1070    4.0820   16.8330 O.2   323  TYR323     -0.2867
     86  CB        30.5240    2.2750   17.2270 C.3   323  TYR323      0.0534
     87  CG        31.5050    1.2380   16.7510 C.ar  323  TYR323     -0.0201
     88  CD1       31.9700    1.2510   15.4390 C.ar  323  TYR323     -0.0009
     89  CD2       31.9370    0.1990   17.5970 C.ar  323  TYR323     -0.0009
     90  CE1       32.8610    0.2880   14.9720 C.ar  323  TYR323      0.0417
     91  CE2       32.8420   -0.7730   17.1350 C.ar  323  TYR323      0.0417
     92  CZ        33.3010   -0.7250   15.8160 C.ar  323  TYR323      0.1957
     93  OH        34.1710   -1.6780   15.3000 O.3   323  TYR323     -0.2866
     94  N         27.8780   -2.5150   18.7850 N.3   335  LYS335     -0.1245
     95  CA        28.5510   -2.5930   17.4950 C.3   335  LYS335      0.1561
     96  C         27.6680   -3.3620   16.5260 C.2   335  LYS335      0.2260
     97  O         27.3060   -4.5120   16.8080 O.2   335  LYS335     -0.2867
     98  CB        29.8960   -3.3020   17.6270 C.3   335  LYS335      0.0271
     99  CG        30.6180   -3.5740   16.3190 C.3   335  LYS335      0.0035
    100  CD        31.9520   -4.2980   16.5910 C.3   335  LYS335      0.0206
    101  CE        32.6770   -4.6910   15.3060 C.3   335  LYS335      0.1093
    102  NZ        33.7900   -5.6620   15.6020 N.3   335  LYS335     -0.1314
    103  N         35.3260    7.7970   16.2700 N.3   373  TYR373     -0.1241
    104  CA        36.4700    6.9560   15.9550 C.3   373  TYR373      0.1605
    105  C         37.6500    7.7680   15.4110 C.2   373  TYR373      0.2264
    106  O         37.4670    8.6860   14.6020 O.2   373  TYR373     -0.2867
    107  CB        36.0200    5.9430   14.9340 C.3   373  TYR373      0.0534
    108  CG        37.0530    4.9260   14.5600 C.ar  373  TYR373     -0.0201
    109  CD1       37.7060    4.1770   15.5350 C.ar  373  TYR373     -0.0009
    110  CD2       37.3460    4.6720   13.2360 C.ar  373  TYR373     -0.0009
    111  CE1       38.6220    3.2260   15.1990 C.ar  373  TYR373      0.0417
    112  CE2       38.2740    3.7100   12.8820 C.ar  373  TYR373      0.0417
    113  CZ        38.9170    2.9860   13.8710 C.ar  373  TYR373      0.1957
    114  OH        39.8280    2.0120   13.5150 O.3   373  TYR373     -0.2866
    115  N         38.2430    4.6510   20.0480 N.3   379  TYR379     -0.1241
    116  CA        36.8680    5.1340   20.1170 C.3   379  TYR379      0.1605
    117  C         36.7030    6.0610   21.3110 C.2   379  TYR379      0.2264
    118  O         36.7190    5.6250   22.4500 O.2   379  TYR379     -0.2867
    119  CB        35.8880    3.9750   20.2020 C.3   379  TYR379      0.0534
    120  CG        35.9450    3.0870   18.9960 C.ar  379  TYR379     -0.0201
    121  CD1       36.9320    2.1170   18.8910 C.ar  379  TYR379     -0.0009
    122  CD2       35.0630    3.2420   17.9300 C.ar  379  TYR379     -0.0009
    123  CE1       37.0240    1.2900   17.7860 C.ar  379  TYR379      0.0417
    124  CE2       35.1560    2.4360   16.8110 C.ar  379  TYR379      0.0417
    125  CZ        36.1500    1.4550   16.7410 C.ar  379  TYR379      0.1957
    126  OH        36.2860    0.6210   15.6480 O.3   379  TYR379     -0.2866
    127  N         40.9510   -0.5340   20.7160 N.3   394  VAL394     -0.1231
    128  CA        41.0240   -1.8720   20.1400 C.3   394  VAL394      0.1692
    129  C         42.2850   -1.9130   19.2980 C.2   394  VAL394      0.2591
    130  O         42.4000   -1.1820   18.3060 O.2   394  VAL394     -0.2718
    131  CB        39.7970   -2.2160   19.2510 C.3   394  VAL394      0.0266
    132  CG1       39.8630   -3.6700   18.7700 C.3   394  VAL394      0.0020
    133  CG2       38.4880   -1.9850   20.0030 C.3   394  VAL394      0.0020
    134  N         43.2150   -2.7680   19.7210 N.am  395  GLU395     -0.1979
    135  CA        44.5010   -2.9520   19.0900 C.3   395  GLU395      0.1602
    136  C         44.6540   -4.3560   18.5470 C.2   395  GLU395      0.2287
    137  O         44.8500   -5.3180   19.3060 O.2   395  GLU395     -0.2864
    138  CB        45.6020   -2.6930   20.0960 C.3   395  GLU395      0.0415
    139  CG        45.6110   -1.2920   20.6000 C.3   395  GLU395      0.1163
    140  CD        46.8410   -0.9750   21.4330 C.2   395  GLU395      0.3649
    141  OE1       47.5980   -1.9160   21.8230 O.co2 395  GLU395     -0.2457
    142  OE2       47.0490    0.2340   21.6860 O.co2 395  GLU395     -0.2457
@<TRIPOS>BOND
     1     1     2    1
     2     3     4    2
     3     3     2    1
     4    60    59    2
     5     2     5    1
     6    69    68    2
     7    68    67    1
     8    59    66   am
     9    59    58    1
    10    67    66    1
    11    67    70    1
    12    72    71   ar
    13     5     6    1
    14    61    58    1
    15    61    62    1
    16    58    57    1
    17     6     7    1
    18    71    70    1
    19    71    73   ar
    20     7     8    1
    21    62    63    1
    22    10     9    1
    23     8     9    2
    24     9    11    1
    25    52    51    2
    26    57    51   am
    27    74    75    1
    28    51    50    1
    29    63    65   ar
    30    63    64   ar
    31    80    79    2
    32    55    54   ar
    33    75    76    1
    34    75    78    1
    35    38    37    1
    36    15    14    2
    37    79    81   am
    38    79    78    1
    39    50    49    1
    40    50    53    1
    41    30    29    2
    42    27    24    1
    43    27    28    1
    44    76    77    2
    45    31    29   am
    46    22    20    1
    47    54    53    1
    48    54    56   ar
    49    29    28    1
    50    37    36    1
    51    37    39    1
    52    24    23    1
    53    24    25    1
    54    14    23   am
    55    14    13    1
    56    36    33    1
    57    32    25   am
    58    32    33    1
    59   112   110   ar
    60   112   113   ar
    61    12    13    1
    62    20    21    1
    63    20    19    2
    64   110   108   ar
    65    25    26    2
    66   114   113    1
    67    33    34    1
    68    13    16    1
    69    35    34    2
    70   113   111   ar
    71    19    18    1
    72    16    17    1
    73   108   107    1
    74   108   109   ar
    75   106   105    2
    76   107   104    1
    77    90    88   ar
    78    90    92   ar
    79    17    18    1
    80   111   109   ar
    81    93    92    1
    82   101   102    1
    83   101   100    1
    84    82    83    1
    85   105   104    1
    86    88    87   ar
    87   126   125    1
    88    92    91   ar
    89   104   103    1
    90    99   100    1
    91    99    98    1
    92    96    97    2
    93    96    95    1
    94   125   124   ar
    95   125   123   ar
    96    87    86    1
    97    87    89   ar
    98    83    86    1
    99    83    84    1
   100   124   122   ar
   101    85    84    2
   102    91    89   ar
   103    95    98    1
   104    95    94    1
   105    48    46   am
   106   123   121   ar
   107   122   120   ar
   108   130   129    2
   109   136   135    1
   110   136   137    2
   111   132   131    1
   112    46    45    1
   113    46    47    2
   114   121   120   ar
   115   120   119    1
   116   135   134    1
   117   135   138    1
   118   131   133    1
   119   131   128    1
   120    45    44    1
   121   129   134   am
   122   129   128    1
   123    44    41    1
   124    40    41    1
   125    41    42    1
   126   115   116    1
   127   138   139    1
   128   116   119    1
   129   116   117    1
   130   128   127    1
   131   139   140    1
   132   117   118    2
   133    42    43    2
   134   140   142   ar
   135   140   141   ar
