@<TRIPOS>MOLECULE
tmp/3hrqB00.pdb
 207 198 0 0 0
SMALL
GASTEIGER

@<TRIPOS>ATOM
      1  N       -204.6310 -210.9420 -150.8150 N.3    41  HIS41      -0.1241
      2  CA      -205.5270 -210.0470 -150.0860 C.3    41  HIS41       0.1621
      3  C       -205.6150 -210.4680 -148.6260 C.2    41  HIS41       0.2264
      4  O       -205.3520 -211.6190 -148.2800 O.2    41  HIS41      -0.2867
      5  CB      -206.9480 -210.0870 -150.6610 C.3    41  HIS41       0.0745
      6  CG      -207.0630 -209.6150 -152.0770 C.ar   41  HIS41       0.0817
      7  ND1     -208.1720 -209.8500 -152.8610 N.ar   41  HIS41      -0.2268
      8  CD2     -206.1810 -208.9520 -152.8640 C.ar   41  HIS41       0.1154
      9  CE1     -207.9690 -209.3540 -154.0690 C.ar   41  HIS41       0.1986
     10  NE2     -206.7680 -208.8050 -154.0970 N.ar   41  HIS41      -0.2212
     11  N       -208.4310 -210.0940 -145.5240 N.3    43  VAL43      -0.1245
     12  CA      -209.7620 -209.6600 -145.1130 C.3    43  VAL43       0.1561
     13  C       -209.9850 -210.0690 -143.6620 C.2    43  VAL43       0.2260
     14  O       -209.9560 -211.2560 -143.3300 O.2    43  VAL43      -0.2867
     15  CB      -210.8620 -210.2920 -146.0030 C.3    43  VAL43       0.0252
     16  CG1     -212.2450 -209.8840 -145.5080 C.3    43  VAL43       0.0019
     17  CG2     -210.6750 -209.8490 -147.4440 C.3    43  VAL43       0.0019
     18  N       -205.8320 -214.3960 -148.0990 N.3    48  LEU48      -0.1245
     19  CA      -206.6000 -215.0620 -149.1420 C.3    48  LEU48       0.1561
     20  C       -205.8400 -215.1710 -150.4510 C.2    48  LEU48       0.2260
     21  O       -205.1350 -214.2490 -150.8460 O.2    48  LEU48      -0.2867
     22  CB      -207.9020 -214.3040 -149.3960 C.3    48  LEU48       0.0270
     23  CG      -208.8890 -214.2120 -148.2310 C.3    48  LEU48       0.0019
     24  CD1     -209.9910 -213.2280 -148.5750 C.3    48  LEU48       0.0001
     25  CD2     -209.4570 -215.5840 -147.9360 C.3    48  LEU48       0.0001
     26  N       -207.7670 -190.8570 -157.6660 N.3   172  TYR172     -0.1227
     27  CA      -207.1310 -191.3850 -156.4690 C.3   172  TYR172      0.1736
     28  C       -205.6650 -191.7100 -156.6640 C.2   172  TYR172      0.2595
     29  O       -205.2960 -192.3820 -157.6280 O.2   172  TYR172     -0.2718
     30  CB      -207.8390 -192.6660 -156.0210 C.3   172  TYR172      0.0548
     31  CG      -209.2010 -192.4380 -155.4200 C.ar  172  TYR172     -0.0200
     32  CD1     -209.3390 -192.0470 -154.0900 C.ar  172  TYR172     -0.0009
     33  CD2     -210.3550 -192.5750 -156.1910 C.ar  172  TYR172     -0.0009
     34  CE1     -210.5900 -191.7960 -153.5410 C.ar  172  TYR172      0.0417
     35  CE2     -211.6140 -192.3250 -155.6490 C.ar  172  TYR172      0.0417
     36  CZ      -211.7220 -191.9360 -154.3230 C.ar  172  TYR172      0.1957
     37  OH      -212.9650 -191.6900 -153.7790 O.3   172  TYR172     -0.2866
     38  N       -204.8300 -191.2190 -155.7550 N.am  173  ASN173     -0.1960
     39  CA      -203.4110 -191.5490 -155.7900 C.3   173  ASN173      0.1819
     40  C       -203.3660 -192.9390 -155.1580 C.2   173  ASN173      0.2621
     41  O       -204.2340 -193.2850 -154.3580 O.2   173  ASN173     -0.2715
     42  CB      -202.5850 -190.5860 -154.9290 C.3   173  ASN173      0.1195
     43  CG      -202.3720 -189.2420 -155.5900 C.2   173  ASN173      0.2630
     44  OD1     -201.9150 -189.1650 -156.7280 O.2   173  ASN173     -0.2716
     45  ND2     -202.6930 -188.1710 -154.8740 N.am  173  ASN173     -0.0877
     46  N       -202.3520 -193.7190 -155.5090 N.am  174  ARG174     -0.1977
     47  CA      -202.1710 -195.0800 -155.0050 C.3   174  ARG174      0.1597
     48  C       -202.4910 -195.3300 -153.5300 C.2   174  ARG174      0.2287
     49  O       -203.4030 -196.0920 -153.2000 O.2   174  ARG174     -0.2864
     50  CB      -200.7300 -195.5110 -155.3050 C.3   174  ARG174      0.0334
     51  CG      -200.2940 -196.8660 -154.7710 C.3   174  ARG174      0.0492
     52  CD      -198.9440 -197.2170 -155.4090 C.3   174  ARG174      0.2205
     53  NE      -198.3090 -198.3900 -154.8210 N.pl3 174  ARG174     -0.0865
     54  CZ      -197.6040 -198.3770 -153.6950 C.cat 174  ARG174      0.5346
     55  NH1     -197.4350 -197.2450 -153.0230 N.pl3 174  ARG174      0.1354
     56  NH2     -197.0710 -199.5010 -153.2380 N.pl3 174  ARG174      0.1354
     57  N       -206.0810 -194.5310 -152.4670 N.3   177  GLY177     -0.1210
     58  CA      -207.0460 -195.5050 -152.9540 C.3   177  GLY177      0.1956
     59  C       -207.0570 -196.7500 -152.0770 C.2   177  GLY177      0.2611
     60  O       -208.1170 -197.2690 -151.7280 O.2   177  GLY177     -0.2717
     61  N       -205.8780 -197.2470 -151.7180 N.am  178  TYR178     -0.1976
     62  CA      -205.8170 -198.4250 -150.8660 C.3   178  TYR178      0.1639
     63  C       -206.3420 -198.0740 -149.4760 C.2   178  TYR178      0.2290
     64  O       -206.9430 -198.9070 -148.8010 O.2   178  TYR178     -0.2864
     65  CB      -204.3840 -198.9710 -150.8050 C.3   178  TYR178      0.0560
     66  CG      -204.0150 -199.7500 -152.0570 C.ar  178  TYR178     -0.0198
     67  CD1     -204.6090 -200.9900 -152.3280 C.ar  178  TYR178     -0.0009
     68  CD2     -203.1460 -199.2160 -153.0060 C.ar  178  TYR178     -0.0009
     69  CE1     -204.3540 -201.6690 -153.5210 C.ar  178  TYR178      0.0417
     70  CE2     -202.8830 -199.8820 -154.2020 C.ar  178  TYR178      0.0417
     71  CZ      -203.4960 -201.1080 -154.4560 C.ar  178  TYR178      0.1957
     72  OH      -203.2860 -201.7430 -155.6660 O.3   178  TYR178     -0.2866
     73  N       -210.0760 -198.4170 -149.2870 N.3   181  MET181     -0.1245
     74  CA      -210.5490 -199.7990 -149.2270 C.3   181  MET181      0.1570
     75  C       -210.0950 -200.5680 -147.9840 C.2   181  MET181      0.2261
     76  O       -210.5700 -201.6770 -147.7430 O.2   181  MET181     -0.2867
     77  CB      -210.0530 -200.5650 -150.4650 C.3   181  MET181      0.0387
     78  CG      -210.5560 -200.0360 -151.8030 C.3   181  MET181      0.0595
     79  SD      -212.3220 -200.3460 -152.0510 S.3   181  MET181     -0.1393
     80  CE      -213.0190 -198.7100 -151.6390 C.3   181  MET181      0.0692
     81  N       -212.2140 -202.7700 -145.6980 N.3   184  MET184     -0.1230
     82  CA      -212.7150 -203.9820 -146.3430 C.3   184  MET184      0.1702
     83  C       -211.5890 -204.9900 -146.5560 C.2   184  MET184      0.2592
     84  O       -211.7070 -206.1580 -146.1890 O.2   184  MET184     -0.2718
     85  CB      -213.3490 -203.6500 -147.6970 C.3   184  MET184      0.0401
     86  CG      -213.6930 -204.8820 -148.5420 C.3   184  MET184      0.0596
     87  SD      -214.2800 -204.4380 -150.2010 S.3   184  MET184     -0.1393
     88  CE      -212.7480 -203.8210 -150.9420 C.3   184  MET184      0.0692
     89  N       -210.4920 -204.5370 -147.1510 N.am  185  ALA185     -0.1980
     90  CA      -209.3750 -205.4300 -147.4040 C.3   185  ALA185      0.1597
     91  C       -208.0460 -204.7090 -147.4720 C.2   185  ALA185      0.2287
     92  O       -207.9650 -203.5530 -147.8810 O.2   185  ALA185     -0.2864
     93  CB      -209.6090 -206.1970 -148.7080 C.3   185  ALA185      0.0319
     94  N       -203.8770 -205.1980 -148.7200 N.3   187  PHE187     -0.1241
     95  CA      -203.1850 -205.9270 -149.7680 C.3   187  PHE187      0.1605
     96  C       -201.7250 -206.2230 -149.5090 C.2   187  PHE187      0.2264
     97  O       -201.0260 -205.4590 -148.8460 O.2   187  PHE187     -0.2867
     98  CB      -203.2780 -205.1460 -151.0800 C.3   187  PHE187      0.0534
     99  CG      -204.6710 -205.0160 -151.6150 C.ar  187  PHE187     -0.0203
    100  CD1     -205.0750 -205.7630 -152.7180 C.ar  187  PHE187     -0.0042
    101  CD2     -205.5830 -204.1510 -151.0180 C.ar  187  PHE187     -0.0042
    102  CE1     -206.3670 -205.6500 -153.2200 C.ar  187  PHE187     -0.0003
    103  CE2     -206.8800 -204.0310 -151.5130 C.ar  187  PHE187     -0.0003
    104  CZ      -207.2710 -204.7820 -152.6170 C.ar  187  PHE187     -0.0000
    105  N       -201.6140 -200.3260 -158.2810 N.3   194  LEU194     -0.1245
    106  CA      -202.3870 -199.2670 -158.9260 C.3   194  LEU194      0.1561
    107  C       -201.7980 -197.9030 -158.5550 C.2   194  LEU194      0.2260
    108  O       -201.8780 -197.4630 -157.4090 O.2   194  LEU194     -0.2867
    109  CB      -203.8670 -199.3560 -158.5250 C.3   194  LEU194      0.0270
    110  CG      -204.6950 -200.3240 -159.3850 C.3   194  LEU194      0.0019
    111  CD1     -204.1210 -201.7340 -159.3000 C.3   194  LEU194      0.0001
    112  CD2     -206.1520 -200.3100 -158.9220 C.3   194  LEU194      0.0001
    113  N       -202.6180 -194.8070 -159.9760 N.3   196  TYR196     -0.1227
    114  CA      -203.6680 -193.7940 -159.8810 C.3   196  TYR196      0.1736
    115  C       -204.9090 -194.3560 -160.5540 C.2   196  TYR196      0.2595
    116  O       -204.8180 -195.2860 -161.3490 O.2   196  TYR196     -0.2718
    117  CB      -203.2630 -192.4940 -160.5900 C.3   196  TYR196      0.0548
    118  CG      -203.1060 -192.6380 -162.0890 C.ar  196  TYR196     -0.0200
    119  CD1     -201.8760 -192.9740 -162.6520 C.ar  196  TYR196     -0.0009
    120  CD2     -204.2040 -192.4900 -162.9410 C.ar  196  TYR196     -0.0009
    121  CE1     -201.7410 -193.1620 -164.0260 C.ar  196  TYR196      0.0417
    122  CE2     -204.0830 -192.6810 -164.3160 C.ar  196  TYR196      0.0417
    123  CZ      -202.8490 -193.0180 -164.8500 C.ar  196  TYR196      0.1957
    124  OH      -202.7230 -193.2310 -166.2060 O.3   196  TYR196     -0.2866
    125  N       -206.0660 -193.7940 -160.2300 N.am  197  LEU197     -0.1980
    126  CA      -207.3110 -194.2360 -160.8410 C.3   197  LEU197      0.1596
    127  C       -208.3150 -193.0900 -160.8750 C.2   197  LEU197      0.2287
    128  O       -208.5700 -192.4520 -159.8550 O.2   197  LEU197     -0.2864
    129  CB      -207.8870 -195.4230 -160.0590 C.3   197  LEU197      0.0297
    130  CG      -209.1010 -196.1500 -160.6470 C.3   197  LEU197      0.0022
    131  CD1     -209.1330 -197.5750 -160.1120 C.3   197  LEU197      0.0001
    132  CD2     -210.3940 -195.4140 -160.2880 C.3   197  LEU197      0.0001
    133  N       -208.2960 -205.4420 -159.9480 N.3   233  GLN233     -0.1245
    134  CA      -208.4860 -204.4800 -158.8670 C.3   233  GLN233      0.1566
    135  C       -209.1160 -203.1860 -159.3610 C.2   233  GLN233      0.2260
    136  O       -209.8290 -202.5130 -158.6150 O.2   233  GLN233     -0.2867
    137  CB      -207.1520 -204.1390 -158.2110 C.3   233  GLN233      0.0367
    138  CG      -206.6640 -205.1340 -157.1920 C.3   233  GLN233      0.0905
    139  CD      -205.3500 -204.6920 -156.6010 C.2   233  GLN233      0.2608
    140  OE1     -205.1740 -203.5130 -156.2780 O.2   233  GLN233     -0.2717
    141  NE2     -204.4160 -205.6260 -156.4550 N.am  233  GLN233     -0.0878
    142  N       -212.7210 -203.8620 -159.2420 N.3   236  GLY236     -0.1210
    143  CA      -213.1720 -204.0050 -157.8650 C.3   236  GLY236      0.1956
    144  C       -213.2530 -202.6520 -157.1760 C.2   236  GLY236      0.2611
    145  O       -214.1850 -202.3820 -156.4160 O.2   236  GLY236     -0.2717
    146  N       -212.2720 -201.7920 -157.4390 N.am  237  PHE237     -0.1976
    147  CA      -212.2640 -200.4590 -156.8420 C.3   237  PHE237      0.1639
    148  C       -213.4010 -199.6250 -157.4320 C.2   237  PHE237      0.2290
    149  O       -214.0960 -198.9090 -156.7120 O.2   237  PHE237     -0.2864
    150  CB      -210.9310 -199.7500 -157.1120 C.3   237  PHE237      0.0560
    151  CG      -210.8120 -198.4110 -156.4330 C.ar  237  PHE237     -0.0200
    152  CD1     -210.3960 -198.3220 -155.1060 C.ar  237  PHE237     -0.0042
    153  CD2     -211.1310 -197.2420 -157.1150 C.ar  237  PHE237     -0.0042
    154  CE1     -210.2980 -197.0830 -154.4710 C.ar  237  PHE237     -0.0003
    155  CE2     -211.0370 -195.9930 -156.4900 C.ar  237  PHE237     -0.0003
    156  CZ      -210.6180 -195.9170 -155.1630 C.ar  237  PHE237     -0.0000
    157  N       -216.5550 -200.7730 -155.4170 N.3   240  ASN240     -0.1240
    158  CA      -216.5460 -200.4630 -153.9880 C.3   240  ASN240      0.1653
    159  C       -216.2570 -199.0210 -153.5910 C.2   240  ASN240      0.2266
    160  O       -216.5620 -198.6170 -152.4610 O.2   240  ASN240     -0.2867
    161  CB      -215.5740 -201.3920 -153.2710 C.3   240  ASN240      0.1155
    162  CG      -216.0150 -202.8420 -153.3260 C.2   240  ASN240      0.2627
    163  OD1     -215.2830 -203.7100 -153.8090 O.2   240  ASN240     -0.2716
    164  ND2     -217.2150 -203.1130 -152.8300 N.am  240  ASN240     -0.0877
    165  N       -218.4090 -205.6270 -152.9930 N.3   252  TYR252     -0.1227
    166  CA      -218.3440 -206.3960 -154.2260 C.3   252  TYR252      0.1736
    167  C       -217.0590 -207.1990 -154.2020 C.2   252  TYR252      0.2595
    168  O       -215.9630 -206.6400 -154.0820 O.2   252  TYR252     -0.2718
    169  CB      -218.3690 -205.4640 -155.4350 C.3   252  TYR252      0.0548
    170  CG      -219.7500 -204.9280 -155.7280 C.ar  252  TYR252     -0.0200
    171  CD1     -220.6810 -205.6990 -156.4260 C.ar  252  TYR252     -0.0009
    172  CD2     -220.1390 -203.6670 -155.2770 C.ar  252  TYR252     -0.0009
    173  CE1     -221.9710 -205.2200 -156.6720 C.ar  252  TYR252      0.0417
    174  CE2     -221.4240 -203.1830 -155.5120 C.ar  252  TYR252      0.0417
    175  CZ      -222.3330 -203.9650 -156.2110 C.ar  252  TYR252      0.1957
    176  OH      -223.6000 -203.4840 -156.4530 O.3   252  TYR252     -0.2866
    177  N       -217.2020 -208.5140 -154.3020 N.am  253  VAL253     -0.1966
    178  CA      -216.0590 -209.4140 -154.2770 C.3   253  VAL253      0.1727
    179  C       -215.8780 -210.1480 -155.6000 C.2   253  VAL253      0.2616
    180  O       -216.8030 -210.2350 -156.4120 O.2   253  VAL253     -0.2715
    181  CB      -216.2150 -210.4600 -153.1510 C.3   253  VAL253      0.0290
    182  CG1     -216.3280 -209.7590 -151.8080 C.3   253  VAL253      0.0023
    183  CG2     -217.4550 -211.3210 -153.4070 C.3   253  VAL253      0.0023
    184  N       -214.6700 -210.6630 -155.8110 N.am  254  ASN254     -0.1972
    185  CA      -214.3450 -211.4140 -157.0180 C.3   254  ASN254      0.1688
    186  C       -215.2750 -212.6130 -157.0930 C.2   254  ASN254      0.2292
    187  O       -215.6620 -213.1800 -156.0680 O.2   254  ASN254     -0.2864
    188  CB      -212.8920 -211.8990 -156.9660 C.3   254  ASN254      0.1181
    189  CG      -211.8940 -210.7600 -157.0400 C.2   254  ASN254      0.2629
    190  OD1     -210.7680 -210.8690 -156.5440 O.2   254  ASN254     -0.2716
    191  ND2     -212.2940 -209.6620 -157.6720 N.am  254  ASN254     -0.0877
    192  N       -218.3070 -209.6040 -160.5440 N.3   305  LEU305     -0.1245
    193  CA      -218.1610 -209.3110 -159.1230 C.3   305  LEU305      0.1561
    194  C       -219.5210 -209.5610 -158.4710 C.2   305  LEU305      0.2260
    195  O       -220.5620 -209.3620 -159.0990 O.2   305  LEU305     -0.2867
    196  CB      -217.7310 -207.8570 -158.9010 C.3   305  LEU305      0.0270
    197  CG      -216.3050 -207.4800 -159.3220 C.3   305  LEU305      0.0019
    198  CD1     -216.1980 -207.4720 -160.8280 C.3   305  LEU305      0.0001
    199  CD2     -215.9620 -206.1010 -158.7790 C.3   305  LEU305      0.0001
    200  N       -219.5510 -211.9590 -144.9670 N.3   313  LEU313     -0.1245
    201  CA      -218.2360 -212.2450 -145.5240 C.3   313  LEU313      0.1561
    202  C       -217.2920 -212.6100 -144.3840 C.2   313  LEU313      0.2260
    203  O       -216.6140 -213.6350 -144.4270 O.2   313  LEU313     -0.2867
    204  CB      -217.6980 -211.0180 -146.2670 C.3   313  LEU313      0.0270
    205  CG      -216.2760 -211.0960 -146.8280 C.3   313  LEU313      0.0019
    206  CD1     -216.1870 -212.1970 -147.8750 C.3   313  LEU313      0.0001
    207  CD2     -215.9000 -209.7560 -147.4370 C.3   313  LEU313      0.0001
@<TRIPOS>BOND
     1   124   123    1
     2   123   122   ar
     3   123   121   ar
     4   122   120   ar
     5   121   119   ar
     6   120   118   ar
     7   119   118   ar
     8   118   117    1
     9   116   115    2
    10   127   126    1
    11   127   128    2
    12   126   125    1
    13   126   129    1
    14   198   197    1
    15   130   132    1
    16   130   131    1
    17   130   129    1
    18   117   114    1
    19   115   125   am
    20   115   114    1
    21   192   193    1
    22   113   114    1
    23   133   134    1
    24   110   111    1
    25   110   112    1
    26   110   109    1
    27   135   134    1
    28   135   136    2
    29   197   196    1
    30   197   199    1
    31   142   143    1
    32   193   196    1
    33   193   194    1
    34   195   194    2
    35   106   107    1
    36   106   109    1
    37   106   105    1
    38   134   137    1
    39   107   108    2
    40   137   138    1
    41   143   144    1
    42   191   189   am
    43    26    27    1
    44    29    28    2
    45   146   144   am
    46   146   147    1
    47   148   147    1
    48   148   149    2
    49   138   139    1
    50   144   145    2
    51   153   155   ar
    52   153   151   ar
    53   150   147    1
    54   150   151    1
    55   186   185    1
    56   186   187    2
    57   189   188    1
    58   189   190    2
    59   185   188    1
    60   185   184    1
    61    44    43    2
    62   173   171   ar
    63   173   175   ar
    64    28    27    1
    65    28    38   am
    66   139   141   am
    67   139   140    2
    68   155   156   ar
    69    27    30    1
    70   176   175    1
    71   151   152   ar
    72   171   170   ar
    73   180   179    2
    74   175   174   ar
    75    33    35   ar
    76    33    31   ar
    77    30    31    1
    78   184   179   am
    79    39    38    1
    80    39    40    1
    81    39    42    1
    82   170   169    1
    83   170   172   ar
    84    72    71    1
    85    35    36   ar
    86   179   178    1
    87    43    42    1
    88    43    45   am
    89   174   172   ar
    90    46    40   am
    91    46    47    1
    92   169   166    1
    93    31    32   ar
    94   157   158    1
    95    52    53    1
    96    52    51    1
    97    50    47    1
    98    50    51    1
    99   156   154   ar
   100    40    41    2
   101   152   154   ar
   102    47    48    1
   103    53    54    2
   104    71    70   ar
   105    71    69   ar
   106    36    37    1
   107    36    34   ar
   108   177   178    1
   109   177   167   am
   110   178   181    1
   111   166   167    1
   112   166   165    1
   113    70    68   ar
   114   167   168    2
   115    10     9   ar
   116    10     8   ar
   117    32    34   ar
   118     9     7   ar
   119   158   159    1
   120   158   161    1
   121   163   162    2
   122    54    56    1
   123    54    55    1
   124   159   160    2
   125    48    49    2
   126    69    67   ar
   127   183   181    1
   128   162   161    1
   129   162   164   am
   130   102   100   ar
   131   102   104   ar
   132   181   182    1
   133    68    66   ar
   134    58    57    1
   135    58    59    1
   136     8     6   ar
   137     7     6   ar
   138   100    99   ar
   139   104   103   ar
   140    67    66   ar
   141     6     5    1
   142    59    60    2
   143    59    61   am
   144    66    65    1
   145    79    78    1
   146    79    80    1
   147    78    77    1
   148    61    62    1
   149    99    98    1
   150    99   101   ar
   151   103   101   ar
   152    98    95    1
   153    88    87    1
   154    62    65    1
   155    62    63    1
   156    21    20    2
   157     1     2    1
   158     5     2    1
   159    77    74    1
   160    20    19    1
   161    87    86    1
   162     2     3    1
   163    95    96    1
   164    95    94    1
   165    96    97    2
   166    63    64    2
   167    22    19    1
   168    22    23    1
   169    73    74    1
   170    74    75    1
   171    19    18    1
   172    93    90    1
   173     3     4    2
   174    24    23    1
   175    86    85    1
   176    23    25    1
   177    75    76    2
   178    92    91    2
   179   206   205    1
   180    85    82    1
   181    91    90    1
   182    17    15    1
   183   207   205    1
   184    90    89    1
   185    89    83   am
   186   205   204    1
   187    83    82    1
   188    83    84    2
   189    82    81    1
   190   204   201    1
   191    15    16    1
   192    15    12    1
   193    11    12    1
   194   201   200    1
   195   201   202    1
   196    12    13    1
   197   203   202    2
   198    13    14    2
