@<TRIPOS>MOLECULE
tmp/3hrrB00.pdb
 173 166 0 0 0
SMALL
GASTEIGER

@<TRIPOS>ATOM
      1  N        -17.5570  -28.4300   13.6310 N.3    41  HIS41      -0.1241
      2  CA       -16.6260  -27.4890   12.9860 C.3    41  HIS41       0.1621
      3  C        -16.5360  -27.9030   11.5200 C.2    41  HIS41       0.2264
      4  O        -16.7950  -29.0640   11.1670 O.2    41  HIS41      -0.2867
      5  CB       -15.2110  -27.6170   13.5760 C.3    41  HIS41       0.0745
      6  CG       -15.0770  -27.2770   15.0390 C.ar   41  HIS41       0.0817
      7  ND1      -13.9810  -27.6040   15.8230 N.ar   41  HIS41      -0.2268
      8  CD2      -15.9640  -26.6870   15.8730 C.ar   41  HIS41       0.1154
      9  CE1      -14.1840  -27.1960   17.0680 C.ar   41  HIS41       0.1986
     10  NE2      -15.3740  -26.6240   17.1220 N.ar   41  HIS41      -0.2212
     11  N        -13.6740  -27.5910    8.3750 N.3    43  VAL43      -0.1245
     12  CA       -12.3500  -27.1250    7.9430 C.3    43  VAL43       0.1561
     13  C        -12.1330  -27.5860    6.4990 C.2    43  VAL43       0.2260
     14  O        -12.2050  -28.8040    6.2080 O.2    43  VAL43      -0.2867
     15  CB       -11.2330  -27.6740    8.8760 C.3    43  VAL43       0.0252
     16  CG1       -9.8110  -27.3250    8.3260 C.3    43  VAL43       0.0019
     17  CG2      -11.4060  -27.1590   10.3130 C.3    43  VAL43       0.0019
     18  N        -16.2990  -31.9850   11.0980 N.3    48  LEU48      -0.1231
     19  CA       -15.5040  -32.5940   12.1480 C.3    48  LEU48       0.1693
     20  C        -16.3080  -32.6710   13.4300 C.2    48  LEU48       0.2592
     21  O        -16.9290  -31.7010   13.8070 O.2    48  LEU48      -0.2718
     22  CB       -14.2450  -31.7470   12.4040 C.3    48  LEU48       0.0284
     23  CG       -13.1950  -31.7370   11.2720 C.3    48  LEU48       0.0019
     24  CD1      -12.2380  -30.5810   11.4810 C.3    48  LEU48       0.0001
     25  CD2      -12.4370  -33.0290   11.2470 C.3    48  LEU48       0.0001
     26  N        -16.3070  -33.8370   14.0660 N.am   49  CYS49      -0.1956
     27  CA       -16.7810  -34.0070   15.4370 C.3    49  CYS49       0.1843
     28  C        -15.8010  -33.3520   16.4240 C.2    49  CYS49       0.2626
     29  O        -14.5880  -33.5570   16.3090 O.2    49  CYS49      -0.2714
     30  CB       -16.8680  -35.4900   15.7280 C.3    49  CYS49       0.0997
     31  SG       -17.9500  -35.8120   17.0880 S.3    49  CYS49      -0.0797
     32  N        -16.3260  -32.6040   17.3930 N.am   50  THR50      -0.1937
     33  CA       -15.5050  -31.9030   18.3760 C.3    50  THR50       0.2013
     34  C        -15.1890  -32.7910   19.6280 C.2    50  THR50       0.2484
     35  O        -15.9620  -33.6960   19.9620 O.2    50  THR50      -0.2729
     36  CB       -16.2020  -30.5900   18.7830 C.3    50  THR50       0.1807
     37  OG1      -17.4890  -30.8870   19.3430 O.3    50  THR50      -0.2208
     38  CG2      -16.3800  -29.6930   17.5530 C.3    50  THR50       0.0379
     39  N        -14.0770  -32.5290   20.3290 N.am   51  PRO51      -0.2726
     40  CA       -13.8190  -33.2620   21.5660 C.3    51  PRO51       0.1402
     41  C        -14.9820  -33.2540   22.5950 C.2    51  PRO51       0.2269
     42  O        -15.1560  -34.2170   23.3240 O.2    51  PRO51      -0.2865
     43  CB       -12.5990  -32.5320   22.1240 C.3    51  PRO51       0.0296
     44  CG       -11.8860  -32.0130   20.8900 C.3    51  PRO51       0.0237
     45  CD       -12.9900  -31.5770   19.9970 C.3    51  PRO51       0.0939
     46  N         -7.1660  -36.4590   22.1140 N.3    80  VAL80      -0.1231
     47  CA        -7.8370  -36.5590   20.8200 C.3    80  VAL80       0.1692
     48  C         -6.7350  -36.8830   19.8180 C.2    80  VAL80       0.2592
     49  O         -5.8680  -36.0430   19.5870 O.2    80  VAL80      -0.2718
     50  CB        -8.5750  -35.2310   20.4520 C.3    80  VAL80       0.0266
     51  CG1       -9.3080  -35.3760   19.1130 C.3    80  VAL80       0.0020
     52  CG2       -9.5620  -34.8410   21.5900 C.3    80  VAL80       0.0020
     53  N         -6.7580  -38.1000   19.2720 N.am   81  ASP81      -0.1960
     54  CA        -5.6820  -38.5280   18.3620 C.3    81  ASP81       0.1840
     55  C         -5.9850  -38.3400   16.8710 C.2    81  ASP81       0.2622
     56  O         -5.0940  -37.9140   16.1180 O.2    81  ASP81      -0.2715
     57  CB        -5.2460  -39.9770   18.5920 C.3    81  ASP81       0.1450
     58  CG        -3.8460  -40.2550   18.0180 C.2    81  ASP81       0.3671
     59  OD1       -2.9490  -39.3820   18.1930 O.co2  81  ASP81      -0.2456
     60  OD2       -3.6400  -41.3160   17.3780 O.co2  81  ASP81      -0.2456
     61  N         -7.2010  -38.6870   16.4460 N.am   82  LYS82      -0.1963
     62  CA        -7.5420  -38.6670   15.0230 C.3    82  LYS82       0.1728
     63  C         -8.9070  -38.0430   14.8170 C.2    82  LYS82       0.2616
     64  O         -9.8440  -38.3310   15.5690 O.2    82  LYS82      -0.2715
     65  CB        -7.5400  -40.0880   14.4240 C.3    82  LYS82       0.0311
     66  CG        -6.1700  -40.7790   14.5460 C.3    82  LYS82       0.0038
     67  CD        -6.0630  -42.0160   13.7140 C.3    82  LYS82       0.0206
     68  CE        -4.6580  -42.6170   13.8400 C.3    82  LYS82       0.1093
     69  NZ        -4.5580  -43.4740   15.0530 N.3    82  LYS82      -0.1314
     70  N         -8.9840  -37.1860   13.8000 N.am   83  ALA83      -0.1977
     71  CA       -10.2300  -36.5570   13.3480 C.3    83  ALA83       0.1597
     72  C        -11.3270  -37.5740   13.1310 C.2    83  ALA83       0.2287
     73  O        -11.0950  -38.6930   12.6470 O.2    83  ALA83      -0.2864
     74  CB        -9.9880  -35.7790   12.0670 C.3    83  ALA83       0.0319
     75  N         -9.7430  -20.3250    8.7010 N.3   181  MET181     -0.1230
     76  CA        -9.3110  -21.5590    9.3630 C.3   181  MET181      0.1702
     77  C        -10.4300  -22.5920    9.5390 C.2   181  MET181      0.2592
     78  O        -10.2730  -23.7720    9.1760 O.2   181  MET181     -0.2718
     79  CB        -8.6960  -21.2160   10.7150 C.3   181  MET181      0.0401
     80  CG        -8.5870  -22.3860   11.7020 C.3   181  MET181      0.0596
     81  SD        -8.0380  -21.9130   13.3660 S.3   181  MET181     -0.1393
     82  CE        -9.5790  -21.3230   14.1160 C.3   181  MET181      0.0692
     83  N        -11.5380  -22.1690   10.1390 N.am  182  ALA182     -0.1980
     84  CA       -12.6730  -23.0440   10.3970 C.3   182  ALA182      0.1597
     85  C        -13.9680  -22.2460   10.3560 C.2   182  ALA182      0.2287
     86  O        -14.0260  -21.0740   10.7640 O.2   182  ALA182     -0.2864
     87  CB       -12.5330  -23.7600   11.7910 C.3   182  ALA182      0.0319
     88  N        -18.1270  -22.7510   11.6730 N.3   184  PHE184     -0.1241
     89  CA       -18.7760  -23.4350   12.7840 C.3   184  PHE184      0.1605
     90  C        -20.2390  -23.7410   12.4510 C.2   184  PHE184      0.2264
     91  O        -20.9300  -22.8900   11.8750 O.2   184  PHE184     -0.2867
     92  CB       -18.6560  -22.5490   14.0450 C.3   184  PHE184      0.0534
     93  CG       -17.2640  -22.4450   14.5590 C.ar  184  PHE184     -0.0203
     94  CD1      -16.8380  -23.2450   15.6250 C.ar  184  PHE184     -0.0042
     95  CD2      -16.3500  -21.5830   13.9680 C.ar  184  PHE184     -0.0042
     96  CE1      -15.5370  -23.1690   16.1040 C.ar  184  PHE184     -0.0003
     97  CE2      -15.0280  -21.5180   14.4270 C.ar  184  PHE184     -0.0003
     98  CZ       -14.6170  -22.2840   15.5020 C.ar  184  PHE184     -0.0000
     99  N         -2.0850  -23.0710   12.8200 N.3   248  VAL248     -0.1231
    100  CA        -3.2910  -22.9020   13.6470 C.3   248  VAL248      0.1692
    101  C         -3.2270  -23.7520   14.9210 C.2   248  VAL248      0.2592
    102  O         -2.6660  -24.8660   14.9140 O.2   248  VAL248     -0.2718
    103  CB        -4.5920  -23.2180   12.8730 C.3   248  VAL248      0.0266
    104  CG1       -4.8140  -22.1820   11.7180 C.3   248  VAL248      0.0020
    105  CG2       -4.6340  -24.6910   12.3830 C.3   248  VAL248      0.0020
    106  N         -3.7980  -23.2210   16.0000 N.am  249  TYR249     -0.1962
    107  CA        -3.9110  -23.9550   17.2540 C.3   249  TYR249      0.1771
    108  C         -5.1940  -24.7690   17.2910 C.2   249  TYR249      0.2619
    109  O         -6.3110  -24.2100   17.1110 O.2   249  TYR249     -0.2715
    110  CB        -3.8560  -23.0000   18.4250 C.3   249  TYR249      0.0574
    111  CG        -2.4480  -22.5370   18.6580 C.ar  249  TYR249     -0.0198
    112  CD1       -1.5670  -23.2930   19.4450 C.ar  249  TYR249     -0.0009
    113  CD2       -1.9870  -21.3480   18.0860 C.ar  249  TYR249     -0.0009
    114  CE1       -0.2470  -22.8680   19.6520 C.ar  249  TYR249      0.0417
    115  CE2       -0.6780  -20.9110   18.2890 C.ar  249  TYR249      0.0417
    116  CZ         0.1810  -21.6760   19.0660 C.ar  249  TYR249      0.1957
    117  OH         1.4590  -21.2050   19.2510 O.3   249  TYR249     -0.2866
    118  N         -5.0360  -26.0730   17.5010 N.am  250  VAL250     -0.1963
    119  CA        -6.1680  -27.0230   17.5850 C.3   250  VAL250      0.1727
    120  C         -6.2700  -27.6910   18.9530 C.2   250  VAL250      0.2616
    121  O         -5.2530  -27.8680   19.6230 O.2   250  VAL250     -0.2715
    122  CB        -6.0740  -28.1220   16.4620 C.3   250  VAL250      0.0290
    123  CG1       -5.9440  -27.4560   15.1030 C.3   250  VAL250      0.0023
    124  CG2       -4.8430  -29.0180   16.6740 C.3   250  VAL250      0.0023
    125  N         -7.4890  -28.0830   19.3620 N.am  251  ASN251     -0.1972
    126  CA        -7.6930  -28.6850   20.6800 C.3   251  ASN251      0.1688
    127  C         -7.2170  -30.1240   20.6520 C.2   251  ASN251      0.2292
    128  O         -7.6600  -30.9270   19.8330 O.2   251  ASN251     -0.2864
    129  CB        -9.1640  -28.6040   21.1900 C.3   251  ASN251      0.1181
    130  CG        -9.3010  -29.0490   22.6940 C.2   251  ASN251      0.2629
    131  OD1       -8.3040  -29.1650   23.4460 O.2   251  ASN251     -0.2716
    132  ND2      -10.5280  -29.2940   23.1140 N.am  251  ASN251     -0.0877
    133  N         -2.5330  -27.6350   20.3910 N.3   304  ARG304     -0.1245
    134  CA        -1.3420  -27.9850   19.6020 C.3   304  ARG304      0.1563
    135  C         -1.2540  -27.0780   18.3790 C.2   304  ARG304      0.2260
    136  O         -2.2340  -26.9170   17.6700 O.2   304  ARG304     -0.2867
    137  CB        -1.4110  -29.4510   19.1690 C.3   304  ARG304      0.0307
    138  CG        -0.1250  -29.9490   18.4480 C.3   304  ARG304      0.0489
    139  CD        -0.1010  -31.4780   18.1750 C.3   304  ARG304      0.2205
    140  NE        -0.9910  -31.8370   17.0680 N.pl3 304  ARG304     -0.0865
    141  CZ        -0.7210  -32.7440   16.1220 C.cat 304  ARG304      0.5346
    142  NH1        0.4410  -33.4100   16.1170 N.pl3 304  ARG304      0.1354
    143  NH2       -1.6200  -32.9780   15.1650 N.pl3 304  ARG304      0.1354
    144  N         -0.5620  -26.6320   14.7620 N.3   306  VAL306     -0.1245
    145  CA        -0.4290  -27.4540   13.5420 C.3   306  VAL306      0.1561
    146  C         -0.3490  -26.6600   12.2400 C.2   306  VAL306      0.2260
    147  O         -0.9830  -25.5990   12.1140 O.2   306  VAL306     -0.2867
    148  CB        -1.4900  -28.5910   13.4080 C.3   306  VAL306      0.0252
    149  CG1       -1.5420  -29.4220   14.6990 C.3   306  VAL306      0.0019
    150  CG2       -2.8410  -28.0390   13.0810 C.3   306  VAL306      0.0019
    151  N         -2.5240  -29.7330    7.8680 N.3   311  LEU311     -0.1245
    152  CA        -3.8310  -30.0690    8.4420 C.3   311  LEU311      0.1561
    153  C         -4.7760  -30.4090    7.2940 C.2   311  LEU311      0.2260
    154  O         -5.4980  -31.4110    7.3520 O.2   311  LEU311     -0.2867
    155  CB        -4.3810  -28.9120    9.3000 C.3   311  LEU311      0.0270
    156  CG        -5.8840  -28.6470    9.4760 C.3   311  LEU311      0.0019
    157  CD1       -6.1480  -27.9240   10.7620 C.3   311  LEU311      0.0001
    158  CD2       -6.4090  -27.8370    8.3300 C.3   311  LEU311      0.0001
    159  N         -3.9470  -33.9180    5.6820 N.3   314  VAL314     -0.1231
    160  CA        -4.3360  -35.0590    6.5290 C.3   314  VAL314      0.1692
    161  C         -5.8590  -35.2450    6.5270 C.2   314  VAL314      0.2591
    162  O         -6.3450  -36.3800    6.3990 O.2   314  VAL314     -0.2718
    163  CB        -3.7850  -34.9370    8.0020 C.3   314  VAL314      0.0266
    164  CG1       -4.1830  -36.1500    8.8450 C.3   314  VAL314      0.0020
    165  CG2       -2.2620  -34.7660    8.0120 C.3   314  VAL314      0.0020
    166  N         -6.5930  -34.1280    6.6410 N.am  315  LEU315     -0.1980
    167  CA        -8.0650  -34.1430    6.6170 C.3   315  LEU315      0.1596
    168  C         -8.6490  -34.6500    5.2850 C.2   315  LEU315      0.2287
    169  O         -9.7250  -35.2630    5.2650 O.2   315  LEU315     -0.2864
    170  CB        -8.6640  -32.7710    7.0060 C.3   315  LEU315      0.0297
    171  CG        -8.8180  -32.3560    8.4880 C.3   315  LEU315      0.0022
    172  CD1       -9.3010  -33.5100    9.3420 C.3   315  LEU315      0.0001
    173  CD2       -7.5400  -31.8070    9.0820 C.3   315  LEU315      0.0001
@<TRIPOS>BOND
     1   169   168    2
     2   168   167    1
     3   159   160    1
     4    14    13    2
     5   162   161    2
     6    13    12    1
     7   161   160    1
     8   161   166   am
     9   160   163    1
    10   167   166    1
    11   167   170    1
    12   170   171    1
    13   153   154    2
    14   153   152    1
    15   151   152    1
    16    12    11    1
    17    12    15    1
    18   163   165    1
    19   163   164    1
    20    16    15    1
    21   158   156    1
    22   152   155    1
    23   171   173    1
    24   171   172    1
    25    75    76    1
    26    15    17    1
    27    78    77    2
    28   155   156    1
    29    76    77    1
    30    76    79    1
    31   156   157    1
    32    77    83   am
    33    83    84    1
    34    85    84    1
    35    85    86    2
    36    84    87    1
    37    79    80    1
    38    18    19    1
    39     4     3    2
    40    25    23    1
    41    23    24    1
    42    23    22    1
    43     3     2    1
    44    88    89    1
    45    80    81    1
    46   104   103    1
    47    91    90    2
    48    74    71    1
    49   147   146    2
    50    19    22    1
    51    19    20    1
    52   146   145    1
    53   105   103    1
    54    90    89    1
    55    73    72    2
    56    89    92    1
    57    99   100    1
    58   103   100    1
    59     2     5    1
    60     2     1    1
    61   150   148    1
    62    72    71    1
    63    71    70    1
    64    81    82    1
    65   148   145    1
    66   148   149    1
    67    20    21    2
    68    20    26   am
    69   145   144    1
    70     5     6    1
    71   100   101    1
    72    67    68    1
    73    67    66    1
    74    70    63   am
    75    68    69    1
    76    95    97   ar
    77    95    93   ar
    78    92    93    1
    79    26    27    1
    80    65    66    1
    81    65    62    1
    82    97    98   ar
    83    93    94   ar
    84    63    62    1
    85    63    64    2
    86   102   101    2
    87   101   106   am
    88    62    61    1
    89     6     7   ar
    90     6     8   ar
    91   123   122    1
    92   143   141    1
    93    27    30    1
    94    27    28    1
    95    98    96   ar
    96    94    96   ar
    97    30    31    1
    98     7     9   ar
    99     8    10   ar
   100   106   107    1
   101   142   141    1
   102    56    55    2
   103   141   140    2
   104    29    28    2
   105    28    32   am
   106    61    55   am
   107   122   124    1
   108   122   119    1
   109    55    54    1
   110     9    10   ar
   111   140   139    1
   112   109   108    2
   113   107   108    1
   114   107   110    1
   115   108   118   am
   116    60    58   ar
   117    32    33    1
   118   118   119    1
   119    38    36    1
   120   119   120    1
   121   136   135    2
   122    58    59   ar
   123    58    57    1
   124   113   115   ar
   125   113   111   ar
   126   139   138    1
   127   115   116   ar
   128    54    57    1
   129    54    53    1
   130    33    36    1
   131    33    34    1
   132   135   134    1
   133   110   111    1
   134   138   137    1
   135   111   112   ar
   136    36    37    1
   137   120   125   am
   138   120   121    2
   139   116   117    1
   140   116   114   ar
   141    51    50    1
   142   137   134    1
   143    53    48   am
   144   125   126    1
   145   112   114   ar
   146    49    48    2
   147   134   133    1
   148    34    35    2
   149    34    39   am
   150    48    47    1
   151   128   127    2
   152    45    39    1
   153    45    44    1
   154    39    40    1
   155    50    47    1
   156    50    52    1
   157   127   126    1
   158   126   129    1
   159    47    46    1
   160    44    43    1
   161   129   130    1
   162    40    43    1
   163    40    41    1
   164    41    42    2
   165   130   132   am
   166   130   131    2
