@<TRIPOS>MOLECULE
tmp/3hs0E00.pdb
 96 88 0 0 0
SMALL
GASTEIGER

@<TRIPOS>ATOM
      1  N        -51.5140   97.3520    8.8140 N.3    77  ARG77      -0.1245
      2  CA       -50.0890   97.6540    8.8750 C.3    77  ARG77       0.1563
      3  C        -49.8910   98.8120    9.8580 C.2    77  ARG77       0.2260
      4  O        -50.8660   99.3000   10.4290 O.2    77  ARG77      -0.2867
      5  CB       -49.4920   97.8990    7.4920 C.3    77  ARG77       0.0307
      6  CG       -49.0520   96.5960    6.8260 C.3    77  ARG77       0.0489
      7  CD       -48.1250   96.8250    5.6460 C.3    77  ARG77       0.2205
      8  NE       -48.0280   95.6330    4.8060 N.pl3  77  ARG77      -0.0865
      9  CZ       -47.3700   95.5790    3.6520 C.cat  77  ARG77       0.5346
     10  NH1      -46.7430   96.6530    3.1950 N.pl3  77  ARG77       0.1354
     11  NH2      -47.3390   94.4530    2.9530 N.pl3  77  ARG77       0.1354
     12  N        -49.2100   86.3250   -6.6420 N.3   135  GLU135     -0.1245
     13  CA       -49.1980   87.4950   -7.5120 C.3   135  GLU135      0.1567
     14  C        -48.0810   87.4500   -8.5530 C.2   135  GLU135      0.2260
     15  O        -46.9910   86.9440   -8.2900 O.2   135  GLU135     -0.2867
     16  CB       -49.1000   88.7750   -6.6760 C.3   135  GLU135      0.0388
     17  CG       -50.2610   88.9600   -5.7030 C.3   135  GLU135      0.1160
     18  CD       -50.2610   90.3150   -5.0080 C.2   135  GLU135      0.3649
     19  OE1      -49.1670   90.8500   -4.7230 O.co2 135  GLU135     -0.2457
     20  OE2      -51.3630   90.8410   -4.7390 O.co2 135  GLU135     -0.2457
     21  N        -45.7070   89.8100  -11.1000 N.3   137  GLN137     -0.1245
     22  CA       -45.2370   91.1600  -11.3980 C.3   137  GLN137      0.1566
     23  C        -44.3560   91.2290  -12.6340 C.2   137  GLN137      0.2260
     24  O        -43.4330   90.4360  -12.7960 O.2   137  GLN137     -0.2867
     25  CB       -44.4910   91.7530  -10.2060 C.3   137  GLN137      0.0367
     26  CG       -45.3610   92.6110   -9.3220 C.3   137  GLN137      0.0905
     27  CD       -44.7980   92.7640   -7.9340 C.2   137  GLN137      0.2608
     28  OE1      -43.5810   92.7380   -7.7360 O.2   137  GLN137     -0.2717
     29  NE2      -45.6830   92.9240   -6.9550 N.am  137  GLN137     -0.0878
     30  N        -41.4670   88.3160  -11.5340 N.3   169  ARG169     -0.1245
     31  CA       -41.5920   87.8350  -10.1630 C.3   169  ARG169      0.1563
     32  C        -42.9140   87.1130   -9.9260 C.2   169  ARG169      0.2260
     33  O        -43.9710   87.5950  -10.3330 O.2   169  ARG169     -0.2867
     34  CB       -41.5160   89.0040   -9.1860 C.3   169  ARG169      0.0307
     35  CG       -40.1290   89.4920   -8.8510 C.3   169  ARG169      0.0489
     36  CD       -40.1640   90.2810   -7.5490 C.3   169  ARG169      0.2205
     37  NE       -39.2090   91.3830   -7.5470 N.pl3 169  ARG169     -0.0865
     38  CZ       -39.4870   92.6020   -7.9930 C.cat 169  ARG169      0.5346
     39  NH1      -40.6940   92.8710   -8.4740 N.pl3 169  ARG169      0.1354
     40  NH2      -38.5620   93.5510   -7.9590 N.pl3 169  ARG169      0.1354
     41  N        -45.0800   86.1290   -6.6200 N.3   171  VAL171     -0.1245
     42  CA       -45.1480   86.3920   -5.1860 C.3   171  VAL171      0.1561
     43  C        -46.2290   85.5700   -4.4830 C.2   171  VAL171      0.2260
     44  O        -47.3880   85.5700   -4.8950 O.2   171  VAL171     -0.2867
     45  CB       -45.3920   87.8820   -4.9110 C.3   171  VAL171      0.0252
     46  CG1      -45.5150   88.1270   -3.4240 C.3   171  VAL171      0.0019
     47  CG2      -44.2740   88.7110   -5.5050 C.3   171  VAL171      0.0019
     48  N        -47.9800   84.9860   -0.6780 N.3   173  LYS173     -0.1245
     49  CA       -48.1310   85.6040    0.6320 C.3   173  LYS173      0.1561
     50  C        -49.4560   85.1870    1.2610 C.2   173  LYS173      0.2260
     51  O        -50.3730   84.7590    0.5600 O.2   173  LYS173     -0.2867
     52  CB       -48.1020   87.1260    0.4830 C.3   173  LYS173      0.0271
     53  CG       -49.3370   87.6760   -0.2180 C.3   173  LYS173      0.0035
     54  CD       -49.0370   88.9170   -1.0450 C.3   173  LYS173      0.0206
     55  CE       -49.0760   90.1860   -0.2170 C.3   173  LYS173      0.1093
     56  NZ       -49.0190   91.3890   -1.0930 N.3   173  LYS173     -0.1314
     57  N        -47.0470   91.4440    5.3450 N.3   178  PRO178     -0.2102
     58  CA       -46.0200   92.1880    4.6090 C.3   178  PRO178      0.1504
     59  C        -44.8400   91.2900    4.2650 C.2   178  PRO178      0.2576
     60  O        -43.9130   91.7280    3.5830 O.2   178  PRO178     -0.2718
     61  CB       -45.5810   93.2660    5.6070 C.3   178  PRO178      0.0282
     62  CG       -46.6720   93.3280    6.6330 C.3   178  PRO178      0.0208
     63  CD       -47.1980   91.9340    6.7240 C.3   178  PRO178      0.0893
     64  N        -44.8770   90.0500    4.7460 N.am  179  GLU179     -0.1966
     65  CA       -43.8370   89.0720    4.4420 C.3   179  GLU179      0.1733
     66  C        -44.2700   88.1460    3.3050 C.2   179  GLU179      0.2616
     67  O        -45.4300   87.7340    3.2240 O.2   179  GLU179     -0.2715
     68  CB       -43.4510   88.2630    5.6870 C.3   179  GLU179      0.0429
     69  CG       -42.4870   88.9750    6.6410 C.3   179  GLU179      0.1163
     70  CD       -43.1960   89.7880    7.7200 C.2   179  GLU179      0.3649
     71  OE1      -44.4080   90.0560    7.5740 O.co2 179  GLU179     -0.2457
     72  OE2      -42.5390   90.1570    8.7200 O.co2 179  GLU179     -0.2457
     73  N        -43.3230   87.8200    2.4330 N.am  180  ASN180     -0.1972
     74  CA       -43.6290   87.1220    1.1960 C.3   180  ASN180      0.1688
     75  C        -42.4530   86.2760    0.7180 C.2   180  ASN180      0.2292
     76  O        -41.3020   86.6910    0.8480 O.2   180  ASN180     -0.2864
     77  CB       -44.0110   88.1500    0.1190 C.3   180  ASN180      0.1181
     78  CG       -42.9550   89.2450   -0.0590 C.2   180  ASN180      0.2629
     79  OD1      -41.7710   88.9590   -0.2360 O.2   180  ASN180     -0.2716
     80  ND2      -43.3900   90.5060   -0.0210 N.am  180  ASN180     -0.0877
     81  N        -40.6930   84.8430   -2.7470 N.3   182  THR182     -0.1218
     82  CA       -40.6160   85.4260   -4.0780 C.3   182  THR182      0.1862
     83  C        -39.7450   84.6050   -5.0280 C.2   182  THR182      0.2287
     84  O        -38.5440   84.4590   -4.8130 O.2   182  THR182     -0.2866
     85  CB       -40.0430   86.8560   -4.0040 C.3   182  THR182      0.1770
     86  OG1      -40.9730   87.7160   -3.3320 O.3   182  THR182     -0.2211
     87  CG2      -39.7750   87.3960   -5.3910 C.3   182  THR182      0.0375
     88  N        -38.5890   91.0940   12.4190 N.3   614  LYS614     -0.1245
     89  CA       -37.2630   90.7910   11.9000 C.3   614  LYS614      0.1561
     90  C        -36.2370   91.2710   12.9190 C.2   614  LYS614      0.2260
     91  O        -36.4030   92.3330   13.5190 O.2   614  LYS614     -0.2867
     92  CB       -37.0270   91.4780   10.5530 C.3   614  LYS614      0.0271
     93  CG       -37.6880   90.8000    9.3610 C.3   614  LYS614      0.0035
     94  CD       -37.2450   91.4630    8.0630 C.3   614  LYS614      0.0206
     95  CE       -37.9160   90.8470    6.8420 C.3   614  LYS614      0.1093
     96  NZ       -37.4730   91.5060    5.5770 N.3   614  LYS614     -0.1314
@<TRIPOS>BOND
     1    24    23    2
     2    23    22    1
     3    30    31    1
     4    22    21    1
     5    22    25    1
     6    33    32    2
     7    25    26    1
     8    31    32    1
     9    31    34    1
    10    26    27    1
    11    34    35    1
    12    35    36    1
    13    14    15    2
    14    14    13    1
    15    39    38    1
    16    38    40    1
    17    38    37    2
    18    27    28    2
    19    27    29   am
    20    36    37    1
    21    13    16    1
    22    13    12    1
    23    16    17    1
    24    41    42    1
    25    17    18    1
    26    47    45    1
    27    87    85    1
    28    42    45    1
    29    42    43    1
    30    83    84    2
    31    83    82    1
    32    18    20   ar
    33    18    19   ar
    34    45    46    1
    35    44    43    2
    36    82    85    1
    37    82    81    1
    38    85    86    1
    39    56    55    1
    40    54    53    1
    41    54    55    1
    42    48    49    1
    43    79    78    2
    44    53    52    1
    45    78    80   am
    46    78    77    1
    47    77    74    1
    48    52    49    1
    49    51    50    2
    50    49    50    1
    51    75    76    2
    52    75    74    1
    53    74    73    1
    54    73    66   am
    55    11     9    1
    56    10     9    1
    57    67    66    2
    58    66    65    1
    59    60    59    2
    60     9     8    2
    61    59    58    1
    62    59    64   am
    63    65    64    1
    64    65    68    1
    65    58    57    1
    66    58    61    1
    67     8     7    1
    68    57    63    1
    69    96    95    1
    70    61    62    1
    71     7     6    1
    72    68    69    1
    73    62    63    1
    74    69    70    1
    75     6     5    1
    76    95    94    1
    77     5     2    1
    78    71    70   ar
    79    70    72   ar
    80    94    93    1
    81     1     2    1
    82     2     3    1
    83    93    92    1
    84     3     4    2
    85    92    89    1
    86    89    88    1
    87    89    90    1
    88    90    91    2
