@<TRIPOS>MOLECULE
tmp/3hs4A01.pdb
 94 91 0 0 0
SMALL
GASTEIGER

@<TRIPOS>ATOM
      1  N        -12.0340  -12.3470   32.4200 N.3    32  THR32      -0.1218
      2  CA       -13.4130  -12.0200   32.6670 C.3    32  THR32       0.1862
      3  C        -13.7760  -12.1210   34.1170 C.2    32  THR32       0.2287
      4  O        -14.6310  -11.4020   34.6110 O.2    32  THR32      -0.2866
      5  CB       -14.3480  -12.9100   31.8430 C.3    32  THR32       0.1770
      6  OG1      -14.2090  -14.2570   32.2730 O.3    32  THR32      -0.2211
      7  CG2      -13.9940  -12.8160   30.3440 C.3    32  THR32       0.0375
      8  N         -9.7730  -12.9270   25.4270 N.3   106  VAL106     -0.1245
      9  CA       -10.7660  -13.0700   26.4770 C.3   106  VAL106      0.1561
     10  C        -10.4380  -14.3610   27.2020 C.2   106  VAL106      0.2260
     11  O        -10.5690  -15.4360   26.6400 O.2   106  VAL106     -0.2867
     12  CB       -12.1880  -13.0660   25.9620 C.3   106  VAL106      0.0252
     13  CG1      -13.1750  -13.2580   27.0940 C.3   106  VAL106      0.0019
     14  CG2      -12.4840  -11.7690   25.2190 C.3   106  VAL106      0.0019
     15  N         -8.4300  -16.5560   25.2380 N.3   109  LYS109     -0.1245
     16  CA        -8.9660  -16.9870   23.9580 C.3   109  LYS109      0.1561
     17  C         -8.7080  -15.9100   22.8920 C.2   109  LYS109      0.2260
     18  O         -8.9450  -14.7480   23.1300 O.2   109  LYS109     -0.2867
     19  CB       -10.4690  -17.2020   23.9970 C.3   109  LYS109      0.0271
     20  CG       -10.9890  -17.7490   22.6910 C.3   109  LYS109      0.0035
     21  CD       -12.4380  -17.6790   22.3210 C.3   109  LYS109      0.0206
     22  CE       -12.8700  -18.6900   21.2970 C.3   109  LYS109      0.1093
     23  NZ       -12.7830  -18.1360   19.8640 N.3   109  LYS109     -0.1314
     24  N         -9.6780  -14.7010   19.0720 N.3   111  TYR111     -0.1241
     25  CA       -10.6800  -14.7320   18.0210 C.3   111  TYR111      0.1605
     26  C         -9.9790  -14.6500   16.6620 C.2   111  TYR111      0.2264
     27  O         -8.8150  -14.3350   16.5490 O.2   111  TYR111     -0.2867
     28  CB       -11.7180  -13.6370   18.2100 C.3   111  TYR111      0.0534
     29  CG       -12.5930  -13.8700   19.3860 C.ar  111  TYR111     -0.0201
     30  CD1      -13.8160  -14.5230   19.2050 C.ar  111  TYR111     -0.0009
     31  CD2      -12.2330  -13.4510   20.6520 C.ar  111  TYR111     -0.0009
     32  CE1      -14.6830  -14.7670   20.2610 C.ar  111  TYR111      0.0417
     33  CE2      -13.0890  -13.6980   21.7160 C.ar  111  TYR111      0.0417
     34  CZ       -14.2800  -14.3450   21.5100 C.ar  111  TYR111      0.1957
     35  OH       -15.0720  -14.5300   22.6190 O.3   111  TYR111     -0.2866
     36  N        -15.0440   -8.5050   18.5030 N.3   143  PHE143     -0.1241
     37  CA       -14.4250   -9.7510   18.0850 C.3   143  PHE143      0.1605
     38  C        -15.2170  -10.3820   16.9520 C.2   143  PHE143      0.2264
     39  O        -16.4450  -10.2970   16.8930 O.2   143  PHE143     -0.2867
     40  CB       -14.4340  -10.7150   19.2590 C.3   143  PHE143      0.0534
     41  CG       -13.5760  -10.2360   20.4190 C.ar  143  PHE143     -0.0203
     42  CD1      -12.2360  -10.0830   20.2490 C.ar  143  PHE143     -0.0042
     43  CD2      -14.1150   -9.9490   21.6300 C.ar  143  PHE143     -0.0042
     44  CE1      -11.3900   -9.6710   21.2680 C.ar  143  PHE143     -0.0003
     45  CE2      -13.3110   -9.5670   22.6850 C.ar  143  PHE143     -0.0003
     46  CZ       -11.9660   -9.4290   22.5100 C.ar  143  PHE143     -0.0000
     47  N        -15.7330  -14.1670   15.2370 N.3   145  LYS145     -0.1245
     48  CA       -15.5820  -15.6190   15.2390 C.3   145  LYS145      0.1561
     49  C        -16.0900  -16.1530   13.9190 C.2   145  LYS145      0.2260
     50  O        -16.8940  -15.5310   13.2730 O.2   145  LYS145     -0.2867
     51  CB       -16.2750  -16.2800   16.3840 C.3   145  LYS145      0.0271
     52  CG       -17.7790  -16.2030   16.3170 C.3   145  LYS145      0.0035
     53  CD       -18.4610  -16.8040   17.5360 C.3   145  LYS145      0.0206
     54  CE       -19.9670  -16.9240   17.3820 C.3   145  LYS145      0.1093
     55  NZ       -20.5520  -17.5280   18.6250 N.3   145  LYS145     -0.1314
     56  N        -16.5370   -4.2690   28.0410 N.3   188  TRP188     -0.1241
     57  CA       -15.4370   -4.0390   28.9500 C.3   188  TRP188      0.1605
     58  C        -14.7210   -2.7510   28.5370 C.2   188  TRP188      0.2264
     59  O        -14.7070   -2.4010   27.3580 O.2   188  TRP188     -0.2867
     60  CB       -14.4400   -5.1320   28.9170 C.3   188  TRP188      0.0550
     61  CG       -14.9150   -6.4930   29.3660 C.ar  188  TRP188      0.0003
     62  CD1      -15.1470   -6.9020   30.6180 C.ar  188  TRP188      0.0946
     63  CD2      -15.1730   -7.5880   28.5100 C.ar  188  TRP188      0.0152
     64  NE1      -15.5480   -8.2150   30.6020 N.ar  188  TRP188     -0.2442
     65  CE2      -15.5620   -8.6630   29.3060 C.ar  188  TRP188      0.0810
     66  CE3      -15.1030   -7.8090   27.1310 C.ar  188  TRP188      0.0012
     67  CZ2      -15.8820   -9.8960   28.7790 C.ar  188  TRP188      0.0191
     68  CZ3      -15.4060   -9.0330   26.6210 C.ar  188  TRP188      0.0001
     69  CH2      -15.7990  -10.0810   27.4340 C.ar  188  TRP188      0.0015
     70  N        -18.5560   -7.4160   24.5710 N.3   209  LYS209     -0.1231
     71  CA       -18.5750   -8.8180   25.0130 C.3   209  LYS209      0.1693
     72  C        -18.9440   -9.7910   23.9290 C.2   209  LYS209      0.2592
     73  O        -18.3640  -10.8720   23.8170 O.2   209  LYS209     -0.2718
     74  CB       -19.5430   -8.8940   26.1750 C.3   209  LYS209      0.0285
     75  CG       -19.9190  -10.2440   26.7070 C.3   209  LYS209      0.0035
     76  CD       -21.2460  -10.1090   27.4940 C.3   209  LYS209      0.0206
     77  CE       -22.4680  -10.2550   26.5410 C.3   209  LYS209      0.1093
     78  NZ       -23.7260  -10.3030   27.3100 N.3   209  LYS209     -0.1314
     79  N        -19.9660   -9.4450   23.1480 N.am  210  GLU210     -0.1966
     80  CA       -20.5210  -10.3690   22.2100 C.3   210  GLU210      0.1718
     81  C        -19.7670  -10.2960   20.8840 C.2   210  GLU210      0.2458
     82  O        -19.7310   -9.2280   20.2680 O.2   210  GLU210     -0.2730
     83  CB       -21.9800  -10.0720   21.9570 C.3   210  GLU210      0.0428
     84  CG       -22.6210  -11.0510   21.0150 C.3   210  GLU210      0.1163
     85  CD       -24.1010  -10.9070   20.7690 C.2   210  GLU210      0.3649
     86  OE1      -24.7500   -9.9730   21.2810 O.co2 210  GLU210     -0.2457
     87  OE2      -24.6430  -11.7720   20.0240 O.co2 210  GLU210     -0.2457
     88  N        -19.2130  -11.4010   20.4200 N.am  211  PRO211     -0.2727
     89  CA       -18.5670  -11.3920   19.0980 C.3   211  PRO211      0.1402
     90  C        -19.6170  -11.3610   18.0080 C.2   211  PRO211      0.2269
     91  O        -20.7690  -11.7470   18.2140 O.2   211  PRO211     -0.2865
     92  CB       -17.8280  -12.7280   19.0210 C.3   211  PRO211      0.0296
     93  CG       -18.1030  -13.4340   20.2710 C.3   211  PRO211      0.0237
     94  CD       -19.1040  -12.7070   21.0460 C.3   211  PRO211      0.0939
@<TRIPOS>BOND
     1    50    49    2
     2    49    48    1
     3    47    48    1
     4    48    51    1
     5    52    51    1
     6    52    53    1
     7    27    26    2
     8    26    25    1
     9    39    38    2
    10    38    37    1
    11    54    53    1
    12    54    55    1
    13    90    91    2
    14    90    89    1
    15    25    28    1
    16    25    24    1
    17    37    36    1
    18    37    40    1
    19    28    29    1
    20    92    89    1
    21    92    93    1
    22    89    88    1
    23    30    29   ar
    24    30    32   ar
    25    40    41    1
    26    29    31   ar
    27    23    22    1
    28    87    85   ar
    29    42    41   ar
    30    42    44   ar
    31    32    34   ar
    32    82    81    2
    33    93    94    1
    34    41    43   ar
    35    88    81   am
    36    88    94    1
    37    31    33   ar
    38    85    84    1
    39    85    86   ar
    40    81    80    1
    41    84    83    1
    42    44    46   ar
    43    22    21    1
    44    34    33   ar
    45    34    35    1
    46    43    45   ar
    47    83    80    1
    48    80    79    1
    49    21    20    1
    50    46    45   ar
    51    20    19    1
    52    17    18    2
    53    17    16    1
    54    79    72   am
    55    73    72    2
    56    72    71    1
    57    16    19    1
    58    16    15    1
    59    70    71    1
    60    71    74    1
    61    14    12    1
    62     8     9    1
    63    12     9    1
    64    12    13    1
    65    74    75    1
    66     9    10    1
    67    77    78    1
    68    77    76    1
    69    68    66   ar
    70    68    69   ar
    71    11    10    2
    72    75    76    1
    73    66    63   ar
    74    59    58    2
    75    69    67   ar
    76    56    57    1
    77    63    65   ar
    78    63    61   ar
    79    58    57    1
    80    67    65   ar
    81    60    57    1
    82    60    61    1
    83    65    64   ar
    84    61    62   ar
    85     7     5    1
    86    64    62   ar
    87     5     6    1
    88     5     2    1
    89     1     2    1
    90     2     3    1
    91     3     4    2
