@<TRIPOS>MOLECULE
tmp/3hskA00.pdb
 121 109 0 0 0
SMALL
GASTEIGER

@<TRIPOS>ATOM
      1  N         16.6190  -11.4640   17.7140 N.3     9  GLY9       -0.1225
      2  CA        15.4850  -10.6710   18.1660 C.3     9  GLY9        0.1811
      3  C         15.1340   -9.6290   17.1210 C.2     9  GLY9        0.2280
      4  O         14.8510   -8.4750   17.4510 O.2     9  GLY9       -0.2866
      5  N         12.6460   -9.0960   15.0790 N.3    11  THR11      -0.1203
      6  CA        11.2760   -8.5860   14.9400 C.3    11  THR11       0.1994
      7  C         10.9530   -7.4830   15.9460 C.2    11  THR11       0.2618
      8  O         10.0680   -6.6590   15.7120 O.2    11  THR11      -0.2717
      9  CB        10.2360   -9.7250   15.0440 C.3    11  THR11       0.1784
     10  OG1       10.4250  -10.4410   16.2720 O.3    11  THR11      -0.2211
     11  CG2       10.4010  -10.6960   13.8830 C.3    11  THR11       0.0376
     12  N         11.6930   -7.4570   17.0520 N.am   12  GLY12      -0.1942
     13  CA        11.4880   -6.4580   18.0940 C.3    12  GLY12       0.2014
     14  C         11.8740   -5.0580   17.6590 C.2    12  GLY12       0.2640
     15  O         12.4750   -4.8710   16.5950 O.2    12  GLY12      -0.2714
     16  N         11.5310   -4.0830   18.5010 N.am   13  SER13      -0.1935
     17  CA        11.7620   -2.6610   18.2320 C.3    13  SER13       0.2055
     18  C         13.2220   -2.3150   17.8820 C.2    13  SER13       0.2642
     19  O         13.4830   -1.7060   16.8400 O.2    13  SER13      -0.2714
     20  CB        11.2820   -1.8210   19.4210 C.3    13  SER13       0.2130
     21  OG        11.4510   -0.4370   19.1600 O.3    13  SER13      -0.2179
     22  N         14.1560   -2.7050   18.7520 N.am   14  VAL14      -0.1977
     23  CA        15.5900   -2.4850   18.5300 C.3    14  VAL14       0.1596
     24  C         16.0750   -3.2810   17.3080 C.2    14  VAL14       0.2287
     25  O         16.8490   -2.7680   16.4910 O.2    14  VAL14      -0.2864
     26  CB        16.4300   -2.8260   19.8000 C.3    14  VAL14       0.0276
     27  CG1       17.9200   -2.8840   19.4830 C.3    14  VAL14       0.0022
     28  CG2       16.1790   -1.8040   20.9010 C.3    14  VAL14       0.0022
     29  N         14.3010  -14.7720   15.4430 N.3    35  ALA35      -0.1231
     30  CA        13.2630  -14.4600   16.4250 C.3    35  ALA35       0.1694
     31  C         12.7300  -15.7570   17.0450 C.2    35  ALA35       0.2592
     32  O         13.3400  -16.8150   16.8830 O.2    35  ALA35      -0.2718
     33  CB        12.1440  -13.6550   15.7870 C.3    35  ALA35       0.0304
     34  N         11.6000  -15.6720   17.7480 N.am   36  SER36      -0.1952
     35  CA        10.9940  -16.8350   18.4200 C.3    36  SER36       0.1924
     36  C         10.3180  -17.8240   17.4650 C.2    36  SER36       0.2314
     37  O         10.3870  -17.6730   16.2400 O.2    36  SER36      -0.2863
     38  CB         9.9960  -16.3790   19.4970 C.3    36  SER36       0.2116
     39  OG         8.7830  -15.9250   18.9230 O.3    36  SER36      -0.2180
     40  N          7.1180  -18.1740   17.1980 N.3    38  ARG38      -0.1231
     41  CA         5.9890  -17.4510   16.6230 C.3    38  ARG38       0.1694
     42  C          6.3500  -16.7200   15.3260 C.2    38  ARG38       0.2592
     43  O          5.4590  -16.3560   14.5490 O.2    38  ARG38      -0.2718
     44  CB         5.4120  -16.4770   17.6470 C.3    38  ARG38       0.0321
     45  CG         4.1940  -15.7370   17.0680 C.3    38  ARG38       0.0489
     46  CD         3.6360  -14.7150   17.9950 C.3    38  ARG38       0.2205
     47  NE         4.6410  -13.7360   18.4530 N.pl3  38  ARG38      -0.0865
     48  CZ         4.9450  -12.6390   17.7470 C.cat  38  ARG38       0.5346
     49  NH1        4.3450  -12.4280   16.5840 N.pl3  38  ARG38       0.1354
     50  NH2        5.8460  -11.7890   18.1940 N.pl3  38  ARG38       0.1354
     51  N          7.6520  -16.5230   15.0970 N.am   39  SER39      -0.1952
     52  CA         8.1560  -15.7820   13.9350 C.3    39  SER39       0.1924
     53  C          8.9050  -16.6660   12.9390 C.2    39  SER39       0.2314
     54  O          8.9200  -16.3770   11.7370 O.2    39  SER39      -0.2863
     55  CB         9.0800  -14.6480   14.3840 C.3    39  SER39       0.2116
     56  OG         8.4010  -13.7080   15.1970 O.3    39  SER39      -0.2180
     57  N          6.4030  -11.3920    9.9590 N.3    47  ALA47      -0.1245
     58  CA         6.7750  -11.6790   11.3420 C.3    47  ALA47       0.1562
     59  C          6.7300  -10.4350   12.2230 C.2    47  ALA47       0.2260
     60  O          6.4140  -10.5200   13.4130 O.2    47  ALA47      -0.2867
     61  CB         8.1590  -12.3220   11.4000 C.3    47  ALA47       0.0290
     62  N          5.4030   -6.6570   13.2490 N.3    49  SER49      -0.1217
     63  CA         4.5150   -5.5040   13.2320 C.3    49  SER49       0.1889
     64  C          5.4070   -4.2690   13.2460 C.2    49  SER49       0.2288
     65  O          5.8230   -3.7940   14.3050 O.2    49  SER49      -0.2866
     66  CB         3.5530   -5.5210   14.4230 C.3    49  SER49       0.2089
     67  OG         4.2410   -5.7690   15.6340 O.3    49  SER49      -0.2183
     68  N          7.0410   -0.8640   13.3700 N.3    51  LYS51      -0.1245
     69  CA         6.7140    0.3680   14.0890 C.3    51  LYS51       0.1561
     70  C          7.7020    1.5160   13.8240 C.2    51  LYS51       0.2260
     71  O          7.8700    2.4080   14.6640 O.2    51  LYS51      -0.2867
     72  CB         6.5820    0.0910   15.5900 C.3    51  LYS51       0.0271
     73  CG         5.4100   -0.8490   15.8870 C.3    51  LYS51       0.0035
     74  CD         5.0480   -0.8850   17.3560 C.3    51  LYS51       0.0206
     75  CE         6.0720   -1.6670   18.1400 C.3    51  LYS51       0.1093
     76  NZ         6.0260   -3.1280   17.8320 N.3    51  LYS51      -0.1314
     77  N         16.5200  -18.6870   16.7830 N.3    68  CYS68      -0.1235
     78  CA        17.7200  -18.1170   17.3970 C.3    68  CYS68       0.1677
     79  C         18.6990  -19.1880   17.8890 C.2    68  CYS68       0.2270
     80  O         18.8810  -19.3820   19.0930 O.2    68  CYS68      -0.2867
     81  CB        17.3480  -17.1330   18.5070 C.3    68  CYS68       0.0956
     82  SG        16.4990  -15.6620   17.8920 S.3    68  CYS68      -0.0801
     83  N         18.9340   -7.7560   19.7160 N.3    83  GLY83      -0.1210
     84  CA        17.9060   -6.9960   20.4250 C.3    83  GLY83       0.1956
     85  C         16.9130   -7.9400   21.0770 C.2    83  GLY83       0.2612
     86  O         15.7290   -7.6330   21.1860 O.2    83  GLY83      -0.2717
     87  N         17.4130   -9.0970   21.5020 N.am   84  LEU84      -0.1965
     88  CA        16.6090  -10.1200   22.1650 C.3    84  LEU84       0.1728
     89  C         16.0640   -9.6670   23.5080 C.2    84  LEU84       0.2616
     90  O         16.7140   -8.9080   24.2340 O.2    84  LEU84      -0.2715
     91  CB        17.4330  -11.3910   22.3770 C.3    84  LEU84       0.0311
     92  CG        17.5770  -12.3800   21.2230 C.3    84  LEU84       0.0022
     93  CD1       18.7310  -13.3170   21.5160 C.3    84  LEU84       0.0001
     94  CD2       16.2870  -13.1690   20.9880 C.3    84  LEU84       0.0001
     95  N         14.8600  -10.1450   23.8170 N.am   85  ASP85      -0.1971
     96  CA        14.2470   -9.9890   25.1270 C.3    85  ASP85       0.1709
     97  C         15.1560  -10.6510   26.1670 C.2    85  ASP85       0.2293
     98  O         15.7050  -11.7340   25.9290 O.2    85  ASP85      -0.2864
     99  CB        12.8500  -10.6290   25.1050 C.3    85  ASP85       0.1436
    100  CG        12.2010  -10.7300   26.4840 C.2    85  ASP85       0.3671
    101  OD1       12.3860   -9.8330   27.3370 O.co2  85  ASP85      -0.2456
    102  OD2       11.4740  -11.7210   26.7040 O.co2  85  ASP85      -0.2456
    103  N         15.1780  -14.4170   27.3890 N.3    88  VAL88      -0.1245
    104  CA        15.7610  -15.4730   26.5640 C.3    88  VAL88       0.1561
    105  C         17.1990  -15.1860   26.1160 C.2    88  VAL88       0.2260
    106  O         17.9280  -16.1050   25.7340 O.2    88  VAL88      -0.2867
    107  CB        14.8710  -15.7880   25.3290 C.3    88  VAL88       0.0252
    108  CG1       13.5430  -16.4050   25.7740 C.3    88  VAL88       0.0019
    109  CG2       14.6380  -14.5410   24.4760 C.3    88  VAL88       0.0019
    110  N         20.6500  -17.7980   24.9730 N.3    92  ILE92      -0.1245
    111  CA        20.8860  -17.7330   23.5230 C.3    92  ILE92       0.1561
    112  C         22.2420  -17.1180   23.1580 C.2    92  ILE92       0.2260
    113  O         23.0070  -17.7110   22.4000 O.2    92  ILE92      -0.2867
    114  CB        19.7300  -16.9960   22.7800 C.3    92  ILE92       0.0252
    115  CG1       18.4460  -17.8330   22.8230 C.3    92  ILE92       0.0019
    116  CG2       20.1080  -16.7040   21.3270 C.3    92  ILE92       0.0019
    117  CD1       17.1740  -17.0450   22.5390 C.3    92  ILE92       0.0001
    118  N          5.8080   -0.8840   26.7090 N.3   187  GLY187     -0.1225
    119  CA         5.3130    0.2780   25.9660 C.3   187  GLY187      0.1811
    120  C          4.6210    1.2990   26.8560 C.2   187  GLY187      0.2280
    121  O          4.1090    0.9540   27.9290 O.2   187  GLY187     -0.2866
@<TRIPOS>BOND
     1    57    58    1
     2    58    61    1
     3    58    59    1
     4    54    53    2
     5    59    60    2
     6    53    52    1
     7    63    64    1
     8    63    62    1
     9    63    66    1
    10    64    65    2
    11    68    69    1
    12    70    69    1
    13    70    71    2
    14    11     9    1
    15    52    55    1
    16    52    51    1
    17    69    72    1
    18    55    56    1
    19    66    67    1
    20    43    42    2
    21     6     9    1
    22     6     5    1
    23     6     7    1
    24     9    10    1
    25    51    42   am
    26    42    41    1
    27    29    30    1
    28    72    73    1
    29     8     7    2
    30    33    30    1
    31    73    74    1
    32     7    12   am
    33    37    36    2
    34    30    31    1
    35    25    24    2
    36    49    48    1
    37    15    14    2
    38    41    40    1
    39    41    44    1
    40    77    78    1
    41    19    18    2
    42    32    31    2
    43    31    34   am
    44    12    13    1
    45    45    44    1
    46    45    46    1
    47     3     4    2
    48     3     2    1
    49    24    23    1
    50    74    75    1
    51    78    79    1
    52    78    81    1
    53    36    35    1
    54    14    13    1
    55    14    16   am
    56     1     2    1
    57    48    50    1
    58    48    47    2
    59    34    35    1
    60    76    75    1
    61    18    17    1
    62    18    22   am
    63    79    80    2
    64    82    81    1
    65    46    47    1
    66    17    16    1
    67    17    20    1
    68    35    38    1
    69    23    22    1
    70    23    26    1
    71    39    38    1
    72    21    20    1
    73    27    26    1
    74    83    84    1
    75    26    28    1
    76    84    85    1
    77    94    92    1
    78    85    86    2
    79    85    87   am
    80    92    93    1
    81    92    91    1
    82   116   114    1
    83    87    88    1
    84    88    91    1
    85    88    89    1
    86   113   112    2
    87   117   115    1
    88   114   115    1
    89   114   111    1
    90   112   111    1
    91    89    95   am
    92    89    90    2
    93   111   110    1
    94    95    96    1
    95   109   107    1
    96    99    96    1
    97    99   100    1
    98    96    97    1
    99   107   108    1
   100   107   104    1
   101   106   105    2
   102    98    97    2
   103   119   118    1
   104   119   120    1
   105   105   104    1
   106   100   102   ar
   107   100   101   ar
   108   104   103    1
   109   120   121    2
