@<TRIPOS>MOLECULE
tmp/3hstC00.pdb
 96 94 0 0 0
SMALL
GASTEIGER

@<TRIPOS>ATOM
      1  N         39.4990    4.3450   11.3960 N.3    94  ASP94      -0.1239
      2  CA        39.7950    3.1970   10.5620 C.3    94  ASP94       0.1674
      3  C         38.5300    2.3600   10.3570 C.2    94  ASP94       0.2266
      4  O         38.2870    1.8040    9.3050 O.2    94  ASP94      -0.2867
      5  CB        40.8950    2.3400   11.1800 C.3    94  ASP94       0.1410
      6  CG        42.3050    3.0000   11.1510 C.2    94  ASP94       0.3668
      7  OD1       42.5670    3.9490   10.3760 O.co2  94  ASP94      -0.2456
      8  OD2       43.1780    2.5490   11.9420 O.co2  94  ASP94      -0.2456
      9  N         36.3440    3.4920    7.3400 N.3    97  ARG97      -0.1231
     10  CA        36.9960    3.7090    6.0550 C.3    97  ARG97       0.1694
     11  C         36.5390    2.6060    5.1090 C.2    97  ARG97       0.2592
     12  O         36.6300    1.4290    5.4420 O.2    97  ARG97      -0.2718
     13  CB        38.5090    3.6910    6.2330 C.3    97  ARG97       0.0321
     14  CG        39.2070    4.7160    5.3550 C.3    97  ARG97       0.0489
     15  CD        40.7250    4.8050    5.5760 C.3    97  ARG97       0.2205
     16  NE        41.1170    5.0300    6.9820 N.pl3  97  ARG97      -0.0865
     17  CZ        41.2620    6.2360    7.5350 C.cat  97  ARG97       0.5346
     18  NH1       41.0290    7.3170    6.8060 N.pl3  97  ARG97       0.1354
     19  NH2       41.6370    6.3510    8.8130 N.pl3  97  ARG97       0.1354
     20  N         36.0000    2.9740    3.9550 N.am   98  TYR98      -0.1962
     21  CA        35.6820    1.9590    2.9180 C.3    98  TYR98       0.1771
     22  C         36.3000    2.3420    1.5720 C.2    98  TYR98       0.2620
     23  O         36.0130    3.4070    1.0380 O.2    98  TYR98      -0.2715
     24  CB        34.1650    1.7520    2.7550 C.3    98  TYR98       0.0574
     25  CG        33.8690    0.5560    1.8770 C.ar   98  TYR98      -0.0198
     26  CD1       34.1810   -0.7420    2.3080 C.ar   98  TYR98      -0.0009
     27  CD2       33.3310    0.7090    0.6180 C.ar   98  TYR98      -0.0009
     28  CE1       33.9560   -1.8450    1.4930 C.ar   98  TYR98       0.0417
     29  CE2       33.0880   -0.3830   -0.1810 C.ar   98  TYR98       0.0417
     30  CZ        33.4070   -1.6560    0.2690 C.ar   98  TYR98       0.1957
     31  OH        33.1890   -2.7610   -0.5100 O.3    98  TYR98      -0.2866
     32  N         37.1590    1.4890    1.0360 N.am   99  ASN99      -0.1958
     33  CA        37.9670    1.8660   -0.1280 C.3    99  ASN99       0.1819
     34  C         38.6920    3.1910   -0.0030 C.2    99  ASN99       0.2621
     35  O         38.7700    3.9150   -0.9670 O.2    99  ASN99      -0.2715
     36  CB        37.1110    1.8770   -1.4000 C.3    99  ASN99       0.1195
     37  CG        36.6730    0.5160   -1.7630 C.2    99  ASN99       0.2630
     38  OD1       37.3130   -0.4920   -1.3610 O.2    99  ASN99      -0.2716
     39  ND2       35.5700    0.4250   -2.4990 N.am   99  ASN99      -0.0877
     40  N         39.1890    3.4890    1.1920 N.am  100  GLY100     -0.1954
     41  CA        39.9550    4.6830    1.4660 C.3   100  GLY100      0.1869
     42  C         39.1630    5.9410    1.7500 C.2   100  GLY100      0.2309
     43  O         39.7470    6.9610    2.1100 O.2   100  GLY100     -0.2863
     44  N         42.3070  -12.0530    7.0400 N.3   170  TYR170     -0.1241
     45  CA        42.9330  -10.8640    6.5570 C.3   170  TYR170      0.1605
     46  C         44.3760  -11.1860    6.1310 C.2   170  TYR170      0.2264
     47  O         45.1580  -11.7180    6.8930 O.2   170  TYR170     -0.2867
     48  CB        42.8750   -9.8000    7.6220 C.3   170  TYR170      0.0534
     49  CG        43.2820   -8.4450    7.1330 C.ar  170  TYR170     -0.0201
     50  CD1       42.3430   -7.5800    6.5920 C.ar  170  TYR170     -0.0009
     51  CD2       44.6170   -8.0230    7.2050 C.ar  170  TYR170     -0.0009
     52  CE1       42.7210   -6.3200    6.1180 C.ar  170  TYR170      0.0417
     53  CE2       45.0070   -6.7800    6.7400 C.ar  170  TYR170      0.0417
     54  CZ        44.0500   -5.9260    6.2020 C.ar  170  TYR170      0.1957
     55  OH        44.3920   -4.6740    5.7700 O.3   170  TYR170     -0.2866
     56  N         46.6940   -6.9590    3.0900 N.3   173  GLY173     -0.1210
     57  CA        45.9990   -5.6990    3.0800 C.3   173  GLY173      0.1956
     58  C         44.5440   -5.8160    2.7130 C.2   173  GLY173      0.2612
     59  O         43.9240   -4.8120    2.3750 O.2   173  GLY173     -0.2717
     60  N         43.9600   -6.9110    2.7600 N.am  174  LYS174     -0.1965
     61  CA        42.5910   -7.2010    2.3310 C.3   174  LYS174      0.1728
     62  C         42.0140   -8.4360    2.9740 C.2   174  LYS174      0.2616
     63  O         42.7040   -9.4440    3.0710 O.2   174  LYS174     -0.2715
     64  CB        42.5950   -7.4640    0.8300 C.3   174  LYS174      0.0311
     65  CG        41.2380   -7.7090    0.1850 C.3   174  LYS174      0.0038
     66  CD        41.4580   -7.8490   -1.3300 C.3   174  LYS174      0.0206
     67  CE        40.1960   -8.2070   -2.0830 C.3   174  LYS174      0.1093
     68  NZ        39.3350   -6.9770   -1.8650 N.3   174  LYS174     -0.1314
     69  N         40.8100   -8.4860    3.4960 N.am  175  TYR175     -0.1974
     70  CA        39.9660   -9.6580    3.7400 C.3   175  TYR175      0.1639
     71  C         39.7500  -10.5330    2.4800 C.2   175  TYR175      0.2290
     72  O         39.3080  -10.0530    1.4290 O.2   175  TYR175     -0.2864
     73  CB        38.6360   -9.2840    4.4070 C.3   175  TYR175      0.0560
     74  CG        38.8460   -8.7130    5.7970 C.ar  175  TYR175     -0.0198
     75  CD1       39.1570   -9.5530    6.8760 C.ar  175  TYR175     -0.0009
     76  CD2       38.7460   -7.3280    6.0410 C.ar  175  TYR175     -0.0009
     77  CE1       39.4100   -9.0340    8.1490 C.ar  175  TYR175      0.0417
     78  CE2       38.9720   -6.7980    7.3150 C.ar  175  TYR175      0.0417
     79  CZ        39.2990   -7.6540    8.3590 C.ar  175  TYR175      0.1957
     80  OH        39.5220   -7.1420    9.6270 O.3   175  TYR175     -0.2866
     81  N         34.1460   -4.3880    7.7740 N.3   331  ASN331     -0.1225
     82  CA        32.9680   -3.6410    7.3090 C.3   331  ASN331      0.1785
     83  C         32.6340   -4.0540    5.8510 C.2   331  ASN331      0.2597
     84  O         31.8220   -3.4230    5.1290 O.2   331  ASN331     -0.2718
     85  CB        33.2200   -2.1030    7.4630 C.3   331  ASN331      0.1169
     86  CG        34.2800   -1.5580    6.4920 C.2   331  ASN331      0.2627
     87  OD1       34.8260   -2.2790    5.6810 O.2   331  ASN331     -0.2716
     88  ND2       34.5780   -0.2570    6.6000 N.am  331  ASN331     -0.0877
     89  N         33.2440   -5.1490    5.4180 N.am  332  ILE332     -0.1980
     90  CA        33.1110   -5.5790    4.0520 C.3   332  ILE332      0.1595
     91  C         31.6570   -5.9150    3.7720 C.2   332  ILE332      0.2287
     92  O         30.9270   -6.2090    4.7080 O.2   332  ILE332     -0.2864
     93  CB        34.1620   -6.6890    3.6620 C.3   332  ILE332      0.0276
     94  CG1       33.9880   -7.9890    4.4920 C.3   332  ILE332      0.0022
     95  CG2       35.5830   -6.1160    3.8490 C.3   332  ILE332      0.0022
     96  CD1       34.8260   -9.2000    3.9570 C.3   332  ILE332      0.0001
@<TRIPOS>BOND
     1    39    37   am
     2    67    68    1
     3    67    66    1
     4    37    36    1
     5    37    38    2
     6    36    33    1
     7    66    65    1
     8    35    34    2
     9    31    30    1
    10    29    30   ar
    11    29    27   ar
    12    33    34    1
    13    33    32    1
    14    34    40   am
    15    65    64    1
    16    30    28   ar
    17    27    25   ar
    18    64    61    1
    19    32    22   am
    20    23    22    2
    21    40    41    1
    22    72    71    2
    23    41    42    1
    24    28    26   ar
    25    22    21    1
    26    42    43    2
    27    25    26   ar
    28    25    24    1
    29    61    60    1
    30    61    62    1
    31    59    58    2
    32    71    70    1
    33    58    60   am
    34    58    57    1
    35    24    21    1
    36    21    20    1
    37    62    63    2
    38    62    69   am
    39    57    56    1
    40    69    70    1
    41    93    95    1
    42    93    90    1
    43    93    94    1
    44    70    73    1
    45    91    90    1
    46    91    92    2
    47    20    11   am
    48    96    94    1
    49    90    89    1
    50    73    74    1
    51    11    12    2
    52    11    10    1
    53    84    83    2
    54    14    15    1
    55    14    13    1
    56    89    83   am
    57    15    16    1
    58    87    86    2
    59    55    54    1
    60    74    76   ar
    61    74    75   ar
    62    83    82    1
    63    76    78   ar
    64    10    13    1
    65    10     9    1
    66    52    54   ar
    67    52    50   ar
    68    46    45    1
    69    46    47    2
    70    54    53   ar
    71    86    88   am
    72    86    85    1
    73    45    44    1
    74    45    48    1
    75    50    49   ar
    76    53    51   ar
    77    18    17    1
    78    75    77   ar
    79    16    17    2
    80    49    51   ar
    81    49    48    1
    82    82    85    1
    83    82    81    1
    84    78    79   ar
    85    17    19    1
    86    77    79   ar
    87    79    80    1
    88     4     3    2
    89     3     2    1
    90     7     6   ar
    91     2     5    1
    92     2     1    1
    93     6     5    1
    94     6     8   ar
