@<TRIPOS>MOLECULE
tmp/3hsvA00.pdb
 92 90 0 0 0
SMALL
GASTEIGER

@<TRIPOS>ATOM
      1  N          9.0980   25.2640   31.4600 N.3    38  ARG38      -0.1245
      2  CA         7.6500   25.3270   31.3590 C.3    38  ARG38       0.1563
      3  C          7.1030   23.9810   31.7910 C.2    38  ARG38       0.2260
      4  O          7.5990   22.9380   31.3620 O.2    38  ARG38      -0.2867
      5  CB         7.2090   25.6640   29.9370 C.3    38  ARG38       0.0307
      6  CG         7.5560   27.0750   29.5100 C.3    38  ARG38       0.0489
      7  CD         7.1620   27.3350   28.0730 C.3    38  ARG38       0.2205
      8  NE         5.7850   27.8040   27.8920 N.pl3  38  ARG38      -0.0865
      9  CZ         4.9270   27.3120   27.0010 C.cat  38  ARG38       0.5346
     10  NH1        5.2490   26.2780   26.2210 N.pl3  38  ARG38       0.1354
     11  NH2        3.7310   27.8690   26.8860 N.pl3  38  ARG38       0.1354
     12  N          0.2290   18.2580   28.7560 N.3    44  LEU44      -0.1245
     13  CA         0.2180   19.1030   27.5780 C.3    44  LEU44       0.1561
     14  C         -1.1030   18.9260   26.8450 C.2    44  LEU44       0.2260
     15  O         -1.6560   19.8920   26.3150 O.2    44  LEU44      -0.2867
     16  CB         1.3990   18.7550   26.6580 C.3    44  LEU44       0.0270
     17  CG         1.5290   19.5480   25.3580 C.3    44  LEU44       0.0019
     18  CD1        1.9320   20.9900   25.6440 C.3    44  LEU44       0.0001
     19  CD2        2.5320   18.8690   24.4480 C.3    44  LEU44       0.0001
     20  N          9.3450   21.0660   30.1160 N.3    55  TYR55      -0.1241
     21  CA        10.1650   21.4750   28.9730 C.3    55  TYR55       0.1605
     22  C         11.1700   22.5680   29.3210 C.2    55  TYR55       0.2264
     23  O         10.9140   23.4220   30.1850 O.2    55  TYR55      -0.2867
     24  CB         9.2910   21.9980   27.8310 C.3    55  TYR55       0.0534
     25  CG         8.2870   21.0000   27.3250 C.ar   55  TYR55      -0.0201
     26  CD1        8.5920   20.1640   26.2490 C.ar   55  TYR55      -0.0009
     27  CD2        7.0440   20.8530   27.9580 C.ar   55  TYR55      -0.0009
     28  CE1        7.6760   19.2100   25.7910 C.ar   55  TYR55       0.0417
     29  CE2        6.1250   19.9140   27.5130 C.ar   55  TYR55       0.0417
     30  CZ         6.4430   19.0970   26.4350 C.ar   55  TYR55       0.1957
     31  OH         5.5230   18.1670   26.0060 O.3    55  TYR55      -0.2866
     32  N         18.5120   34.6820   21.6020 N.3    61  CYS61      -0.1235
     33  CA        19.0580   34.3700   20.3020 C.3    61  CYS61       0.1677
     34  C         20.5570   34.0900   20.4190 C.2    61  CYS61       0.2270
     35  O         21.3250   34.9860   20.7650 O.2    61  CYS61      -0.2867
     36  CB        18.8220   35.5680   19.3910 C.3    61  CYS61       0.0956
     37  SG        19.3330   35.3260   17.6960 S.3    61  CYS61      -0.0801
     38  N         17.2700   26.3970   19.0160 N.3    94  VAL94      -0.1231
     39  CA        17.2950   27.7280   18.4120 C.3    94  VAL94       0.1692
     40  C         16.3870   28.6250   19.2610 C.2    94  VAL94       0.2592
     41  O         15.6530   28.1190   20.1260 O.2    94  VAL94      -0.2718
     42  CB        16.8330   27.6870   16.9350 C.3    94  VAL94       0.0266
     43  CG1       17.7650   26.7940   16.0990 C.3    94  VAL94       0.0020
     44  CG2       15.3660   27.2090   16.8170 C.3    94  VAL94       0.0020
     45  N         16.4320   29.9400   19.0360 N.am   95  GLN95      -0.1966
     46  CA        15.6030   30.8310   19.8310 C.3    95  GLN95       0.1733
     47  C         14.1440   30.3990   19.7090 C.2    95  GLN95       0.2617
     48  O         13.6500   30.1730   18.6020 O.2    95  GLN95      -0.2715
     49  CB        15.7670   32.2820   19.3950 C.3    95  GLN95       0.0408
     50  CG        14.8630   33.1980   20.1810 C.3    95  GLN95       0.0908
     51  CD        15.1260   34.6470   19.9090 C.2    95  GLN95       0.2608
     52  OE1       15.5670   35.0190   18.8280 O.2    95  GLN95      -0.2717
     53  NE2       14.8830   35.4800   20.9080 N.am   95  GLN95      -0.0878
     54  N         13.4750   30.2540   20.8490 N.am   96  GLY96      -0.1940
     55  CA        12.0570   29.9010   20.8680 C.3    96  GLY96       0.2014
     56  C         11.7470   28.4190   20.7630 C.2    96  GLY96       0.2639
     57  O         10.5790   28.0350   20.6430 O.2    96  GLY96      -0.2714
     58  N         12.7810   27.5770   20.7900 N.am   97  LYS97      -0.1963
     59  CA        12.5780   26.1310   20.7230 C.3    97  LYS97       0.1728
     60  C         12.6180   25.5290   22.1100 C.2    97  LYS97       0.2616
     61  O         13.5000   25.8610   22.9080 O.2    97  LYS97      -0.2715
     62  CB        13.6580   25.4650   19.8660 C.3    97  LYS97       0.0311
     63  CG        13.5130   23.9550   19.6810 C.3    97  LYS97       0.0038
     64  CD        12.2360   23.6260   18.9420 C.3    97  LYS97       0.0206
     65  CE        12.1820   22.1680   18.5580 C.3    97  LYS97       0.1093
     66  NZ        10.8470   21.8500   17.9790 N.3    97  LYS97      -0.1314
     67  N         11.6570   24.6540   22.3870 N.am   98  ASP98      -0.1957
     68  CA        11.7140   23.8700   23.6130 C.3    98  ASP98       0.1840
     69  C         11.8960   22.3860   23.3440 C.2    98  ASP98       0.2622
     70  O         11.6110   21.8810   22.2470 O.2    98  ASP98      -0.2715
     71  CB        10.5250   24.1490   24.5480 C.3    98  ASP98       0.1450
     72  CG         9.2120   23.5760   24.0480 C.2    98  ASP98       0.3671
     73  OD1        9.1770   22.6260   23.2310 O.co2  98  ASP98      -0.2456
     74  OD2        8.1780   24.0820   24.5180 O.co2  98  ASP98      -0.2456
     75  N         12.4520   21.7080   24.3380 N.am   99  TRP99      -0.1960
     76  CA        12.5880   20.2650   24.3220 C.3    99  TRP99       0.1771
     77  C         12.3580   19.7980   25.7460 C.2    99  TRP99       0.2620
     78  O         12.7120   20.4890   26.7110 O.2    99  TRP99      -0.2715
     79  CB        13.9870   19.8400   23.8740 C.3    99  TRP99       0.0590
     80  CG        14.2860   20.0410   22.4300 C.ar   99  TRP99       0.0006
     81  CD1       15.1210   20.9890   21.8820 C.ar   99  TRP99       0.0946
     82  CD2       13.8040   19.2550   21.3390 C.ar   99  TRP99       0.0152
     83  NE1       15.1730   20.8430   20.5170 N.ar   99  TRP99      -0.2442
     84  CE2       14.3700   19.7890   20.1550 C.ar   99  TRP99       0.0810
     85  CE3       12.9370   18.1550   21.2410 C.ar   99  TRP99       0.0012
     86  CZ2       14.0970   19.2560   18.8930 C.ar   99  TRP99       0.0191
     87  CZ3       12.6630   17.6330   19.9880 C.ar   99  TRP99       0.0001
     88  CH2       13.2360   18.1880   18.8300 C.ar   99  TRP99       0.0015
     89  N         11.7620   18.6240   25.8840 N.am  100  GLY100     -0.1954
     90  CA        11.4830   18.1150   27.2080 C.3   100  GLY100      0.1869
     91  C         10.7580   16.8060   27.1450 C.2   100  GLY100      0.2309
     92  O         10.9660   16.0260   26.2240 O.2   100  GLY100     -0.2863
@<TRIPOS>BOND
     1    43    42    1
     2    44    42    1
     3    42    39    1
     4    37    36    1
     5    66    65    1
     6    39    38    1
     7    39    40    1
     8    65    64    1
     9    48    47    2
    10    52    51    2
    11    88    86   ar
    12    88    87   ar
    13    86    84   ar
    14    64    63    1
    15    45    40   am
    16    45    46    1
    17    40    41    2
    18    36    33    1
    19    49    46    1
    20    49    50    1
    21    63    62    1
    22    47    46    1
    23    47    54   am
    24    62    59    1
    25    51    50    1
    26    51    53   am
    27    87    85   ar
    28    84    83   ar
    29    84    82   ar
    30    33    34    1
    31    33    32    1
    32    34    35    2
    33    83    81   ar
    34    57    56    2
    35    59    58    1
    36    59    60    1
    37    56    58   am
    38    56    55    1
    39    54    55    1
    40    85    82   ar
    41    82    80   ar
    42    81    80   ar
    43    60    67   am
    44    60    61    2
    45    70    69    2
    46    67    68    1
    47    80    79    1
    48    73    72   ar
    49    69    68    1
    50    69    75   am
    51    68    71    1
    52    79    76    1
    53    72    74   ar
    54    72    71    1
    55    76    75    1
    56    76    77    1
    57    19    17    1
    58    17    18    1
    59    17    16    1
    60    77    89   am
    61    77    78    2
    62    28    26   ar
    63    28    30   ar
    64    89    90    1
    65    31    30    1
    66    10     9    1
    67    92    91    2
    68    26    25   ar
    69    15    14    2
    70    30    29   ar
    71    16    13    1
    72    14    13    1
    73    11     9    1
    74     9     8    2
    75    91    90    1
    76    25    24    1
    77    25    27   ar
    78    29    27   ar
    79    13    12    1
    80    24    21    1
    81     8     7    1
    82     7     6    1
    83    21    22    1
    84    21    20    1
    85    22    23    2
    86     6     5    1
    87     5     2    1
    88     2     1    1
    89     2     3    1
    90     4     3    2
