@<TRIPOS>MOLECULE
tmp/3hsvB00.pdb
 141 141 0 0 0
SMALL
GASTEIGER

@<TRIPOS>ATOM
      1  N         23.4970   36.6980    9.5910 N.3    44  LEU44      -0.1245
      2  CA        23.5070   37.5110   10.7950 C.3    44  LEU44       0.1561
      3  C         24.7390   37.2190   11.6630 C.2    44  LEU44       0.2260
      4  O         25.2950   38.1410   12.2590 O.2    44  LEU44      -0.2867
      5  CB        22.2130   37.2800   11.6010 C.3    44  LEU44       0.0270
      6  CG        22.0580   38.0280   12.9330 C.3    44  LEU44       0.0019
      7  CD1       21.8780   39.5180   12.6660 C.3    44  LEU44       0.0001
      8  CD2       20.8940   37.4820   13.7710 C.3    44  LEU44       0.0001
      9  N         14.4850   39.7010    7.9420 N.3    55  TYR55      -0.1241
     10  CA        13.7440   40.2230    9.0880 C.3    55  TYR55       0.1605
     11  C         12.6980   41.2470    8.7160 C.2    55  TYR55       0.2264
     12  O         12.8380   42.0000    7.7450 O.2    55  TYR55      -0.2867
     13  CB        14.7070   40.8560   10.1210 C.3    55  TYR55       0.0534
     14  CG        15.6330   39.8380   10.6850 C.ar   55  TYR55      -0.0201
     15  CD1       15.2460   39.0820   11.7810 C.ar   55  TYR55      -0.0009
     16  CD2       16.8510   39.5570   10.0720 C.ar   55  TYR55      -0.0009
     17  CE1       16.0600   38.0660   12.2750 C.ar   55  TYR55       0.0417
     18  CE2       17.6740   38.5610   10.5580 C.ar   55  TYR55       0.0417
     19  CZ        17.2690   37.8260   11.6530 C.ar   55  TYR55       0.1957
     20  OH        18.0710   36.8240   12.1290 O.3    55  TYR55      -0.2866
     21  N          3.7780   36.8460   10.2530 N.3    70  PHE70      -0.1241
     22  CA         4.4390   37.2420    9.0200 C.3    70  PHE70       0.1605
     23  C          4.8790   36.0440    8.1990 C.2    70  PHE70       0.2264
     24  O          5.1520   34.9770    8.7370 O.2    70  PHE70      -0.2867
     25  CB         5.6260   38.1950    9.2950 C.3    70  PHE70       0.0534
     26  CG         6.6150   37.6670   10.3040 C.ar   70  PHE70      -0.0203
     27  CD1        6.4290   37.8970   11.6650 C.ar   70  PHE70      -0.0042
     28  CD2        7.7180   36.9130    9.8930 C.ar   70  PHE70      -0.0042
     29  CE1        7.3260   37.4030   12.5980 C.ar   70  PHE70      -0.0003
     30  CE2        8.6150   36.4050   10.8270 C.ar   70  PHE70      -0.0003
     31  CZ         8.4200   36.6430   12.1700 C.ar   70  PHE70      -0.0000
     32  N          8.7260   30.9870    4.2250 N.3    85  MET85      -0.1230
     33  CA         8.9290   30.7030    5.6260 C.3    85  MET85       0.1702
     34  C          7.9940   31.6100    6.4120 C.2    85  MET85       0.2592
     35  O          7.9040   32.8120    6.1470 O.2    85  MET85      -0.2718
     36  CB        10.3870   30.9410    5.9970 C.3    85  MET85       0.0401
     37  CG        10.8610   30.2670    7.2490 C.3    85  MET85       0.0596
     38  SD        12.6750   30.2790    7.3570 S.3    85  MET85      -0.1393
     39  CE        13.1320   28.9260    6.3040 C.3    85  MET85       0.0692
     40  N          7.2630   31.0260    7.3530 N.am   86  GLU86      -0.1966
     41  CA         6.2470   31.7920    8.0700 C.3    86  GLU86       0.1733
     42  C          6.3660   31.6530    9.5700 C.2    86  GLU86       0.2617
     43  O          6.8360   30.6360   10.0820 O.2    86  GLU86      -0.2715
     44  CB         4.8410   31.4380    7.5940 C.3    86  GLU86       0.0429
     45  CG         4.3560   30.0730    7.9870 C.3    86  GLU86       0.1163
     46  CD         3.0780   29.6800    7.2630 C.2    86  GLU86       0.3649
     47  OE1        2.7090   28.4880    7.3160 O.co2  86  GLU86      -0.2457
     48  OE2        2.4510   30.5630    6.6420 O.co2  86  GLU86      -0.2457
     49  N          5.9200   32.6890   10.2690 N.am   87  SER87      -0.1936
     50  CA         6.0320   32.7520   11.7170 C.3    87  SER87       0.2055
     51  C          5.1070   31.7590   12.4110 C.2    87  SER87       0.2643
     52  O          5.3710   31.3390   13.5350 O.2    87  SER87      -0.2714
     53  CB         5.7470   34.1740   12.2050 C.3    87  SER87       0.2130
     54  OG         4.3890   34.5290   12.0070 O.3    87  SER87      -0.2179
     55  N          4.0270   31.3720   11.7450 N.am   88  GLN88      -0.1963
     56  CA         3.0530   30.4840   12.3680 C.3    88  GLN88       0.1733
     57  C          2.2210   31.2180   13.4220 C.2    88  GLN88       0.2616
     58  O          1.0110   31.3730   13.2430 O.2    88  GLN88      -0.2715
     59  CB         3.7390   29.2680   12.9710 C.3    88  GLN88       0.0408
     60  CG         4.2780   28.3300   11.9110 C.3    88  GLN88       0.0908
     61  CD         3.1860   27.7410   11.0190 C.2    88  GLN88       0.2608
     62  OE1        1.9910   27.7920   11.3240 O.2    88  GLN88      -0.2717
     63  NE2        3.6040   27.1740    9.9080 N.am   88  GLN88      -0.0878
     64  N          2.8470   31.6630   14.5150 N.am   89  ARG89      -0.1977
     65  CA         2.0940   32.4030   15.5300 C.3    89  ARG89       0.1597
     66  C          2.4540   33.8870   15.4150 C.2    89  ARG89       0.2287
     67  O          3.4020   34.2530   14.7140 O.2    89  ARG89      -0.2864
     68  CB         2.4020   31.8950   16.9440 C.3    89  ARG89       0.0334
     69  CG         3.8570   32.0780   17.3620 C.3    89  ARG89       0.0492
     70  CD         4.0830   31.5270   18.7480 C.3    89  ARG89       0.2205
     71  NE         5.4790   31.6250   19.1790 N.pl3  89  ARG89      -0.0865
     72  CZ         6.0510   32.7220   19.6730 C.cat  89  ARG89       0.5346
     73  NH1        5.3690   33.8580   19.7860 N.pl3  89  ARG89       0.1354
     74  NH2        7.3240   32.6870   20.0470 N.pl3  89  ARG89       0.1354
     75  N          4.0280   37.3340   16.7590 N.3    91  TYR91      -0.1241
     76  CA         5.1210   37.7830   17.5900 C.3    91  TYR91       0.1605
     77  C          4.8690   39.2050   18.0660 C.2    91  TYR91       0.2264
     78  O          4.1650   39.9970   17.4110 O.2    91  TYR91      -0.2867
     79  CB         6.4370   37.7040   16.8120 C.3    91  TYR91       0.0534
     80  CG         6.9550   36.2870   16.7280 C.ar   91  TYR91      -0.0201
     81  CD1        7.9670   35.8490   17.5790 C.ar   91  TYR91      -0.0009
     82  CD2        6.4180   35.3640   15.8210 C.ar   91  TYR91      -0.0009
     83  CE1        8.4390   34.5360   17.5160 C.ar   91  TYR91       0.0417
     84  CE2        6.8670   34.0560   15.7710 C.ar   91  TYR91       0.0417
     85  CZ         7.8760   33.6450   16.6210 C.ar   91  TYR91       0.1957
     86  OH         8.3640   32.3500   16.5640 O.3    91  TYR91      -0.2866
     87  N         12.0430   46.7820   17.0890 N.3    97  LYS97      -0.1231
     88  CA        12.1570   45.3230   17.2330 C.3    97  LYS97       0.1693
     89  C         12.0640   44.6660   15.8850 C.2    97  LYS97       0.2592
     90  O         11.1780   44.9950   15.0910 O.2    97  LYS97      -0.2718
     91  CB        11.0270   44.7640   18.1190 C.3    97  LYS97       0.0285
     92  CG        11.0340   43.2380   18.3490 C.3    97  LYS97       0.0035
     93  CD        12.0930   42.8210   19.3600 C.3    97  LYS97       0.0206
     94  CE        12.1590   41.3020   19.5040 C.3    97  LYS97       0.1093
     95  NZ        13.3160   40.8190   20.3120 N.3    97  LYS97      -0.1314
     96  N         13.0430   43.7030   15.6390 N.am   98  ASP98      -0.1960
     97  CA        12.8480   42.8520   14.4770 C.3    98  ASP98       0.1840
     98  C         12.6200   41.3870   14.8350 C.2    98  ASP98       0.2622
     99  O         13.0190   40.9100   15.8990 O.2    98  ASP98      -0.2715
    100  CB        13.9200   43.0380   13.3950 C.3    98  ASP98       0.1450
    101  CG        15.2870   42.6310   13.8320 C.2    98  ASP98       0.3671
    102  OD1       15.4880   42.2200   14.9970 O.co2  98  ASP98      -0.2456
    103  OD2       16.2010   42.7540   12.9810 O.co2  98  ASP98      -0.2456
    104  N         11.8240   40.7060   13.9400 N.am   99  TRP99      -0.1960
    105  CA        11.6610   39.2660   14.0150 C.3    99  TRP99       0.1771
    106  C         11.8180   38.7070   12.6210 C.2    99  TRP99       0.2620
    107  O         11.4100   39.3360   11.6390 O.2    99  TRP99      -0.2715
    108  CB        10.2740   38.8860   14.5290 C.3    99  TRP99       0.0590
    109  CG        10.0540   39.0720   15.9990 C.ar   99  TRP99       0.0006
    110  CD1        9.3260   40.0660   16.5960 C.ar   99  TRP99       0.0946
    111  CD2       10.5260   38.2260   17.0570 C.ar   99  TRP99       0.0152
    112  NE1        9.3120   39.8900   17.9610 N.ar   99  TRP99      -0.2442
    113  CE2       10.0490   38.7720   18.2710 C.ar   99  TRP99       0.0810
    114  CE3       11.3190   37.0620   17.0980 C.ar   99  TRP99       0.0012
    115  CZ2       10.3280   38.1880   19.5130 C.ar   99  TRP99       0.0191
    116  CZ3       11.5990   36.4880   18.3350 C.ar   99  TRP99       0.0001
    117  CH2       11.1000   37.0500   19.5230 C.ar   99  TRP99       0.0015
    118  N         12.3770   37.5060   12.5220 N.am  100  GLY100     -0.1940
    119  CA        12.5700   36.9130   11.2120 C.3   100  GLY100      0.2014
    120  C         13.2790   35.5890   11.3000 C.2   100  GLY100      0.2639
    121  O         13.1340   34.8580   12.2870 O.2   100  GLY100     -0.2714
    122  N         14.0580   35.2850   10.2630 N.am  101  PHE101     -0.1959
    123  CA        14.7150   33.9860   10.1550 C.3   101  PHE101      0.1771
    124  C         16.1460   34.1670    9.7660 C.2   101  PHE101      0.2619
    125  O         16.4470   34.5840    8.6360 O.2   101  PHE101     -0.2715
    126  CB        13.9910   33.0950    9.1370 C.3   101  PHE101      0.0574
    127  CG        12.5370   32.9300    9.4430 C.ar  101  PHE101     -0.0200
    128  CD1       12.1170   32.1160   10.4930 C.ar  101  PHE101     -0.0042
    129  CD2       11.5840   33.6450    8.7230 C.ar  101  PHE101     -0.0042
    130  CE1       10.7520   31.9800   10.7860 C.ar  101  PHE101     -0.0003
    131  CE2       10.2260   33.5210    9.0140 C.ar  101  PHE101     -0.0003
    132  CZ         9.8190   32.6920   10.0430 C.ar  101  PHE101     -0.0000
    133  N         17.0410   33.8340   10.6890 N.am  102  LYS102     -0.1977
    134  CA        18.4560   33.9920   10.3840 C.3   102  LYS102      0.1596
    135  C         18.9000   32.9990    9.3230 C.2   102  LYS102      0.2287
    136  O         19.8430   33.2780    8.5800 O.2   102  LYS102     -0.2864
    137  CB        19.3370   33.9230   11.6420 C.3   102  LYS102      0.0298
    138  CG        19.3790   32.5630   12.3080 C.3   102  LYS102      0.0038
    139  CD        20.4060   32.4510   13.4220 C.3   102  LYS102      0.0206
    140  CE        20.0510   33.3290   14.6010 C.3   102  LYS102      0.1093
    141  NZ        21.1550   33.2480   15.6250 N.3   102  LYS102     -0.1314
@<TRIPOS>BOND
     1    32    33    1
     2    33    36    1
     3    33    34    1
     4    36    37    1
     5    35    34    2
     6    39    38    1
     7    34    40   am
     8    48    46   ar
     9    37    38    1
    10    46    47   ar
    11    46    45    1
    12    40    41    1
    13    44    45    1
    14    44    41    1
    15    12    11    2
    16     9    10    1
    17    41    42    1
    18    23    24    2
    19    23    22    1
    20   136   135    2
    21   125   124    2
    22    11    10    1
    23   129   131   ar
    24   129   127   ar
    25   131   132   ar
    26    22    25    1
    27    22    21    1
    28    10    13    1
    29   126   127    1
    30   126   123    1
    31    25    26    1
    32   135   134    1
    33   127   128   ar
    34    42    43    2
    35    42    49   am
    36     1     2    1
    37   124   123    1
    38   124   133   am
    39    28    26   ar
    40    28    30   ar
    41    63    61   am
    42   132   130   ar
    43    16    18   ar
    44    16    14   ar
    45    13    14    1
    46   123   122    1
    47   122   120   am
    48    49    50    1
    49    26    27   ar
    50   134   133    1
    51   134   137    1
    52   128   130   ar
    53    18    19   ar
    54    14    15   ar
    55     2     5    1
    56     2     3    1
    57    30    31   ar
    58    61    62    2
    59    61    60    1
    60   119   120    1
    61   119   118    1
    62   120   121    2
    63     5     6    1
    64   107   106    2
    65   137   138    1
    66    19    20    1
    67    19    17   ar
    68     3     4    2
    69    27    29   ar
    70    50    53    1
    71    50    51    1
    72    55    56    1
    73    55    51   am
    74    15    17   ar
    75    60    59    1
    76    54    53    1
    77    31    29   ar
    78   138   139    1
    79    56    59    1
    80    56    57    1
    81    51    52    2
    82   118   106   am
    83   106   105    1
    84     7     6    1
    85     6     8    1
    86   103   101   ar
    87    58    57    2
    88   100   101    1
    89   100    97    1
    90    57    64   am
    91   139   140    1
    92   101   102   ar
    93   104   105    1
    94   104    98   am
    95   105   108    1
    96    97    98    1
    97    97    96    1
    98    64    65    1
    99   108   109    1
   100   140   141    1
   101    67    66    2
   102    98    99    2
   103    90    89    2
   104    66    65    1
   105    65    68    1
   106    96    89   am
   107    84    82   ar
   108    84    85   ar
   109    82    80   ar
   110    89    88    1
   111   109   110   ar
   112   109   111   ar
   113    86    85    1
   114   110   112   ar
   115    85    83   ar
   116    80    79    1
   117    80    81   ar
   118    75    76    1
   119    79    76    1
   120    68    69    1
   121   111   114   ar
   122   111   113   ar
   123    87    88    1
   124   114   116   ar
   125    88    91    1
   126    69    70    1
   127    78    77    2
   128    83    81   ar
   129    76    77    1
   130   112   113   ar
   131    91    92    1
   132   113   115   ar
   133   116   117   ar
   134    92    93    1
   135    70    71    1
   136    71    72    2
   137    93    94    1
   138    94    95    1
   139   115   117   ar
   140    72    73    1
   141    72    74    1
