@<TRIPOS>MOLECULE
tmp/3hswA00.pdb
 129 126 0 0 0
SMALL
GASTEIGER

@<TRIPOS>ATOM
      1  N        -34.6560   10.1000  -10.8240 N.3     2  LEU2       -0.1245
      2  CA       -35.3080   11.3980  -10.7520 C.3     2  LEU2        0.1561
      3  C        -36.8360   11.3290  -10.9200 C.2     2  LEU2        0.2260
      4  O        -37.5880   11.6680   -9.9920 O.2     2  LEU2       -0.2867
      5  CB       -34.6820   12.3270  -11.7700 C.3     2  LEU2        0.0270
      6  CG       -34.9090   13.8340  -11.6150 C.3     2  LEU2        0.0019
      7  CD1      -34.3530   14.3770  -10.2920 C.3     2  LEU2        0.0001
      8  CD2      -34.3770   14.6140  -12.8500 C.3     2  LEU2        0.0001
      9  N        -38.8740    9.8550   -8.0690 N.3     5  PHE5       -0.1227
     10  CA       -38.8910   10.7230   -6.8820 C.3     5  PHE5        0.1736
     11  C        -39.9750   11.7790   -7.0500 C.2     5  PHE5        0.2595
     12  O        -40.7790   12.0190   -6.1470 O.2     5  PHE5       -0.2718
     13  CB       -37.5170   11.4100   -6.7630 C.3     5  PHE5        0.0547
     14  CG       -37.3410   12.2750   -5.5150 C.ar    5  PHE5       -0.0202
     15  CD1      -37.9300   11.9260   -4.2890 C.ar    5  PHE5       -0.0042
     16  CD2      -36.5160   13.4080   -5.5580 C.ar    5  PHE5       -0.0042
     17  CE1      -37.7360   12.7070   -3.1740 C.ar    5  PHE5       -0.0003
     18  CE2      -36.3220   14.2090   -4.4220 C.ar    5  PHE5       -0.0003
     19  CZ       -36.9250   13.8650   -3.2490 C.ar    5  PHE5       -0.0000
     20  N        -40.0010   12.4040   -8.2270 N.am    6  ARG6       -0.1980
     21  CA       -41.0830   13.3470   -8.5430 C.3     6  ARG6        0.1597
     22  C        -42.3780   12.6550   -8.2850 C.2     6  ARG6        0.2287
     23  O        -43.2220   13.2060   -7.6250 O.2     6  ARG6       -0.2864
     24  CB       -41.0860   13.8110   -9.9800 C.3     6  ARG6        0.0334
     25  CG       -40.2800   15.0510  -10.2620 C.3     6  ARG6        0.0492
     26  CD       -40.3700   15.4100  -11.7710 C.3     6  ARG6        0.2205
     27  NE       -39.1770   14.9850  -12.5270 N.pl3   6  ARG6       -0.0865
     28  CZ       -39.2010   14.1990  -13.6100 C.cat   6  ARG6        0.5346
     29  NH1      -40.3770   13.7690  -14.0820 N.pl3   6  ARG6        0.1354
     30  NH2      -38.0560   13.8460  -14.2310 N.pl3   6  ARG6        0.1354
     31  N        -43.2240   12.1200   -4.4400 N.3     9  ILE9       -0.1245
     32  CA       -43.7180   13.3390   -3.8470 C.3     9  ILE9        0.1561
     33  C        -45.2040   13.5040   -4.1350 C.2     9  ILE9        0.2260
     34  O        -45.9690   13.7730   -3.2110 O.2     9  ILE9       -0.2867
     35  CB       -42.9160   14.5710   -4.3240 C.3     9  ILE9        0.0252
     36  CG1      -41.4300   14.4100   -3.9710 C.3     9  ILE9        0.0019
     37  CG2      -43.4180   15.8120   -3.6350 C.3     9  ILE9        0.0019
     38  CD1      -40.5030   15.2110   -4.8330 C.3     9  ILE9        0.0001
     39  N        -44.3100   18.7770   -7.9010 N.3    18  PRO18      -0.2102
     40  CA       -42.9560   18.7150   -7.3570 C.3    18  PRO18       0.1504
     41  C        -41.9250   19.6530   -8.0320 C.2    18  PRO18       0.2575
     42  O        -41.2600   20.4330   -7.3290 O.2    18  PRO18      -0.2718
     43  CB       -42.5750   17.2340   -7.5540 C.3    18  PRO18       0.0282
     44  CG       -43.8520   16.5310   -7.5600 C.3    18  PRO18       0.0208
     45  CD       -44.7530   17.4410   -8.3400 C.3    18  PRO18       0.0893
     46  N        -41.7070   19.5330   -9.2960 N.am   19  LEU19      -0.1980
     47  CA       -40.7430   20.2970  -10.1020 C.3    19  LEU19       0.1596
     48  C        -40.8500   21.7870   -9.7090 C.2    19  LEU19       0.2287
     49  O        -39.8270   22.4560   -9.4660 O.2    19  LEU19      -0.2864
     50  CB       -40.9950   20.0960  -11.6170 C.3    19  LEU19       0.0297
     51  CG       -41.5520   18.8150  -12.3780 C.3    19  LEU19       0.0022
     52  CD1      -42.5130   17.8300  -11.5960 C.3    19  LEU19       0.0001
     53  CD2      -42.1900   19.1440  -13.7960 C.3    19  LEU19       0.0001
     54  N        -40.8140   22.1320   -5.1380 N.3    22  PHE22      -0.1227
     55  CA       -39.5880   21.8010   -4.4180 C.3    22  PHE22       0.1736
     56  C        -38.2940   21.9820   -5.1750 C.2    22  PHE22       0.2595
     57  O        -37.2770   21.5700   -4.6840 O.2    22  PHE22      -0.2718
     58  CB       -39.6580   20.3780   -3.8440 C.3    22  PHE22       0.0547
     59  CG       -40.9100   20.1110   -3.1300 C.ar   22  PHE22      -0.0202
     60  CD1      -41.1310   20.6730   -1.8810 C.ar   22  PHE22      -0.0042
     61  CD2      -41.9220   19.3710   -3.7340 C.ar   22  PHE22      -0.0042
     62  CE1      -42.3570   20.4740   -1.2140 C.ar   22  PHE22      -0.0003
     63  CE2      -43.1520   19.1560   -3.0820 C.ar   22  PHE22      -0.0003
     64  CZ       -43.3710   19.7010   -1.8180 C.ar   22  PHE22      -0.0000
     65  N        -38.3050   22.5980   -6.3490 N.am   23  ASN23      -0.1974
     66  CA       -37.0510   22.9000   -7.0310 C.3    23  ASN23       0.1688
     67  C        -36.7670   24.3730   -6.7860 C.2    23  ASN23       0.2292
     68  O        -37.6710   25.2280   -6.8290 O.2    23  ASN23      -0.2864
     69  CB       -37.0920   22.5310   -8.5330 C.3    23  ASN23       0.1181
     70  CG       -35.6850   22.3910   -9.1770 C.2    23  ASN23       0.2629
     71  OD1      -34.8260   21.6450   -8.6990 O.2    23  ASN23      -0.2716
     72  ND2      -35.4700   23.0960  -10.2810 N.am   23  ASN23      -0.0877
     73  N        -32.8890   22.5530   -1.7230 N.3    29  CYS29      -0.1221
     74  CA       -33.8970   21.9370   -2.5770 C.3    29  CYS29       0.1808
     75  C        -33.5890   22.3180   -4.0330 C.2    29  CYS29       0.2602
     76  O        -34.1420   23.2820   -4.5490 O.2    29  CYS29      -0.2717
     77  CB       -35.3010   22.4030   -2.2290 C.3    29  CYS29       0.0970
     78  SG       -35.8380   21.8200   -0.6360 S.3    29  CYS29      -0.0800
     79  N        -32.7550   21.5560   -4.7200 N.am   30  GLY30      -0.1942
     80  CA       -32.3600   21.9750   -6.0690 C.3    30  GLY30       0.2014
     81  C        -30.9230   21.5720   -6.2640 C.2    30  GLY30       0.2638
     82  O        -30.3080   20.9800   -5.3440 O.2    30  GLY30      -0.2714
     83  N        -30.3630   21.8520   -7.4410 N.am   31  LEU31      -0.1977
     84  CA       -29.0050   21.3360   -7.7430 C.3    31  LEU31       0.1596
     85  C        -27.9930   21.8260   -6.6910 C.2    31  LEU31       0.2287
     86  O        -27.9440   23.0330   -6.4030 O.2    31  LEU31      -0.2864
     87  CB       -28.5080   21.7090   -9.1530 C.3    31  LEU31       0.0297
     88  CG       -27.1010   21.1350   -9.4500 C.3    31  LEU31       0.0022
     89  CD1      -27.0580   19.5890   -9.4640 C.3    31  LEU31       0.0001
     90  CD2      -26.4880   21.7010  -10.7290 C.3    31  LEU31       0.0001
     91  N        -34.2880   18.3730    2.2320 N.3    45  CYS45      -0.1235
     92  CA       -33.5290   18.3970    0.9650 C.3    45  CYS45       0.1677
     93  C        -32.0470   18.2170    1.2120 C.2    45  CYS45       0.2270
     94  O        -31.3730   17.5670    0.4140 O.2    45  CYS45      -0.2867
     95  CB       -33.7180   19.7230    0.2330 C.3    45  CYS45       0.0956
     96  SG       -35.3130   19.8390   -0.5840 S.3    45  CYS45      -0.0801
     97  N        -31.4450   14.6330    1.8920 N.3    48  HIS48      -0.1241
     98  CA       -31.5640   13.8880    0.6380 C.3    48  HIS48       0.1621
     99  C        -30.2420   14.0480   -0.1160 C.2    48  HIS48       0.2264
    100  O        -29.6320   13.0540   -0.5830 O.2    48  HIS48      -0.2867
    101  CB       -32.7610   14.4260   -0.1500 C.3    48  HIS48       0.0745
    102  CG       -33.1220   13.6290   -1.3730 C.ar   48  HIS48       0.0817
    103  ND1      -33.0350   14.1500   -2.6550 N.ar   48  HIS48      -0.2268
    104  CD2      -33.6280   12.3750   -1.5100 C.ar   48  HIS48       0.1154
    105  CE1      -33.4200   13.2330   -3.5250 C.ar   48  HIS48       0.1986
    106  NE2      -33.7810   12.1460   -2.8610 N.ar   48  HIS48      -0.2212
    107  N        -29.3660    9.4620   -9.3350 N.3    69  TYR69      -0.1241
    108  CA       -30.6590    9.8370   -9.9410 C.3    69  TYR69       0.1605
    109  C        -31.0160    9.0670  -11.1860 C.2    69  TYR69       0.2264
    110  O        -32.1790    9.0660  -11.6770 O.2    69  TYR69      -0.2867
    111  CB       -30.6480   11.2910  -10.3650 C.3    69  TYR69       0.0534
    112  CG       -31.2460   12.1940   -9.3510 C.ar   69  TYR69      -0.0201
    113  CD1      -30.4890   13.2310   -8.8200 C.ar   69  TYR69      -0.0009
    114  CD2      -32.5640   11.9920   -8.8690 C.ar   69  TYR69      -0.0009
    115  CE1      -31.0210   14.0820   -7.8630 C.ar   69  TYR69       0.0417
    116  CE2      -33.1140   12.8400   -7.8930 C.ar   69  TYR69       0.0417
    117  CZ       -32.3210   13.9000   -7.4100 C.ar   69  TYR69       0.1957
    118  OH       -32.7720   14.7860   -6.4430 O.3    69  TYR69      -0.2866
    119  N        -40.9530   15.8610    3.1240 N.3   106  PHE106     -0.1241
    120  CA       -41.6540   17.0070    2.5440 C.3   106  PHE106      0.1605
    121  C        -43.1110   17.0240    2.9990 C.2   106  PHE106      0.2264
    122  O        -43.6260   18.0910    3.3100 O.2   106  PHE106     -0.2867
    123  CB       -41.6460   16.9900    1.0250 C.3   106  PHE106      0.0534
    124  CG       -40.2840   17.0580    0.3860 C.ar  106  PHE106     -0.0203
    125  CD1      -39.1160   17.2040    1.1250 C.ar  106  PHE106     -0.0042
    126  CD2      -40.1900   16.9700   -1.0100 C.ar  106  PHE106     -0.0042
    127  CE1      -37.8800   17.2400    0.4770 C.ar  106  PHE106     -0.0003
    128  CE2      -38.9720   17.0280   -1.6700 C.ar  106  PHE106     -0.0003
    129  CZ       -37.8060   17.1800   -0.9400 C.ar  106  PHE106     -0.0000
@<TRIPOS>BOND
     1    30    28    1
     2    29    28    1
     3    53    51    1
     4    28    27    2
     5     8     6    1
     6    27    26    1
     7    51    50    1
     8    51    52    1
     9    26    25    1
    10     5     6    1
    11     5     2    1
    12   110   109    2
    13    50    47    1
    14     6     7    1
    15   109   108    1
    16     3     2    1
    17     3     4    2
    18     1     2    1
    19    90    88    1
    20   111   108    1
    21   111   112    1
    22    72    70   am
    23    25    24    1
    24    47    48    1
    25    47    46    1
    26    24    21    1
    27   108   107    1
    28    48    49    2
    29    89    88    1
    30    88    87    1
    31   112   114   ar
    32   112   113   ar
    33    46    41   am
    34    70    71    2
    35    70    69    1
    36    87    84    1
    37   114   116   ar
    38   113   115   ar
    39    21    22    1
    40    21    20    1
    41    69    66    1
    42    45    39    1
    43    45    44    1
    44    22    23    2
    45    20    11   am
    46     9    10    1
    47    41    40    1
    48    41    42    2
    49    39    40    1
    50   116   117   ar
    51   115   117   ar
    52    84    83    1
    53    84    85    1
    54    44    43    1
    55    43    40    1
    56    83    81   am
    57   117   118    1
    58    11    10    1
    59    11    12    2
    60    66    67    1
    61    66    65    1
    62    10    13    1
    63    68    67    2
    64    13    14    1
    65    85    86    2
    66    65    56   am
    67    81    80    1
    68    81    82    2
    69    80    79    1
    70    16    14   ar
    71    16    18   ar
    72    14    15   ar
    73    56    57    2
    74    56    55    1
    75    54    55    1
    76    38    36    1
    77    79    75   am
    78    76    75    2
    79    31    32    1
    80    18    19   ar
    81    55    58    1
    82    35    36    1
    83    35    32    1
    84    35    37    1
    85    15    17   ar
    86    33    32    1
    87    33    34    2
    88    75    74    1
    89    58    59    1
    90    61    59   ar
    91    61    63   ar
    92   105   106   ar
    93   105   103   ar
    94    19    17   ar
    95    59    60   ar
    96    63    64   ar
    97   106   104   ar
    98   103   102   ar
    99    74    77    1
   100    74    73    1
   101    77    78    1
   102    60    62   ar
   103    64    62   ar
   104   128   126   ar
   105   128   129   ar
   106   104   102   ar
   107   102   101    1
   108   126   124   ar
   109   129   127   ar
   110    78    96    1
   111    96    95    1
   112   100    99    2
   113   101    98    1
   114    99    98    1
   115    95    92    1
   116   124   123    1
   117   124   125   ar
   118    94    93    2
   119   127   125   ar
   120    98    97    1
   121    92    93    1
   122    92    91    1
   123   123   120    1
   124   120   121    1
   125   120   119    1
   126   121   122    2
