@<TRIPOS>MOLECULE
tmp/3hsyA01.pdb
 100 99 0 0 0
SMALL
GASTEIGER

@<TRIPOS>ATOM
      1  N         13.5570  -31.5280  -21.8330 N.3   119  TYR119     -0.1241
      2  CA        13.6630  -31.6410  -23.2840 C.3   119  TYR119      0.1605
      3  C         15.1070  -31.9040  -23.6970 C.2   119  TYR119      0.2264
      4  O         15.4110  -32.0500  -24.8820 O.2   119  TYR119     -0.2867
      5  CB        13.1680  -30.3580  -23.9520 C.3   119  TYR119      0.0534
      6  CG        11.6590  -30.1810  -23.9270 C.ar  119  TYR119     -0.0201
      7  CD1       10.8070  -31.2430  -24.2120 C.ar  119  TYR119     -0.0009
      8  CD2       11.0880  -28.9490  -23.6300 C.ar  119  TYR119     -0.0009
      9  CE1        9.4220  -31.0830  -24.2000 C.ar  119  TYR119      0.0417
     10  CE2        9.6980  -28.7780  -23.6220 C.ar  119  TYR119      0.0417
     11  CZ         8.8740  -29.8430  -23.9060 C.ar  119  TYR119      0.1957
     12  OH         7.4950  -29.6830  -23.8910 O.3   119  TYR119     -0.2866
     13  N         17.6020  -29.8770  -23.7910 N.3   121  TRP121     -0.1241
     14  CA        18.2140  -28.7970  -24.5520 C.3   121  TRP121      0.1605
     15  C         19.5810  -28.4600  -23.9740 C.2   121  TRP121      0.2264
     16  O         19.7330  -28.3630  -22.7600 O.2   121  TRP121     -0.2867
     17  CB        17.3560  -27.5380  -24.4450 C.3   121  TRP121      0.0550
     18  CG        16.0870  -27.5620  -25.2300 C.ar  121  TRP121      0.0003
     19  CD1       15.4950  -28.6420  -25.8220 C.ar  121  TRP121      0.0946
     20  CD2       15.2430  -26.4390  -25.5020 C.ar  121  TRP121      0.0152
     21  NE1       14.3300  -28.2560  -26.4510 N.ar  121  TRP121     -0.2442
     22  CE2       14.1530  -26.9080  -26.2670 C.ar  121  TRP121      0.0810
     23  CE3       15.3030  -25.0830  -25.1750 C.ar  121  TRP121      0.0012
     24  CZ2       13.1380  -26.0630  -26.7180 C.ar  121  TRP121      0.0191
     25  CZ3       14.2880  -24.2490  -25.6110 C.ar  121  TRP121      0.0001
     26  CH2       13.2210  -24.7430  -26.3750 C.ar  121  TRP121      0.0015
     27  N         17.1050  -24.1950  -33.5800 N.3   161  ARG161     -0.1231
     28  CA        15.7440  -23.6820  -33.5810 C.3   161  ARG161      0.1694
     29  C         14.9690  -23.9950  -32.3160 C.2   161  ARG161      0.2591
     30  O         13.7660  -24.1970  -32.3690 O.2   161  ARG161     -0.2718
     31  CB        14.9830  -24.2410  -34.7680 C.3   161  ARG161      0.0321
     32  CG        15.7320  -25.3180  -35.5000 C.3   161  ARG161      0.0489
     33  CD        15.5350  -25.1740  -36.9880 C.3   161  ARG161      0.2205
     34  NE        16.7540  -25.5080  -37.7130 N.pl3 161  ARG161     -0.0865
     35  CZ        16.9780  -26.6780  -38.3000 C.cat 161  ARG161      0.5346
     36  NH1       16.0550  -27.6290  -38.2700 N.pl3 161  ARG161      0.1354
     37  NH2       18.1190  -26.8900  -38.9330 N.pl3 161  ARG161      0.1354
     38  N         15.6740  -24.0350  -31.1940 N.am  162  ARG162     -0.1980
     39  CA        15.0500  -24.1080  -29.8800 C.3   162  ARG162      0.1597
     40  C         15.0580  -22.7200  -29.2580 C.2   162  ARG162      0.2287
     41  O         16.1140  -22.1160  -29.0790 O.2   162  ARG162     -0.2864
     42  CB        15.8060  -25.1110  -29.0110 C.3   162  ARG162      0.0334
     43  CG        15.6170  -26.5200  -29.5350 C.3   162  ARG162      0.0492
     44  CD        16.5850  -27.5430  -28.9720 C.3   162  ARG162      0.2205
     45  NE        16.0640  -28.8730  -29.2690 N.pl3 162  ARG162     -0.0865
     46  CZ        16.6790  -30.0200  -29.0020 C.cat 162  ARG162      0.5346
     47  NH1       17.8770  -30.0280  -28.4390 N.pl3 162  ARG162      0.1354
     48  NH2       16.0870  -31.1630  -29.3130 N.pl3 162  ARG162      0.1354
     49  N          8.6690  -25.8760  -39.3170 N.3   187  LYS187     -0.1231
     50  CA         8.1290  -26.9250  -38.4560 C.3   187  LYS187      0.1693
     51  C          9.1800  -27.5050  -37.5210 C.2   187  LYS187      0.2593
     52  O          8.8500  -28.2430  -36.5950 O.2   187  LYS187     -0.2718
     53  CB         7.5170  -28.0540  -39.2930 C.3   187  LYS187      0.0285
     54  CG         6.0270  -27.9140  -39.5450 C.3   187  LYS187      0.0035
     55  CD         5.4900  -29.0940  -40.3370 C.3   187  LYS187      0.0206
     56  CE         5.9830  -29.0550  -41.7720 C.3   187  LYS187      0.1093
     57  NZ         5.4420  -27.8760  -42.5060 N.3   187  LYS187     -0.1314
     58  N         10.4440  -27.1820  -37.7730 N.am  188  GLY188     -0.1942
     59  CA        11.5380  -27.7460  -37.0030 C.3   188  GLY188      0.2014
     60  C         11.8760  -26.9280  -35.7720 C.2   188  GLY188      0.2639
     61  O         12.7800  -27.2740  -35.0050 O.2   188  GLY188     -0.2714
     62  N         11.1460  -25.8370  -35.5790 N.am  189  TYR189     -0.1959
     63  CA        11.3520  -24.9880  -34.4070 C.3   189  TYR189      0.1771
     64  C         10.6220  -25.5510  -33.1920 C.2   189  TYR189      0.2619
     65  O          9.6440  -26.2710  -33.3270 O.2   189  TYR189     -0.2715
     66  CB        10.8980  -23.5520  -34.7000 C.3   189  TYR189      0.0574
     67  CG        11.9560  -22.7270  -35.4060 C.ar  189  TYR189     -0.0198
     68  CD1       12.2100  -22.8920  -36.7630 C.ar  189  TYR189     -0.0009
     69  CD2       12.7090  -21.7980  -34.7100 C.ar  189  TYR189     -0.0009
     70  CE1       13.1880  -22.1420  -37.4030 C.ar  189  TYR189      0.0417
     71  CE2       13.6810  -21.0420  -35.3350 C.ar  189  TYR189      0.0417
     72  CZ        13.9200  -21.2210  -36.6840 C.ar  189  TYR189      0.1957
     73  OH        14.8910  -20.4710  -37.3010 O.3   189  TYR189     -0.2866
     74  N         11.1230  -25.2410  -32.0010 N.am  190  HIS190     -0.1973
     75  CA        10.4250  -25.5970  -30.7730 C.3   190  HIS190      0.1656
     76  C         10.4800  -24.3730  -29.8900 C.2   190  HIS190      0.2291
     77  O         11.5650  -23.9700  -29.4690 O.2   190  HIS190     -0.2864
     78  CB        11.1020  -26.7660  -30.0550 C.3   190  HIS190      0.0771
     79  CG        10.3480  -27.2510  -28.8540 C.ar  190  HIS190      0.0820
     80  ND1       10.6440  -28.4350  -28.2130 N.ar  190  HIS190     -0.2267
     81  CD2        9.2860  -26.7220  -28.1950 C.ar  190  HIS190      0.1154
     82  CE1        9.8110  -28.6070  -27.1990 C.ar  190  HIS190      0.1986
     83  NE2        8.9770  -27.5830  -27.1680 N.ar  190  HIS190     -0.2212
     84  N          6.8090  -27.1060  -32.8170 N.3   212  ASN212     -0.1240
     85  CA         6.5050  -27.5210  -31.4550 C.3   212  ASN212      0.1653
     86  C          6.3610  -26.2790  -30.5860 C.2   212  ASN212      0.2266
     87  O          7.1300  -25.3350  -30.7470 O.2   212  ASN212     -0.2867
     88  CB         7.6410  -28.3630  -30.8850 C.3   212  ASN212      0.1155
     89  CG         7.6240  -29.7860  -31.3930 C.2   212  ASN212      0.2627
     90  OD1        6.9670  -30.0960  -32.3790 O.2   212  ASN212     -0.2716
     91  ND2        8.3430  -30.6640  -30.7080 N.am  212  ASN212     -0.0877
     92  N          1.8000  -28.7200  -23.7660 N.3   333  GLU333     -0.1245
     93  CA         2.2850  -28.6870  -25.1420 C.3   333  GLU333      0.1567
     94  C          1.1110  -28.4700  -26.0860 C.2   333  GLU333      0.2260
     95  O          0.0020  -28.9290  -25.8100 O.2   333  GLU333     -0.2867
     96  CB         2.9870  -30.0080  -25.5110 C.3   333  GLU333      0.0388
     97  CG         4.3010  -30.2320  -24.7810 C.3   333  GLU333      0.1160
     98  CD         4.9930  -31.5200  -25.1690 C.2   333  GLU333      0.3649
     99  OE1        4.3680  -32.3670  -25.8490 O.co2 333  GLU333     -0.2457
    100  OE2        6.1720  -31.6920  -24.7890 O.co2 333  GLU333     -0.2457
@<TRIPOS>BOND
     1    57    56    1
     2    56    55    1
     3    55    54    1
     4    54    53    1
     5    49    50    1
     6    53    50    1
     7    37    35    1
     8    50    51    1
     9    35    36    1
    10    35    34    2
    11    58    51   am
    12    58    59    1
    13    34    33    1
    14    51    52    2
    15    70    68   ar
    16    70    72   ar
    17    73    72    1
    18    59    60    1
    19    33    32    1
    20    68    67   ar
    21    72    71   ar
    22    60    62   am
    23    60    61    2
    24    62    63    1
    25    32    31    1
    26    67    69   ar
    27    67    66    1
    28    71    69   ar
    29    31    28    1
    30    66    63    1
    31    63    64    1
    32    28    27    1
    33    28    29    1
    34    65    64    2
    35    64    74   am
    36    84    85    1
    37    90    89    2
    38    30    29    2
    39    29    38   am
    40    74    75    1
    41    85    88    1
    42    85    86    1
    43    89    88    1
    44    89    91   am
    45    38    39    1
    46    75    78    1
    47    75    76    1
    48    87    86    2
    49    78    79    1
    50    76    77    2
    51    39    40    1
    52    39    42    1
    53    43    42    1
    54    43    44    1
    55    48    46    1
    56    45    46    2
    57    45    44    1
    58    40    41    2
    59    46    47    1
    60    79    80   ar
    61    79    81   ar
    62    80    82   ar
    63    81    83   ar
    64    82    83   ar
    65    24    26   ar
    66    24    22   ar
    67    21    22   ar
    68    21    19   ar
    69    26    25   ar
    70    22    20   ar
    71    94    95    2
    72    94    93    1
    73    99    98   ar
    74    19    18   ar
    75    25    23   ar
    76    96    93    1
    77    96    97    1
    78    20    18   ar
    79    20    23   ar
    80    18    17    1
    81    98   100   ar
    82    98    97    1
    83    93    92    1
    84     4     3    2
    85    14    17    1
    86    14    15    1
    87    14    13    1
    88     7     9   ar
    89     7     6   ar
    90     9    11   ar
    91    15    16    2
    92     5     6    1
    93     5     2    1
    94     6     8   ar
    95    11    12    1
    96    11    10   ar
    97     3     2    1
    98     8    10   ar
    99     2     1    1
