@<TRIPOS>MOLECULE
tmp/3hsyA00.pdb
 79 73 0 0 0
SMALL
GASTEIGER

@<TRIPOS>ATOM
      1  N         -3.8180  -19.9160    4.1560 N.3   308  GLN308     -0.1231
      2  CA        -3.7820  -21.0980    3.3030 C.3   308  GLN308      0.1698
      3  C         -5.1810  -21.3520    2.7870 C.2   308  GLN308      0.2592
      4  O         -6.0860  -21.6410    3.5710 O.2   308  GLN308     -0.2718
      5  CB        -3.3200  -22.3320    4.0910 C.3   308  GLN308      0.0381
      6  CG        -1.9390  -22.2420    4.6690 C.3   308  GLN308      0.0905
      7  CD        -1.6870  -23.3680    5.6420 C.2   308  GLN308      0.2608
      8  OE1       -2.4620  -24.3320    5.7000 O.2   308  GLN308     -0.2717
      9  NE2       -0.6230  -23.2490    6.4310 N.am  308  GLN308     -0.0878
     10  N         -5.3590  -21.2540    1.4730 N.am  309  VAL309     -0.1966
     11  CA        -6.6470  -21.5440    0.8520 C.3   309  VAL309      0.1727
     12  C         -6.4110  -22.1600   -0.5170 C.2   309  VAL309      0.2616
     13  O         -5.3260  -22.0530   -1.0700 O.2   309  VAL309     -0.2715
     14  CB        -7.4910  -20.2710    0.6770 C.3   309  VAL309      0.0290
     15  CG1       -7.8200  -19.6520    2.0500 C.3   309  VAL309      0.0023
     16  CG2       -6.7580  -19.2650   -0.2080 C.3   309  VAL309      0.0023
     17  N         -7.4310  -22.8160   -1.0530 N.am  310  GLU310     -0.1977
     18  CA        -7.3630  -23.3150   -2.4140 C.3   310  GLU310      0.1602
     19  C         -8.1510  -22.3680   -3.3020 C.2   310  GLU310      0.2287
     20  O         -9.2880  -22.0070   -2.9820 O.2   310  GLU310     -0.2864
     21  CB        -7.9690  -24.7170   -2.4890 C.3   310  GLU310      0.0415
     22  CG        -7.7270  -25.3920   -3.8190 C.3   310  GLU310      0.1163
     23  CD        -8.1620  -26.8410   -3.8210 C.2   310  GLU310      0.3649
     24  OE1       -8.3270  -27.4130   -2.7230 O.co2 310  GLU310     -0.2457
     25  OE2       -8.3400  -27.4040   -4.9220 O.co2 310  GLU310     -0.2457
     26  N         -3.3540  -24.4750   -4.8730 N.3   315  ASN315     -0.1225
     27  CA        -3.0850  -24.2930   -3.4540 C.3   315  ASN315      0.1785
     28  C         -2.2820  -23.0270   -3.2330 C.2   315  ASN315      0.2597
     29  O         -1.2420  -22.8300   -3.8560 O.2   315  ASN315     -0.2718
     30  CB        -2.3500  -25.5030   -2.8890 C.3   315  ASN315      0.1169
     31  CG        -3.1540  -26.7810   -3.0470 C.2   315  ASN315      0.2627
     32  OD1       -2.7010  -27.7500   -3.6580 O.2   315  ASN315     -0.2716
     33  ND2       -4.3680  -26.7750   -2.5150 N.am  315  ASN315     -0.0877
     34  N         -2.8040  -22.1650   -2.3660 N.am  316  ILE316     -0.1966
     35  CA        -2.1890  -20.8780   -2.0710 C.3   316  ILE316      0.1727
     36  C         -1.6000  -20.9050   -0.6750 C.2   316  ILE316      0.2616
     37  O         -2.3040  -21.1550    0.3070 O.2   316  ILE316     -0.2715
     38  CB        -3.2090  -19.7330   -2.1740 C.3   316  ILE316      0.0290
     39  CG1       -3.7610  -19.6430   -3.6030 C.3   316  ILE316      0.0022
     40  CG2       -2.5620  -18.3990   -1.7830 C.3   316  ILE316      0.0023
     41  CD1       -5.0570  -18.8600   -3.7140 C.3   316  ILE316      0.0001
     42  N         -0.2990  -20.6570   -0.6010 N.am  317  LYS317     -0.1977
     43  CA         0.4240  -20.6260    0.6590 C.3   317  LYS317      0.1596
     44  C          1.6390  -19.7480    0.3990 C.2   317  LYS317      0.2287
     45  O          2.1460  -19.7320   -0.7260 O.2   317  LYS317     -0.2864
     46  CB         0.8700  -22.0460    1.0330 C.3   317  LYS317      0.0298
     47  CG         1.4550  -22.1870    2.4370 C.3   317  LYS317      0.0038
     48  CD         2.0190  -23.5830    2.6640 C.3   317  LYS317      0.0206
     49  CE         2.5540  -23.7250    4.0930 C.3   317  LYS317      0.1093
     50  NZ         3.2350  -25.0290    4.3150 N.3   317  LYS317     -0.1314
     51  N          4.5630  -24.2400   -2.2420 N.3   326  ASN326     -0.1240
     52  CA         3.6700  -25.4000   -2.2510 C.3   326  ASN326      0.1653
     53  C          2.6620  -25.2830   -3.3780 C.2   326  ASN326      0.2266
     54  O          1.5870  -25.7090   -3.2440 O.2   326  ASN326     -0.2867
     55  CB         2.9060  -25.5320   -0.9190 C.3   326  ASN326      0.1155
     56  CG         2.2520  -26.9140   -0.7070 C.2   326  ASN326      0.2627
     57  OD1        2.9180  -27.8830   -0.6010 O.2   326  ASN326     -0.2716
     58  ND2        0.9520  -26.9500   -0.6200 N.am  326  ASN326     -0.0877
     59  N          1.7360  -25.6800   -7.7140 N.3   328  THR328     -0.1218
     60  CA         2.0060  -26.6040   -8.8080 C.3   328  THR328      0.1862
     61  C          1.8240  -25.8340  -10.1000 C.2   328  THR328      0.2287
     62  O          0.8790  -25.0560  -10.2260 O.2   328  THR328     -0.2866
     63  CB         1.0060  -27.7810   -8.8010 C.3   328  THR328      0.1770
     64  OG1        1.2750  -28.6320   -7.6740 O.3   328  THR328     -0.2211
     65  CG2        1.1450  -28.6080  -10.0700 C.3   328  THR328      0.0375
     66  N          6.4460  -29.0590   -9.2420 N.3   346  SER346     -0.1217
     67  CA         6.3320  -28.4830   -7.9050 C.3   346  SER346      0.1889
     68  C          7.7350  -28.3370   -7.3250 C.2   346  SER346      0.2288
     69  O          8.6830  -28.9350   -7.8300 O.2   346  SER346     -0.2866
     70  CB         5.4530  -29.3490   -7.0110 C.3   346  SER346      0.2089
     71  OG         6.1190  -30.5420   -6.6420 O.3   346  SER346     -0.2183
     72  N          9.1870  -31.9760   -6.0820 N.3   349  ASP349     -0.1239
     73  CA         9.4260  -33.0460   -7.0500 C.3   349  ASP349      0.1674
     74  C          9.9880  -32.6190   -8.4100 C.2   349  ASP349      0.2266
     75  O         10.3170  -33.4590   -9.2440 O.2   349  ASP349     -0.2867
     76  CB         8.1350  -33.8370   -7.2750 C.3   349  ASP349      0.1410
     77  CG         7.3270  -34.0170   -6.0030 C.2   349  ASP349      0.3668
     78  OD1        7.9090  -33.9800   -4.9010 O.co2 349  ASP349     -0.2456
     79  OD2        6.1010  -34.1930   -6.1160 O.co2 349  ASP349     -0.2456
@<TRIPOS>BOND
     1    62    61    2
     2    61    60    1
     3    65    63    1
     4    75    74    2
     5    66    67    1
     6    60    63    1
     7    60    59    1
     8    63    64    1
     9    74    73    1
    10    67    68    1
    11    67    70    1
    12    69    68    2
    13    76    73    1
    14    76    77    1
    15    73    72    1
    16    70    71    1
    17    79    77   ar
    18    77    78   ar
    19    25    23   ar
    20    26    27    1
    21    29    28    2
    22    23    22    1
    23    23    24   ar
    24    22    21    1
    25    41    39    1
    26    32    31    2
    27    39    38    1
    28    27    28    1
    29    27    30    1
    30    53    54    2
    31    53    52    1
    32    19    20    2
    33    19    18    1
    34    28    34   am
    35    31    30    1
    36    31    33   am
    37    21    18    1
    38    18    17    1
    39    34    35    1
    40    52    51    1
    41    52    55    1
    42    38    35    1
    43    38    40    1
    44    35    36    1
    45    13    12    2
    46    17    12   am
    47    55    56    1
    48    45    44    2
    49    56    58   am
    50    56    57    2
    51    36    42   am
    52    36    37    2
    53    42    43    1
    54    12    11    1
    55    16    14    1
    56    44    43    1
    57    43    46    1
    58    14    11    1
    59    14    15    1
    60    11    10    1
    61    46    47    1
    62    10     3   am
    63    47    48    1
    64    48    49    1
    65     3     2    1
    66     3     4    2
    67     2     5    1
    68     2     1    1
    69     5     6    1
    70    49    50    1
    71     6     7    1
    72     7     8    2
    73     7     9   am
