@<TRIPOS>MOLECULE
tmp/3ht3B02.pdb
 100 95 0 0 0
SMALL
GASTEIGER

@<TRIPOS>ATOM
      1  N        135.7710  -30.3800   -1.4450 N.3   104  LEU104     -0.1231
      2  CA       136.9880  -29.8300   -0.8110 C.3   104  LEU104      0.1693
      3  C        137.5590  -28.6430   -1.5770 C.2   104  LEU104      0.2592
      4  O        137.9880  -27.6670   -0.9550 O.2   104  LEU104     -0.2718
      5  CB       138.0620  -30.8810   -0.6130 C.3   104  LEU104      0.0284
      6  CG       137.7010  -31.9200    0.4460 C.3   104  LEU104      0.0019
      7  CD1      138.8110  -32.9390    0.4780 C.3   104  LEU104      0.0001
      8  CD2      137.4820  -31.3230    1.8310 C.3   104  LEU104      0.0001
      9  N        137.5390  -28.6960   -2.9110 N.am  105  ASP105     -0.1974
     10  CA       138.0050  -27.5510   -3.6990 C.3   105  ASP105      0.1709
     11  C        137.5280  -27.6520   -5.1350 C.2   105  ASP105      0.2293
     12  O        138.1110  -28.3730   -5.9490 O.2   105  ASP105     -0.2864
     13  CB       139.5410  -27.4320   -3.6660 C.3   105  ASP105      0.1436
     14  CG       140.0430  -26.2150   -4.4130 C.2   105  ASP105      0.3671
     15  OD1      139.2230  -25.4120   -4.8960 O.co2 105  ASP105     -0.2456
     16  OD2      141.2780  -26.0650   -4.5320 O.co2 105  ASP105     -0.2456
     17  N        140.0290  -27.1220   -8.2440 N.3   108  GLN108     -0.1245
     18  CA       141.1030  -28.0470   -8.6220 C.3   108  GLN108      0.1566
     19  C        140.7470  -28.7530   -9.9330 C.2   108  GLN108      0.2260
     20  O        141.6290  -29.1940  -10.6630 O.2   108  GLN108     -0.2867
     21  CB       141.4000  -29.0110   -7.4640 C.3   108  GLN108      0.0367
     22  CG       142.6870  -29.8800   -7.5950 C.3   108  GLN108      0.0905
     23  CD       143.9850  -29.1030   -7.8500 C.2   108  GLN108      0.2608
     24  OE1      144.9030  -29.6260   -8.4960 O.2   108  GLN108     -0.2717
     25  NE2      144.0690  -27.8720   -7.3630 N.am  108  GLN108     -0.0878
     26  N        146.3890  -36.8270   -5.9230 N.3   118  LYS118     -0.1231
     27  CA       147.5150  -35.9050   -5.8900 C.3   118  LYS118      0.1693
     28  C        147.2690  -34.7880   -4.8760 C.2   118  LYS118      0.2592
     29  O        148.2290  -34.2030   -4.3620 O.2   118  LYS118     -0.2718
     30  CB       147.7730  -35.3830   -7.3090 C.3   118  LYS118      0.0285
     31  CG       148.8870  -34.3870   -7.4740 C.3   118  LYS118      0.0035
     32  CD       148.9200  -33.9770   -8.9420 C.3   118  LYS118      0.0206
     33  CE       149.8230  -34.9100   -9.6970 C.3   118  LYS118      0.1093
     34  NZ       151.2420  -34.5880   -9.3300 N.3   118  LYS118     -0.1314
     35  N        145.9970  -34.5260   -4.5370 N.am  119  MET119     -0.1965
     36  CA       145.6940  -33.5110   -3.5340 C.3   119  MET119      0.1736
     37  C        146.3240  -33.8130   -2.1840 C.2   119  MET119      0.2616
     38  O        146.6840  -32.8810   -1.4490 O.2   119  MET119     -0.2715
     39  CB       144.1740  -33.2800   -3.3580 C.3   119  MET119      0.0427
     40  CG       143.4940  -32.5670   -4.5350 C.3   119  MET119      0.0599
     41  SD       141.6740  -32.7390   -4.5030 S.3   119  MET119     -0.1393
     42  CE       141.2200  -32.5110   -2.7990 C.3   119  MET119      0.0692
     43  N        146.4390  -35.1050   -1.8770 N.am  120  LYS120     -0.1963
     44  CA       146.9280  -35.5900   -0.5840 C.3   120  LYS120      0.1728
     45  C        148.2290  -36.3720   -0.7430 C.2   120  LYS120      0.2616
     46  O        148.5100  -37.3040    0.0260 O.2   120  LYS120     -0.2715
     47  CB       145.8750  -36.4390    0.0830 C.3   120  LYS120      0.0311
     48  CG       144.5860  -35.6520    0.3880 C.3   120  LYS120      0.0038
     49  CD       143.8460  -36.2640    1.5370 C.3   120  LYS120      0.0206
     50  CE       142.6890  -35.3260    1.9740 C.3   120  LYS120      0.1093
     51  NZ       143.1640  -34.2070    2.8590 N.3   120  LYS120     -0.1314
     52  N        148.9970  -35.9780   -1.7510 N.am  121  GLN121     -0.1977
     53  CA       150.3750  -36.4640   -1.9680 C.3   121  GLN121      0.1601
     54  C        150.4120  -37.9620   -2.2320 C.2   121  GLN121      0.2287
     55  O        151.3740  -38.6590   -1.8590 O.2   121  GLN121     -0.2864
     56  CB       151.2590  -36.1210   -0.7610 C.3   121  GLN121      0.0394
     57  CG       151.1890  -34.6780   -0.3500 C.3   121  GLN121      0.0908
     58  CD       151.4110  -33.7330   -1.4980 C.2   121  GLN121      0.2608
     59  OE1      150.4440  -33.1960   -2.0620 O.2   121  GLN121     -0.2717
     60  NE2      152.6860  -33.5320   -1.8840 N.am  121  GLN121     -0.0878
     61  N        138.9700  -34.6350    6.4310 N.3   167  GLU167     -0.1245
     62  CA       139.0170  -33.2360    6.0200 C.3   167  GLU167      0.1567
     63  C        137.6040  -32.6440    5.8150 C.2   167  GLU167      0.2260
     64  O        137.3430  -31.5110    6.1820 O.2   167  GLU167     -0.2867
     65  CB       139.8770  -33.0190    4.7690 C.3   167  GLU167      0.0388
     66  CG       140.0880  -31.5240    4.5310 C.3   167  GLU167      0.1160
     67  CD       140.8590  -31.2270    3.2950 C.2   167  GLU167      0.3649
     68  OE1      141.0530  -30.0290    3.0160 O.co2 167  GLU167     -0.2457
     69  OE2      141.2620  -32.1880    2.6100 O.co2 167  GLU167     -0.2457
     70  N        136.3350  -31.6750    9.1680 N.3   170  ARG170     -0.1231
     71  CA       136.9490  -30.3950    9.5750 C.3   170  ARG170      0.1694
     72  C        136.3040  -29.1670    8.9490 C.2   170  ARG170      0.2592
     73  O        136.1880  -28.1120    9.5970 O.2   170  ARG170     -0.2718
     74  CB       138.4540  -30.3860    9.2710 C.3   170  ARG170      0.0321
     75  CG       139.2310  -31.4090   10.0510 C.3   170  ARG170      0.0489
     76  CD       140.7320  -31.1040   10.0870 C.3   170  ARG170      0.2205
     77  NE       141.3840  -31.2490    8.7770 N.pl3 170  ARG170     -0.0865
     78  CZ       141.8190  -32.3980    8.2550 C.cat 170  ARG170      0.5346
     79  NH1      141.6820  -33.5420    8.9140 N.pl3 170  ARG170      0.1354
     80  NH2      142.4100  -32.3930    7.0650 N.pl3 170  ARG170      0.1354
     81  N        135.8880  -29.3050    7.6860 N.am  171  ASN171     -0.1974
     82  CA       135.3170  -28.2150    6.8950 C.3   171  ASN171      0.1688
     83  C        133.7960  -28.0610    7.1070 C.2   171  ASN171      0.2292
     84  O        133.1620  -27.1980    6.4790 O.2   171  ASN171     -0.2864
     85  CB       135.5110  -28.4880    5.3930 C.3   171  ASN171      0.1181
     86  CG       136.9160  -28.2440    4.8960 C.2   171  ASN171      0.2629
     87  OD1      137.8670  -27.9590    5.6500 O.2   171  ASN171     -0.2716
     88  ND2      137.0690  -28.3990    3.5830 N.am  171  ASN171     -0.0877
     89  N        137.3800  -21.2320   -2.5020 N.3   475  TYR475     -0.1241
     90  CA       138.5740  -20.4480   -2.1390 C.3   475  TYR475      0.1605
     91  C        138.7370  -19.2850   -3.0960 C.2   475  TYR475      0.2264
     92  O        138.4550  -19.4050   -4.2800 O.2   475  TYR475     -0.2867
     93  CB       139.8460  -21.3270   -2.1200 C.3   475  TYR475      0.0534
     94  CG       139.7830  -22.3600   -1.0280 C.ar  475  TYR475     -0.0201
     95  CD1      139.3290  -23.6580   -1.2900 C.ar  475  TYR475     -0.0009
     96  CD2      140.1120  -22.0200    0.2830 C.ar  475  TYR475     -0.0009
     97  CE1      139.2370  -24.6160   -0.2540 C.ar  475  TYR475      0.0417
     98  CE2      140.0210  -22.9550    1.3120 C.ar  475  TYR475      0.0417
     99  CZ       139.5860  -24.2540    1.0390 C.ar  475  TYR475      0.1957
    100  OH       139.4900  -25.1670    2.0830 O.3   475  TYR475     -0.2866
@<TRIPOS>BOND
     1    20    19    2
     2    19    18    1
     3    33    34    1
     4    33    32    1
     5    32    31    1
     6    18    17    1
     7    18    21    1
     8    24    23    2
     9    23    22    1
    10    23    25   am
    11    22    21    1
    12    31    30    1
    13    30    27    1
    14    12    11    2
    15    26    27    1
    16    27    28    1
    17    11    10    1
    18    15    14   ar
    19    28    35   am
    20    28    29    2
    21    35    36    1
    22    40    41    1
    23    40    39    1
    24    16    14   ar
    25    41    42    1
    26    14    13    1
    27    92    91    2
    28    10    13    1
    29    10     9    1
    30    36    39    1
    31    36    37    1
    32    91    90    1
    33     9     3   am
    34    89    90    1
    35    54    53    1
    36    54    55    2
    37    37    43   am
    38    37    38    2
    39    90    93    1
    40    93    94    1
    41    59    58    2
    42    53    52    1
    43    53    56    1
    44    60    58   am
    45    43    44    1
    46    52    45   am
    47     3     4    2
    48     3     2    1
    49    58    57    1
    50     1     2    1
    51    95    94   ar
    52    95    97   ar
    53    94    96   ar
    54     2     5    1
    55    56    57    1
    56    45    44    1
    57    45    46    2
    58     5     6    1
    59    44    47    1
    60    97    99   ar
    61    47    48    1
    62    96    98   ar
    63    48    49    1
    64     6     7    1
    65     6     8    1
    66    99    98   ar
    67    99   100    1
    68    49    50    1
    69    50    51    1
    70    69    67   ar
    71    68    67   ar
    72    67    66    1
    73    88    86   am
    74    66    65    1
    75    65    62    1
    76    86    85    1
    77    86    87    2
    78    85    82    1
    79    63    62    1
    80    63    64    2
    81    62    61    1
    82    84    83    2
    83    82    83    1
    84    82    81    1
    85    80    78    1
    86    81    72   am
    87    78    77    2
    88    78    79    1
    89    77    76    1
    90    72    71    1
    91    72    73    2
    92    70    71    1
    93    74    71    1
    94    74    75    1
    95    75    76    1
