@<TRIPOS>MOLECULE
tmp/3ht6A00.pdb
 98 90 0 0 0
SMALL
GASTEIGER

@<TRIPOS>ATOM
      1  N        -35.9430   28.1590   -4.0770 N.3    78  ILE78      -0.1245
      2  CA       -36.3310   28.7380   -5.3600 C.3    78  ILE78       0.1561
      3  C        -36.5200   30.2540   -5.1980 C.2    78  ILE78       0.2260
      4  O        -35.9590   31.0330   -5.9690 O.2    78  ILE78      -0.2867
      5  CB       -37.6060   28.0780   -5.9130 C.3    78  ILE78       0.0252
      6  CG1      -37.2730   26.6940   -6.4820 C.3    78  ILE78       0.0019
      7  CG2      -38.2300   28.9340   -7.0330 C.3    78  ILE78       0.0019
      8  CD1      -38.4930   25.7960   -6.6920 C.3    78  ILE78       0.0001
      9  N        -34.0360   31.6380  -10.5250 N.3    84  LEU84      -0.1245
     10  CA       -35.2110   30.7610  -10.5420 C.3    84  LEU84       0.1561
     11  C        -36.5230   31.4640  -10.1960 C.2    84  LEU84       0.2260
     12  O        -37.5800   31.1460  -10.7600 O.2    84  LEU84      -0.2867
     13  CB       -35.0020   29.5670   -9.5950 C.3    84  LEU84       0.0270
     14  CG       -33.7610   28.7010   -9.8420 C.3    84  LEU84       0.0019
     15  CD1      -33.6580   27.5680   -8.8210 C.3    84  LEU84       0.0001
     16  CD2      -33.7770   28.1430  -11.2530 C.3    84  LEU84       0.0001
     17  N        -38.8480   33.0350  -13.0490 N.3    87  VAL87      -0.1231
     18  CA       -39.4860   32.0080  -13.8700 C.3    87  VAL87       0.1692
     19  C        -40.5770   31.2920  -13.0690 C.2    87  VAL87       0.2592
     20  O        -41.7040   31.1000  -13.5300 O.2    87  VAL87      -0.2718
     21  CB       -38.4620   30.9720  -14.3840 C.3    87  VAL87       0.0266
     22  CG1      -39.1450   30.0210  -15.3500 C.3    87  VAL87       0.0020
     23  CG2      -37.2940   31.6990  -15.0800 C.3    87  VAL87       0.0020
     24  N        -40.2400   30.9270  -11.8430 N.am   88  TYR88      -0.1976
     25  CA       -41.1950   30.2630  -10.9690 C.3    88  TYR88       0.1639
     26  C        -42.4470   31.1200  -10.7800 C.2    88  TYR88       0.2290
     27  O        -43.5650   30.6340  -10.9370 O.2    88  TYR88      -0.2864
     28  CB       -40.5150   30.0150   -9.6250 C.3    88  TYR88       0.0560
     29  CG       -41.3500   29.2990   -8.6010 C.ar   88  TYR88      -0.0198
     30  CD1      -41.4960   27.9010   -8.6300 C.ar   88  TYR88      -0.0009
     31  CD2      -41.9550   30.0050   -7.5580 C.ar   88  TYR88      -0.0009
     32  CE1      -42.2410   27.2420   -7.6660 C.ar   88  TYR88       0.0417
     33  CE2      -42.7010   29.3480   -6.5980 C.ar   88  TYR88       0.0417
     34  CZ       -42.8390   27.9690   -6.6490 C.ar   88  TYR88       0.1957
     35  OH       -43.5830   27.3240   -5.6680 O.3    88  TYR88      -0.2866
     36  N        -45.1490   31.2320  -13.5240 N.3    91  LEU91      -0.1245
     37  CA       -45.9170   30.0190  -13.7870 C.3    91  LEU91       0.1561
     38  C        -47.2130   29.9440  -13.0060 C.2    91  LEU91       0.2260
     39  O        -47.3200   30.5000  -11.9060 O.2    91  LEU91      -0.2867
     40  CB       -45.0810   28.7870  -13.4250 C.3    91  LEU91       0.0270
     41  CG       -43.7780   28.5990  -14.2010 C.3    91  LEU91       0.0019
     42  CD1      -42.9270   27.5060  -13.5400 C.3    91  LEU91       0.0001
     43  CD2      -44.0460   28.2610  -15.6640 C.3    91  LEU91       0.0001
     44  N        -41.7910   22.4820  -11.3720 N.3    99  ALA99      -0.1245
     45  CA       -40.5700   23.1600  -10.9610 C.3    99  ALA99       0.1562
     46  C        -40.0460   22.6260   -9.6250 C.2    99  ALA99       0.2260
     47  O        -38.8500   22.3290   -9.4880 O.2    99  ALA99      -0.2867
     48  CB       -40.8080   24.6840  -10.8810 C.3    99  ALA99       0.0290
     49  N        -38.6570   19.0530  -10.1500 N.3   102  GLN102     -0.1231
     50  CA       -37.3220   19.1280  -10.7390 C.3   102  GLN102      0.1698
     51  C        -36.2290   19.5100   -9.7300 C.2   102  GLN102      0.2592
     52  O        -35.2020   18.8100   -9.6180 O.2   102  GLN102     -0.2718
     53  CB       -37.3240   20.0680  -11.9430 C.3   102  GLN102      0.0381
     54  CG       -36.1580   19.8240  -12.8840 C.3   102  GLN102      0.0905
     55  CD       -36.1860   20.7430  -14.0830 C.2   102  GLN102      0.2608
     56  OE1      -36.5600   21.9100  -13.9710 O.2   102  GLN102     -0.2717
     57  NE2      -35.7970   20.2220  -15.2410 N.am  102  GLN102     -0.0878
     58  N        -36.4260   20.5830   -8.9590 N.am  103  VAL103     -0.1980
     59  CA       -35.3940   20.9870   -7.9990 C.3   103  VAL103      0.1595
     60  C        -35.2060   19.9740   -6.8630 C.2   103  VAL103      0.2287
     61  O        -34.0880   19.7500   -6.4120 O.2   103  VAL103     -0.2864
     62  CB       -35.5870   22.4320   -7.4700 C.3   103  VAL103      0.0276
     63  CG1      -36.4140   22.4770   -6.1820 C.3   103  VAL103      0.0022
     64  CG2      -34.2330   23.0670   -7.2440 C.3   103  VAL103      0.0022
     65  N        -30.5240   22.3610  -11.7520 N.3   111  VAL111     -0.1245
     66  CA       -31.3970   23.2490  -12.5330 C.3   111  VAL111      0.1561
     67  C        -30.5910   24.3850  -13.1920 C.2   111  VAL111      0.2260
     68  O        -31.0500   25.0010  -14.1530 O.2   111  VAL111     -0.2867
     69  CB       -32.5920   23.7780  -11.6880 C.3   111  VAL111      0.0252
     70  CG1      -33.4780   24.7460  -12.4970 C.3   111  VAL111      0.0019
     71  CG2      -33.4270   22.6090  -11.1900 C.3   111  VAL111      0.0019
     72  N        -35.6600   27.1410  -18.9820 N.3   118  LEU118     -0.1245
     73  CA       -36.3040   28.1140  -18.0910 C.3   118  LEU118      0.1561
     74  C        -36.7450   29.3630  -18.8510 C.2   118  LEU118      0.2260
     75  O        -37.8630   29.8330  -18.6560 O.2   118  LEU118     -0.2867
     76  CB       -35.4400   28.4300  -16.8680 C.3   118  LEU118      0.0270
     77  CG       -35.8530   27.5370  -15.6750 C.3   118  LEU118      0.0019
     78  CD1      -35.6100   26.0390  -15.9600 C.3   118  LEU118      0.0001
     79  CD2      -35.1370   27.9370  -14.4210 C.3   118  LEU118      0.0001
     80  N        -39.8550   28.4330  -20.7760 N.3   121  LEU121     -0.1245
     81  CA       -40.9450   28.3770  -19.8010 C.3   121  LEU121      0.1561
     82  C        -41.4450   29.7760  -19.4240 C.2   121  LEU121      0.2260
     83  O        -42.6620   30.0000  -19.3980 O.2   121  LEU121     -0.2867
     84  CB       -40.5320   27.6010  -18.5360 C.3   121  LEU121      0.0270
     85  CG       -40.3280   26.0860  -18.7300 C.3   121  LEU121      0.0019
     86  CD1      -39.7260   25.5090  -17.4490 C.3   121  LEU121      0.0001
     87  CD2      -41.6440   25.3580  -19.0540 C.3   121  LEU121      0.0001
     88  N        -45.0790   20.3650  -17.1820 N.3   153  PHE153     -0.1241
     89  CA       -44.6200   21.6740  -17.6920 C.3   153  PHE153      0.1605
     90  C        -45.3130   22.0700  -19.0070 C.2   153  PHE153      0.2264
     91  O        -45.6050   23.2610  -19.2420 O.2   153  PHE153     -0.2867
     92  CB       -43.1140   21.6740  -17.9570 C.3   153  PHE153      0.0534
     93  CG       -42.2550   21.9670  -16.7480 C.ar  153  PHE153     -0.0203
     94  CD1      -41.2200   21.0940  -16.4120 C.ar  153  PHE153     -0.0042
     95  CD2      -42.4070   23.1520  -16.0080 C.ar  153  PHE153     -0.0042
     96  CE1      -40.3770   21.3470  -15.3280 C.ar  153  PHE153     -0.0003
     97  CE2      -41.5580   23.4160  -14.9180 C.ar  153  PHE153     -0.0003
     98  CZ       -40.5470   22.5130  -14.5780 C.ar  153  PHE153     -0.0000
@<TRIPOS>BOND
     1    80    81    1
     2    81    82    1
     3    81    84    1
     4    82    83    2
     5    91    90    2
     6    87    85    1
     7    90    89    1
     8    72    73    1
     9    74    75    2
    10    74    73    1
    11    85    84    1
    12    85    86    1
    13    73    76    1
    14    92    89    1
    15    92    93    1
    16    89    88    1
    17    76    77    1
    18    93    94   ar
    19    93    95   ar
    20    94    96   ar
    21    95    97   ar
    22    78    77    1
    23    77    79    1
    24    43    41    1
    25    22    21    1
    26    96    98   ar
    27    57    55   am
    28    23    21    1
    29    97    98   ar
    30    21    18    1
    31    41    42    1
    32    41    40    1
    33    68    67    2
    34    55    56    2
    35    55    54    1
    36    18    19    1
    37    18    17    1
    38    37    36    1
    39    37    40    1
    40    37    38    1
    41    20    19    2
    42    67    66    1
    43    19    24   am
    44    38    39    2
    45    54    53    1
    46    66    65    1
    47    66    69    1
    48    70    69    1
    49    53    50    1
    50    24    25    1
    51    69    71    1
    52    44    45    1
    53    16    14    1
    54    25    26    1
    55    25    28    1
    56    45    48    1
    57    45    46    1
    58    27    26    2
    59    12    11    2
    60    50    49    1
    61    50    51    1
    62    10     9    1
    63    10    11    1
    64    10    13    1
    65    14    13    1
    66    14    15    1
    67    51    52    2
    68    51    58   am
    69    46    47    2
    70    28    29    1
    71    58    59    1
    72    30    29   ar
    73    30    32   ar
    74    29    31   ar
    75    59    62    1
    76    59    60    1
    77    32    34   ar
    78    31    33   ar
    79    62    64    1
    80    62    63    1
    81     7     5    1
    82    60    61    2
    83     8     6    1
    84    34    33   ar
    85    34    35    1
    86     6     5    1
    87     4     3    2
    88     5     2    1
    89     2     3    1
    90     2     1    1
