@<TRIPOS>MOLECULE
tmp/3ht8A00.pdb
 123 114 0 0 0
SMALL
GASTEIGER

@<TRIPOS>ATOM
      1  N         24.3670  -28.1680  -12.2180 N.3    78  ILE78      -0.1245
      2  CA        23.9500  -28.7510  -10.9350 C.3    78  ILE78       0.1561
      3  C         23.7340  -30.2560  -11.1340 C.2    78  ILE78       0.2260
      4  O         24.2870  -31.0730  -10.3890 O.2    78  ILE78      -0.2867
      5  CB        22.6760  -28.0720  -10.3900 C.3    78  ILE78       0.0252
      6  CG1       23.0180  -26.6750   -9.8570 C.3    78  ILE78       0.0019
      7  CG2       22.0190  -28.9170   -9.2680 C.3    78  ILE78       0.0019
      8  CD1       21.7910  -25.7640   -9.6760 C.3    78  ILE78       0.0001
      9  N         26.2800  -31.6650   -5.7390 N.3    84  LEU84      -0.1245
     10  CA        25.0690  -30.8320   -5.7750 C.3    84  LEU84       0.1561
     11  C         23.7690  -31.5600   -6.1290 C.2    84  LEU84       0.2260
     12  O         22.7230  -31.2810   -5.5420 O.2    84  LEU84      -0.2867
     13  CB        25.2700  -29.6240   -6.7070 C.3    84  LEU84       0.0270
     14  CG        26.4550  -28.7090   -6.3750 C.3    84  LEU84       0.0019
     15  CD1       26.6680  -27.6510   -7.4630 C.3    84  LEU84       0.0001
     16  CD2       26.2690  -28.0490   -5.0120 C.3    84  LEU84       0.0001
     17  N         21.3910  -33.1010   -3.3070 N.3    87  VAL87      -0.1231
     18  CA        20.7760  -32.0350   -2.5090 C.3    87  VAL87       0.1692
     19  C         19.6710  -31.3550   -3.3240 C.2    87  VAL87       0.2592
     20  O         18.5240  -31.2280   -2.8890 O.2    87  VAL87      -0.2718
     21  CB        21.8250  -31.0160   -2.0070 C.3    87  VAL87       0.0266
     22  CG1       21.1530  -30.0050   -1.1020 C.3    87  VAL87       0.0020
     23  CG2       22.9470  -31.7540   -1.2530 C.3    87  VAL87       0.0020
     24  N         20.0040  -30.9900   -4.5550 N.am   88  TYR88      -0.1976
     25  CA        19.0500  -30.3480   -5.4380 C.3    88  TYR88       0.1639
     26  C         17.8120  -31.2220   -5.5870 C.2    88  TYR88       0.2290
     27  O         16.6860  -30.7640   -5.3990 O.2    88  TYR88      -0.2864
     28  CB        19.7150  -30.1190   -6.7910 C.3    88  TYR88       0.0560
     29  CG        18.8700  -29.3850   -7.7930 C.ar   88  TYR88      -0.0198
     30  CD1       18.7330  -27.9890   -7.7290 C.ar   88  TYR88      -0.0009
     31  CD2       18.2370  -30.0630   -8.8250 C.ar   88  TYR88      -0.0009
     32  CE1       17.9790  -27.2990   -8.6580 C.ar   88  TYR88       0.0417
     33  CE2       17.4580  -29.3690   -9.7650 C.ar   88  TYR88       0.0417
     34  CZ        17.3430  -27.9840   -9.6670 C.ar   88  TYR88       0.1957
     35  OH        16.5860  -27.2900  -10.5980 O.3    88  TYR88      -0.2866
     36  N         15.1130  -31.2990   -2.7920 N.3    91  LEU91      -0.1245
     37  CA        14.3550  -30.0960   -2.5090 C.3    91  LEU91       0.1561
     38  C         13.0580  -30.0130   -3.2800 C.2    91  LEU91       0.2260
     39  O         12.9420  -30.5610   -4.3940 O.2    91  LEU91      -0.2867
     40  CB        15.1740  -28.8530   -2.8720 C.3    91  LEU91       0.0270
     41  CG        16.5070  -28.7230   -2.1380 C.3    91  LEU91       0.0019
     42  CD1       17.3800  -27.6510   -2.8000 C.3    91  LEU91       0.0001
     43  CD2       16.2650  -28.4330   -0.6710 C.3    91  LEU91       0.0001
     44  N         18.5080  -22.5210   -4.9410 N.3    99  ALA99      -0.1245
     45  CA        19.7390  -23.2200   -5.3210 C.3    99  ALA99       0.1562
     46  C         20.2790  -22.7050   -6.6640 C.2    99  ALA99       0.2260
     47  O         21.4890  -22.4310   -6.8160 O.2    99  ALA99      -0.2867
     48  CB        19.5040  -24.7520   -5.3720 C.3    99  ALA99       0.0290
     49  N         21.6760  -19.0780   -6.1930 N.3   102  GLN102     -0.1231
     50  CA        23.0110  -19.0550   -5.5850 C.3   102  GLN102      0.1698
     51  C         24.1140  -19.5200   -6.5590 C.2   102  GLN102      0.2592
     52  O         25.1710  -18.8840   -6.6780 O.2   102  GLN102     -0.2718
     53  CB        23.0370  -19.8150   -4.2520 C.3   102  GLN102      0.0381
     54  CG        24.3440  -19.6070   -3.4980 C.3   102  GLN102      0.0905
     55  CD        24.4110  -20.3500   -2.1720 C.2   102  GLN102      0.2608
     56  OE1       23.7460  -21.3590   -1.9870 O.2   102  GLN102     -0.2717
     57  NE2       25.2130  -19.8470   -1.2460 N.am  102  GLN102     -0.0878
     58  N         23.8780  -20.6150   -7.2780 N.am  103  VAL103     -0.1980
     59  CA        24.8360  -21.1090   -8.2750 C.3   103  VAL103      0.1595
     60  C         25.0760  -20.1030   -9.4130 C.2   103  VAL103      0.2287
     61  O         26.2070  -19.8960   -9.8580 O.2   103  VAL103     -0.2864
     62  CB        24.3720  -22.4820   -8.7990 C.3   103  VAL103      0.0276
     63  CG1       25.0680  -22.8680  -10.1030 C.3   103  VAL103      0.0022
     64  CG2       24.6080  -23.5380   -7.7170 C.3   103  VAL103      0.0022
     65  N         29.9690  -22.5180   -4.6230 N.3   111  VAL111     -0.1245
     66  CA        29.0530  -23.3160   -3.7930 C.3   111  VAL111      0.1561
     67  C         29.7880  -24.5010   -3.1380 C.2   111  VAL111      0.2260
     68  O         29.2310  -25.1740   -2.2690 O.2   111  VAL111     -0.2867
     69  CB        27.7830  -23.7450   -4.5940 C.3   111  VAL111      0.0252
     70  CG1       26.8610  -24.6840   -3.7910 C.3   111  VAL111      0.0019
     71  CG2       27.0110  -22.5180   -5.0140 C.3   111  VAL111      0.0019
     72  N         30.1330  -24.4370    0.5270 N.3   114  PHE114     -0.1241
     73  CA        28.8660  -24.5640    1.2710 C.3   114  PHE114      0.1605
     74  C         28.4700  -25.9890    1.7050 C.2   114  PHE114      0.2264
     75  O         27.3050  -26.2730    2.0240 O.2   114  PHE114     -0.2867
     76  CB        27.7570  -23.8440    0.5040 C.3   114  PHE114      0.0534
     77  CG        27.8530  -22.3510    0.5970 C.ar  114  PHE114     -0.0203
     78  CD1       28.7340  -21.6360   -0.2170 C.ar  114  PHE114     -0.0042
     79  CD2       27.0910  -21.6560    1.5310 C.ar  114  PHE114     -0.0042
     80  CE1       28.8240  -20.2560   -0.1010 C.ar  114  PHE114     -0.0003
     81  CE2       27.1700  -20.2790    1.6420 C.ar  114  PHE114     -0.0003
     82  CZ        28.0450  -19.5790    0.8210 C.ar  114  PHE114     -0.0000
     83  N         26.2110  -26.3200    4.7650 N.3   117  SER117     -0.1202
     84  CA        24.8450  -25.8520    4.4330 C.3   117  SER117      0.2020
     85  C         24.1180  -26.9050    3.5930 C.2   117  SER117      0.2618
     86  O         22.9300  -27.1810    3.8090 O.2   117  SER117     -0.2717
     87  CB        24.8620  -24.5510    3.6260 C.3   117  SER117      0.2103
     88  OG        25.4920  -23.4890    4.3080 O.3   117  SER117     -0.2182
     89  N         24.8290  -27.4610    2.6180 N.am  118  LEU118     -0.1979
     90  CA        24.2570  -28.5010    1.7490 C.3   118  LEU118      0.1596
     91  C         23.7010  -29.6490    2.5710 C.2   118  LEU118      0.2287
     92  O         22.5630  -30.0890    2.3570 O.2   118  LEU118     -0.2864
     93  CB        25.3050  -29.0630    0.7970 C.3   118  LEU118      0.0297
     94  CG        25.8710  -28.1850   -0.3090 C.3   118  LEU118      0.0022
     95  CD1       26.9280  -28.9880   -1.0580 C.3   118  LEU118      0.0001
     96  CD2       24.7970  -27.7210   -1.2530 C.3   118  LEU118      0.0001
     97  N         20.5390  -28.6700    4.4190 N.3   121  LEU121     -0.1245
     98  CA        19.4410  -28.5300    3.4710 C.3   121  LEU121      0.1561
     99  C         18.9230  -29.9150    3.0700 C.2   121  LEU121      0.2260
    100  O         17.7120  -30.1160    3.0520 O.2   121  LEU121     -0.2867
    101  CB        19.8660  -27.7280    2.2340 C.3   121  LEU121      0.0270
    102  CG        20.0330  -26.2190    2.4530 C.3   121  LEU121      0.0019
    103  CD1       20.6730  -25.6090    1.1840 C.3   121  LEU121      0.0001
    104  CD2       18.7080  -25.5230    2.7450 C.3   121  LEU121      0.0001
    105  N         24.1460  -20.6530    6.2720 N.3   133  LEU133     -0.1245
    106  CA        24.3250  -20.0050    4.9660 C.3   133  LEU133      0.1561
    107  C         24.8020  -18.5590    5.1170 C.2   133  LEU133      0.2260
    108  O         25.5430  -18.0550    4.2620 O.2   133  LEU133     -0.2867
    109  CB        23.0040  -19.9910    4.1930 C.3   133  LEU133      0.0270
    110  CG        22.6790  -21.3380    3.5270 C.3   133  LEU133      0.0019
    111  CD1       21.2010  -21.3290    3.2090 C.3   133  LEU133      0.0001
    112  CD2       23.4990  -21.5430    2.2680 C.3   133  LEU133      0.0001
    113  N         15.3050  -20.4410    0.8740 N.3   153  PHE153     -0.1241
    114  CA        15.7610  -21.7400    1.4190 C.3   153  PHE153      0.1605
    115  C         15.0710  -22.1190    2.7500 C.2   153  PHE153      0.2264
    116  O         14.7310  -23.2930    2.9610 O.2   153  PHE153     -0.2867
    117  CB        17.2830  -21.7530    1.6590 C.3   153  PHE153      0.0534
    118  CG        18.1100  -22.0810    0.4440 C.ar  153  PHE153     -0.0203
    119  CD1       19.1220  -21.2130    0.0390 C.ar  153  PHE153     -0.0042
    120  CD2       17.9430  -23.2970   -0.2450 C.ar  153  PHE153     -0.0042
    121  CE1       19.9290  -21.4990   -1.0650 C.ar  153  PHE153     -0.0003
    122  CE2       18.7360  -23.5890   -1.3410 C.ar  153  PHE153     -0.0003
    123  CZ        19.7450  -22.6990   -1.7550 C.ar  153  PHE153     -0.0000
@<TRIPOS>BOND
     1     1     2    1
     2     3     2    1
     3     3     4    2
     4     2     5    1
     5    35    34    1
     6     5     6    1
     7     5     7    1
     8    63    62    1
     9    61    60    2
    10     6     8    1
    11    33    34   ar
    12    33    31   ar
    13    34    32   ar
    14    60    59    1
    15    31    29   ar
    16    62    59    1
    17    62    64    1
    18    32    30   ar
    19    59    58    1
    20    29    30   ar
    21    29    28    1
    22    15    14    1
    23    58    51   am
    24    47    46    2
    25    28    25    1
    26    13    14    1
    27    13    10    1
    28    52    51    2
    29    46    45    1
    30    51    50    1
    31    14    16    1
    32    49    50    1
    33    11    10    1
    34    11    12    2
    35    10     9    1
    36    26    25    1
    37    26    27    2
    38    50    53    1
    39    25    24    1
    40    48    45    1
    41    45    44    1
    42    71    69    1
    43    65    66    1
    44    69    66    1
    45    69    70    1
    46    24    19   am
    47    39    38    2
    48    53    54    1
    49    66    67    1
    50    54    55    1
    51    19    20    2
    52    19    18    1
    53    17    18    1
    54    38    37    1
    55    67    68    2
    56    40    37    1
    57    40    41    1
    58    42    41    1
    59    36    37    1
    60    18    21    1
    61    55    56    2
    62    55    57   am
    63    41    43    1
    64    21    23    1
    65    21    22    1
    66   123   122   ar
    67   123   121   ar
    68   122   120   ar
    69    96    94    1
    70   121   119   ar
    71    95    94    1
    72    94    93    1
    73   120   118   ar
    74    78    80   ar
    75    78    77   ar
    76    80    82   ar
    77   119   118   ar
    78   118   117    1
    79    76    77    1
    80    76    73    1
    81    72    73    1
    82    77    79   ar
    83    93    90    1
    84    82    81   ar
    85   113   114    1
    86   103   102    1
    87    73    74    1
    88   114   117    1
    89   114   115    1
    90    79    81   ar
    91    74    75    2
    92    90    91    1
    93    90    89    1
    94   101   102    1
    95   101    98    1
    96   112   110    1
    97    92    91    2
    98   102   104    1
    99    89    85   am
   100   115   116    2
   101   100    99    2
   102    99    98    1
   103   111   110    1
   104    98    97    1
   105   110   109    1
   106    85    86    2
   107    85    84    1
   108    87    88    1
   109    87    84    1
   110   109   106    1
   111   108   107    2
   112    84    83    1
   113   106   107    1
   114   106   105    1
