@<TRIPOS>MOLECULE
tmp/3htdA00.pdb
 117 108 0 0 0
SMALL
GASTEIGER

@<TRIPOS>ATOM
      1  N        -36.3990    7.0720   12.0730 N.3    78  ILE78      -0.1245
      2  CA       -36.7200    6.4410   10.7930 C.3    78  ILE78       0.1561
      3  C        -37.8900    5.4740   10.9710 C.2    78  ILE78       0.2260
      4  O        -38.8480    5.5020   10.1960 O.2    78  ILE78      -0.2867
      5  CB       -35.4920    5.6970   10.2100 C.3    78  ILE78       0.0252
      6  CG1      -34.4740    6.7030    9.6610 C.3    78  ILE78       0.0019
      7  CG2      -35.8980    4.6930    9.1240 C.3    78  ILE78       0.0019
      8  CD1      -33.1120    6.0890    9.3780 C.3    78  ILE78       0.0001
      9  N        -40.3870    6.8720    5.6770 N.3    84  LEU84      -0.1245
     10  CA       -39.0440    6.3010    5.6850 C.3    84  LEU84       0.1561
     11  C        -38.9990    4.8330    6.0840 C.2    84  LEU84       0.2260
     12  O        -38.1820    4.0810    5.5490 O.2    84  LEU84      -0.2867
     13  CB       -38.1080    7.1050    6.5940 C.3    84  LEU84       0.0270
     14  CG       -37.9960    8.6070    6.3130 C.3    84  LEU84       0.0019
     15  CD1      -37.0280    9.2460    7.2920 C.3    84  LEU84       0.0001
     16  CD2      -37.5720    8.8670    4.8780 C.3    84  LEU84       0.0001
     17  N        -39.2320    1.9850    3.3070 N.3    87  VAL87      -0.1231
     18  CA       -38.0430    1.9540    2.4700 C.3    87  VAL87       0.1692
     19  C        -36.8900    1.3670    3.2710 C.2    87  VAL87       0.2592
     20  O        -36.1970    0.4650    2.8180 O.2    87  VAL87      -0.2718
     21  CB       -37.6760    3.3530    1.9320 C.3    87  VAL87       0.0266
     22  CG1      -36.4860    3.2510    0.9810 C.3    87  VAL87       0.0020
     23  CG2      -38.8790    3.9560    1.2180 C.3    87  VAL87       0.0020
     24  N        -36.7210    1.8570    4.4930 N.am   88  TYR88      -0.1976
     25  CA       -35.6810    1.3520    5.3600 C.3    88  TYR88       0.1639
     26  C        -35.8060   -0.1590    5.5460 C.2    88  TYR88       0.2290
     27  O        -34.8290   -0.8880    5.4040 O.2    88  TYR88      -0.2864
     28  CB       -35.7510    2.0790    6.7060 C.3    88  TYR88       0.0560
     29  CG       -34.7140    1.6530    7.7020 C.ar   88  TYR88      -0.0198
     30  CD1      -33.4270    2.2080    7.6830 C.ar   88  TYR88      -0.0009
     31  CD2      -35.0180    0.7170    8.6820 C.ar   88  TYR88      -0.0009
     32  CE1      -32.4710    1.8250    8.6070 C.ar   88  TYR88       0.0417
     33  CE2      -34.0680    0.3250    9.6060 C.ar   88  TYR88       0.0417
     34  CZ       -32.7970    0.8800    9.5660 C.ar   88  TYR88       0.1957
     35  OH       -31.8520    0.4830   10.4890 O.3    88  TYR88      -0.2866
     36  N        -34.5980   -2.5150    2.7800 N.3    91  LEU91      -0.1245
     37  CA       -33.1700   -2.5790    2.5150 C.3    91  LEU91       0.1561
     38  C        -32.4490   -3.6720    3.2760 C.2    91  LEU91       0.2260
     39  O        -32.8820   -4.0890    4.3590 O.2    91  LEU91      -0.2867
     40  CB       -32.5130   -1.2500    2.8860 C.3    91  LEU91       0.0270
     41  CG       -32.9760   -0.0080    2.1300 C.3    91  LEU91       0.0019
     42  CD1      -32.3610    1.2220    2.7830 C.3    91  LEU91       0.0001
     43  CD2      -32.6030   -0.0790    0.6580 C.3    91  LEU91       0.0001
     44  N        -28.7080    4.7480    4.9250 N.3    99  ALA99      -0.1245
     45  CA       -29.9130    5.4910    5.2770 C.3    99  ALA99       0.1562
     46  C        -29.7190    6.2060    6.6140 C.2    99  ALA99       0.2260
     47  O        -30.0420    7.4050    6.7670 O.2    99  ALA99      -0.2867
     48  CB       -31.1070    4.5460    5.3520 C.3    99  ALA99       0.0290
     49  N        -27.3000    9.1870    6.1630 N.3   102  GLN102     -0.1231
     50  CA       -27.9340   10.3470    5.5560 C.3   102  GLN102      0.1698
     51  C        -28.8670   11.0910    6.5120 C.2   102  GLN102      0.2592
     52  O        -28.8350   12.3240    6.5880 O.2   102  GLN102     -0.2718
     53  CB       -28.6360    9.9630    4.2560 C.3   102  GLN102      0.0381
     54  CG       -29.1010   11.1680    3.4690 C.3   102  GLN102      0.0905
     55  CD       -29.6910   10.8230    2.1260 C.2   102  GLN102      0.2608
     56  OE1      -29.6040    9.6910    1.6570 O.2   102  GLN102     -0.2717
     57  NE2      -30.3170   11.8110    1.4970 N.am  102  GLN102     -0.0878
     58  N        -29.6730   10.3580    7.2730 N.am  103  VAL103     -0.1980
     59  CA       -30.5690   10.9710    8.2530 C.3   103  VAL103      0.1595
     60  C        -29.7810   11.6530    9.3740 C.2   103  VAL103      0.2287
     61  O        -30.1390   12.7400    9.8380 O.2   103  VAL103     -0.2864
     62  CB       -31.5600    9.9280    8.8110 C.3   103  VAL103      0.0276
     63  CG1      -32.1800   10.3890   10.1370 C.3   103  VAL103      0.0022
     64  CG2      -32.6340    9.6280    7.7660 C.3   103  VAL103      0.0022
     65  N        -34.3110   14.7330    4.5540 N.3   111  VAL111     -0.1245
     66  CA       -34.6120   13.5660    3.7200 C.3   111  VAL111      0.1561
     67  C        -35.9750   13.7300    3.0200 C.2   111  VAL111      0.2260
     68  O        -36.2910   12.9910    2.0890 O.2   111  VAL111     -0.2867
     69  CB       -34.4780   12.2450    4.5400 C.3   111  VAL111      0.0252
     70  CG1      -34.9950   11.0300    3.7780 C.3   111  VAL111      0.0019
     71  CG2      -33.0200   12.0340    4.9380 C.3   111  VAL111      0.0019
     72  N        -36.1640   13.8410   -0.7060 N.3   114  PHE114     -0.1241
     73  CA       -35.6310   12.6620   -1.3960 C.3   114  PHE114      0.1605
     74  C        -36.6680   11.6080   -1.7910 C.2   114  PHE114      0.2264
     75  O        -36.3210   10.4600   -2.0730 O.2   114  PHE114     -0.2867
     76  CB       -34.4750   12.0680   -0.5930 C.3   114  PHE114      0.0534
     77  CG       -33.2210   12.8920   -0.6570 C.ar  114  PHE114     -0.0203
     78  CD1      -33.0860   14.0460    0.1170 C.ar  114  PHE114     -0.0042
     79  CD2      -32.1830   12.5340   -1.5060 C.ar  114  PHE114     -0.0042
     80  CE1      -31.9230   14.8190    0.0430 C.ar  114  PHE114     -0.0003
     81  CE2      -31.0170   13.2950   -1.5780 C.ar  114  PHE114     -0.0003
     82  CZ       -30.8930   14.4450   -0.7990 C.ar  114  PHE114     -0.0000
     83  N        -35.9750    7.7180   -2.6950 N.3   118  LEU118     -0.1245
     84  CA       -36.5530    6.7150   -1.7970 C.3   118  LEU118      0.1561
     85  C        -37.3170    5.6600   -2.5720 C.2   118  LEU118      0.2260
     86  O        -37.2020    4.4560   -2.3150 O.2   118  LEU118     -0.2867
     87  CB       -37.5040    7.3810   -0.7950 C.3   118  LEU118      0.0270
     88  CG       -36.8750    8.2790    0.2720 C.3   118  LEU118      0.0019
     89  CD1      -37.9510    9.0700    0.9950 C.3   118  LEU118      0.0001
     90  CD2      -36.0220    7.5000    1.2700 C.3   118  LEU118      0.0001
     91  N        -34.9190    3.4300   -4.3560 N.3   121  LEU121     -0.1245
     92  CA       -34.2710    2.5350   -3.4020 C.3   121  LEU121      0.1561
     93  C        -35.2040    1.3820   -3.0420 C.2   121  LEU121      0.2260
     94  O        -34.7750    0.2220   -3.0220 O.2   121  LEU121     -0.2867
     95  CB       -33.8760    3.2930   -2.1340 C.3   121  LEU121      0.0270
     96  CG       -32.6920    4.2410   -2.3150 C.3   121  LEU121      0.0019
     97  CD1      -32.5540    5.1060   -1.0610 C.3   121  LEU121      0.0001
     98  CD2      -31.3860    3.4990   -2.5900 C.3   121  LEU121      0.0001
     99  N        -29.8610   10.4720   -6.2250 N.3   133  LEU133     -0.1245
    100  CA       -29.3760   10.9700   -4.9350 C.3   133  LEU133      0.1561
    101  C        -28.3740   12.1000   -5.1020 C.2   133  LEU133      0.2260
    102  O        -28.3180   13.0230   -4.2780 O.2   133  LEU133     -0.2867
    103  CB       -28.7150    9.8400   -4.1450 C.3   133  LEU133      0.0270
    104  CG       -29.6930    8.8670   -3.4760 C.3   133  LEU133      0.0019
    105  CD1      -28.9800    7.5560   -3.1950 C.3   133  LEU133      0.0001
    106  CD2      -30.2570    9.4650   -2.2050 C.3   133  LEU133      0.0001
    107  N        -25.2590    2.9770   -0.9590 N.3   153  PHE153     -0.1241
    108  CA       -26.6060    2.7120   -1.4740 C.3   153  PHE153      0.1605
    109  C        -26.5790    1.9550   -2.8050 C.2   153  PHE153      0.2264
    110  O        -27.4380    1.0990   -3.0540 O.2   153  PHE153     -0.2867
    111  CB       -27.3680    4.0130   -1.7070 C.3   153  PHE153      0.0534
    112  CG       -28.0610    4.5680   -0.4880 C.ar  153  PHE153     -0.0203
    113  CD1      -27.8660    5.8980   -0.1110 C.ar  153  PHE153     -0.0042
    114  CD2      -28.9760    3.8010    0.2260 C.ar  153  PHE153     -0.0042
    115  CE1      -28.5370    6.4430    0.9880 C.ar  153  PHE153     -0.0003
    116  CE2      -29.6450    4.3350    1.3230 C.ar  153  PHE153     -0.0003
    117  CZ       -29.4310    5.6560    1.7000 C.ar  153  PHE153     -0.0000
@<TRIPOS>BOND
     1    99   100    1
     2   101   100    1
     3   101   102    2
     4   100   103    1
     5    91    92    1
     6   103   104    1
     7   104   105    1
     8   104   106    1
     9    92    93    1
    10    92    95    1
    11   110   109    2
    12    93    94    2
    13   109   108    1
    14    83    84    1
    15    98    96    1
    16    85    86    2
    17    85    84    1
    18    96    95    1
    19    96    97    1
    20    75    74    2
    21    84    87    1
    22    74    73    1
    23   111   108    1
    24   111   112    1
    25    81    79   ar
    26    81    82   ar
    27    79    77   ar
    28   108   107    1
    29    73    72    1
    30    73    76    1
    31    82    80   ar
    32    87    88    1
    33    77    76    1
    34    77    78   ar
    35   112   113   ar
    36   112   114   ar
    37   113   115   ar
    38    80    78   ar
    39   114   116   ar
    40    88    89    1
    41    88    90    1
    42    43    41    1
    43    22    21    1
    44   115   117   ar
    45    23    21    1
    46   116   117   ar
    47    57    55   am
    48    56    55    2
    49    21    18    1
    50    68    67    2
    51    55    54    1
    52    41    42    1
    53    41    40    1
    54    18    19    1
    55    18    17    1
    56    37    36    1
    57    37    40    1
    58    37    38    1
    59    20    19    2
    60    67    66    1
    61    19    24   am
    62    38    39    2
    63    54    53    1
    64    66    69    1
    65    66    65    1
    66    70    69    1
    67    53    50    1
    68    24    25    1
    69    69    71    1
    70    16    14    1
    71    44    45    1
    72    45    48    1
    73    45    46    1
    74    25    26    1
    75    25    28    1
    76    27    26    2
    77    12    11    2
    78    50    49    1
    79    50    51    1
    80     9    10    1
    81    10    11    1
    82    10    13    1
    83    14    13    1
    84    14    15    1
    85    51    52    2
    86    51    58   am
    87    46    47    2
    88    28    29    1
    89    58    59    1
    90    30    29   ar
    91    30    32   ar
    92    29    31   ar
    93    64    62    1
    94    59    62    1
    95    59    60    1
    96    32    34   ar
    97    31    33   ar
    98    62    63    1
    99     7     5    1
   100    60    61    2
   101     8     6    1
   102    34    33   ar
   103    34    35    1
   104     6     5    1
   105     4     3    2
   106     5     2    1
   107     2     3    1
   108     2     1    1
