@<TRIPOS>MOLECULE
tmp/3htgA00.pdb
 104 96 0 0 0
SMALL
GASTEIGER

@<TRIPOS>ATOM
      1  N         39.9570   -6.9630    5.7900 N.3    84  LEU84      -0.1245
      2  CA        38.6580   -6.3180    5.7920 C.3    84  LEU84       0.1561
      3  C         38.7120   -4.8430    6.1660 C.2    84  LEU84       0.2260
      4  O         37.9680   -4.0440    5.6080 O.2    84  LEU84      -0.2867
      5  CB        37.6770   -7.0620    6.7000 C.3    84  LEU84       0.0270
      6  CG        37.3310   -8.5130    6.3430 C.3    84  LEU84       0.0019
      7  CD1       36.4130   -9.1090    7.3970 C.3    84  LEU84       0.0001
      8  CD2       36.6840   -8.6050    4.9700 C.3    84  LEU84       0.0001
      9  N         28.4930   -4.9050    4.8870 N.3    99  ALA99      -0.1245
     10  CA        29.6630   -5.6720    5.3040 C.3    99  ALA99       0.1562
     11  C         29.4780   -6.2970    6.6810 C.2    99  ALA99       0.2260
     12  O         29.8190   -7.4640    6.8810 O.2    99  ALA99      -0.2867
     13  CB        30.9190   -4.7980    5.2770 C.3    99  ALA99       0.0290
     14  N         27.0720   -9.3010    6.3080 N.3   102  GLN102     -0.1231
     15  CA        27.7000  -10.4710    5.7330 C.3   102  GLN102      0.1698
     16  C         28.6340  -11.1670    6.7360 C.2   102  GLN102      0.2592
     17  O         28.5940  -12.3910    6.8530 O.2   102  GLN102     -0.2718
     18  CB        28.3960  -10.1050    4.4220 C.3   102  GLN102      0.0381
     19  CG        28.8450  -11.3060    3.6220 C.3   102  GLN102      0.0905
     20  CD        29.4810  -10.9400    2.3020 C.2   102  GLN102      0.2608
     21  OE1       29.6260   -9.7630    1.9620 O.2   102  GLN102     -0.2717
     22  NE2       29.8760  -11.9510    1.5460 N.am  102  GLN102     -0.0878
     23  N         29.4370  -10.4010    7.4700 N.am  103  VAL103     -0.1980
     24  CA        30.3160  -10.9610    8.4900 C.3   103  VAL103      0.1595
     25  C         29.5200  -11.6280    9.6180 C.2   103  VAL103      0.2287
     26  O         29.9010  -12.6880   10.1160 O.2   103  VAL103     -0.2864
     27  CB        31.2630   -9.8730    9.0410 C.3   103  VAL103      0.0276
     28  CG1       31.9650  -10.3440   10.3070 C.3   103  VAL103      0.0022
     29  CG2       32.2730   -9.4780    7.9700 C.3   103  VAL103      0.0022
     30  N         28.3330  -14.9770    8.0580 N.3   106  MET106     -0.1230
     31  CA        29.3520  -15.8800    7.5050 C.3   106  MET106      0.1702
     32  C         30.5820  -16.0500    8.3810 C.2   106  MET106      0.2592
     33  O         31.3300  -17.0140    8.2150 O.2   106  MET106     -0.2718
     34  CB        29.8230  -15.3660    6.1340 C.3   106  MET106      0.0401
     35  CG        28.7790  -15.4270    5.0380 C.3   106  MET106      0.0596
     36  SD        29.4140  -15.0000    3.4010 S.3   106  MET106     -0.1393
     37  CE        30.2910  -16.5050    3.0200 C.3   106  MET106      0.0692
     38  N         30.8270  -15.0820    9.2480 N.am  107  GLY107     -0.1957
     39  CA        32.0800  -15.0370    9.9890 C.3   107  GLY107      0.1869
     40  C         33.2200  -14.6470    9.0620 C.2   107  GLY107      0.2309
     41  O         33.0050  -14.2160    7.9260 O.2   107  GLY107     -0.2863
     42  N         35.9740  -17.3390    5.5070 N.3   110  GLY110     -0.1210
     43  CA        35.9740  -17.3480    4.0440 C.3   110  GLY110      0.1956
     44  C         36.4070  -16.0510    3.3800 C.2   110  GLY110      0.2611
     45  O         36.2090  -15.8710    2.1780 O.2   110  GLY110     -0.2717
     46  N         37.0070  -15.1460    4.1520 N.am  111  VAL111     -0.1979
     47  CA        37.4320  -13.8480    3.6310 C.3   111  VAL111      0.1595
     48  C         38.2950  -13.9450    2.3710 C.2   111  VAL111      0.2287
     49  O         38.0700  -13.2190    1.4080 O.2   111  VAL111     -0.2864
     50  CB        38.1400  -12.9970    4.7230 C.3   111  VAL111      0.0276
     51  CG1       38.7150  -11.7170    4.1360 C.3   111  VAL111      0.0022
     52  CG2       37.1630  -12.6610    5.8380 C.3   111  VAL111      0.0022
     53  N         36.5730  -14.0860   -0.8740 N.3   114  PHE114     -0.1241
     54  CA        35.9580  -12.8410   -1.3510 C.3   114  PHE114      0.1605
     55  C         36.9930  -11.7790   -1.7200 C.2   114  PHE114      0.2264
     56  O         36.6470  -10.6030   -1.8720 O.2   114  PHE114     -0.2867
     57  CB        34.9180  -12.3190   -0.3530 C.3   114  PHE114      0.0534
     58  CG        33.6470  -13.1290   -0.3290 C.ar  114  PHE114     -0.0203
     59  CD1       33.5800  -14.3240    0.3810 C.ar  114  PHE114     -0.0042
     60  CD2       32.5210  -12.7030   -1.0210 C.ar  114  PHE114     -0.0042
     61  CE1       32.4060  -15.0810    0.3960 C.ar  114  PHE114     -0.0003
     62  CE2       31.3480  -13.4470   -1.0110 C.ar  114  PHE114     -0.0003
     63  CZ        31.2890  -14.6460   -0.2930 C.ar  114  PHE114     -0.0000
     64  N         35.8420   -9.7220   -4.7590 N.3   117  SER117     -0.1202
     65  CA        34.6880   -8.8690   -4.4070 C.3   117  SER117      0.2020
     66  C         35.1440   -7.6670   -3.5840 C.2   117  SER117      0.2618
     67  O         34.7230   -6.5270   -3.8180 O.2   117  SER117     -0.2717
     68  CB        33.6450   -9.6430   -3.5880 C.3   117  SER117      0.2103
     69  OG        32.9070  -10.5790   -4.3590 O.3   117  SER117     -0.2182
     70  N         36.0010   -7.9340   -2.6050 N.am  118  LEU118     -0.1979
     71  CA        36.5150   -6.8950   -1.7180 C.3   118  LEU118      0.1596
     72  C         37.2960   -5.8480   -2.4750 C.2   118  LEU118      0.2287
     73  O         37.1480   -4.6570   -2.2070 O.2   118  LEU118     -0.2864
     74  CB        37.3900   -7.5070   -0.6290 C.3   118  LEU118      0.0297
     75  CG        36.6470   -8.3270    0.4240 C.3   118  LEU118      0.0022
     76  CD1       37.6480   -9.1510    1.2160 C.3   118  LEU118      0.0001
     77  CD2       35.8020   -7.4420    1.3520 C.3   118  LEU118      0.0001
     78  N         34.8160   -3.7080   -4.3390 N.3   121  LEU121     -0.1245
     79  CA        34.1790   -2.7860   -3.4000 C.3   121  LEU121      0.1561
     80  C         35.0950   -1.6170   -3.0400 C.2   121  LEU121      0.2260
     81  O         34.6580   -0.4590   -3.0410 O.2   121  LEU121     -0.2867
     82  CB        33.7320   -3.5270   -2.1360 C.3   121  LEU121      0.0270
     83  CG        32.5420   -4.4750   -2.2970 C.3   121  LEU121      0.0019
     84  CD1       32.3720   -5.3250   -1.0420 C.3   121  LEU121      0.0001
     85  CD2       31.2400   -3.7700   -2.6310 C.3   121  LEU121      0.0001
     86  N         29.8540  -10.8700   -6.1280 N.3   133  LEU133     -0.1245
     87  CA        29.3470  -11.3280   -4.8350 C.3   133  LEU133      0.1561
     88  C         28.3320  -12.4560   -4.9870 C.2   133  LEU133      0.2260
     89  O         28.2720  -13.3400   -4.1450 O.2   133  LEU133     -0.2867
     90  CB        28.7220  -10.1610   -4.0730 C.3   133  LEU133      0.0270
     91  CG        29.6960   -9.1880   -3.4050 C.3   133  LEU133      0.0019
     92  CD1       28.9980   -7.8670   -3.1110 C.3   133  LEU133      0.0001
     93  CD2       30.3040   -9.7760   -2.1360 C.3   133  LEU133      0.0001
     94  N         25.1170   -3.1960   -1.0000 N.3   153  PHE153     -0.1241
     95  CA        26.4730   -2.9330   -1.4900 C.3   153  PHE153      0.1605
     96  C         26.4640   -2.2110   -2.8310 C.2   153  PHE153      0.2264
     97  O         27.3270   -1.3680   -3.0770 O.2   153  PHE153     -0.2867
     98  CB        27.2360   -4.2390   -1.6980 C.3   153  PHE153      0.0534
     99  CG        27.9450   -4.7650   -0.4810 C.ar  153  PHE153     -0.0203
    100  CD1       27.7610   -6.0910   -0.1060 C.ar  153  PHE153     -0.0042
    101  CD2       28.8410   -3.9750    0.2390 C.ar  153  PHE153     -0.0042
    102  CE1       28.4340   -6.6210    0.9790 C.ar  153  PHE153     -0.0003
    103  CE2       29.5130   -4.4990    1.3270 C.ar  153  PHE153     -0.0003
    104  CZ        29.3170   -5.8190    1.6880 C.ar  153  PHE153     -0.0000
@<TRIPOS>BOND
     1    86    87    1
     2    88    87    1
     3    88    89    2
     4    87    90    1
     5    64    65    1
     6    65    68    1
     7    65    66    1
     8    69    68    1
     9    78    79    1
    10    90    91    1
    11    67    66    2
    12    66    70   am
    13    91    92    1
    14    91    93    1
    15    79    80    1
    16    79    82    1
    17    97    96    2
    18    81    80    2
    19    96    95    1
    20    85    83    1
    21    70    71    1
    22    72    73    2
    23    72    71    1
    24    83    82    1
    25    83    84    1
    26    56    55    2
    27    55    54    1
    28    71    74    1
    29    98    95    1
    30    98    99    1
    31    95    94    1
    32    54    53    1
    33    54    57    1
    34    60    62   ar
    35    60    58   ar
    36    62    63   ar
    37    74    75    1
    38    99   100   ar
    39    99   101   ar
    40    57    58    1
    41    58    59   ar
    42    63    61   ar
    43   100   102   ar
    44   101   103   ar
    45    59    61   ar
    46    75    76    1
    47    75    77    1
    48   102   104   ar
    49   103   104   ar
    50    49    48    2
    51    22    20   am
    52    21    20    2
    53    45    44    2
    54    20    19    1
    55    48    47    1
    56    37    36    1
    57    44    43    1
    58    44    46   am
    59    36    35    1
    60    19    18    1
    61    47    46    1
    62    47    50    1
    63    43    42    1
    64    51    50    1
    65    18    15    1
    66    50    52    1
    67     9    10    1
    68     8     6    1
    69    35    34    1
    70    13    10    1
    71    10    11    1
    72     4     3    2
    73    15    14    1
    74    15    16    1
    75     1     2    1
    76     2     3    1
    77     2     5    1
    78    34    31    1
    79     6     5    1
    80     6     7    1
    81    11    12    2
    82    16    17    2
    83    16    23   am
    84    23    24    1
    85    31    30    1
    86    31    32    1
    87    41    40    2
    88    29    27    1
    89    33    32    2
    90    32    38   am
    91    24    27    1
    92    24    25    1
    93    27    28    1
    94    40    39    1
    95    38    39    1
    96    25    26    2
