@<TRIPOS>MOLECULE
tmp/3hthB00.pdb
 120 118 0 0 0
SMALL
GASTEIGER

@<TRIPOS>ATOM
      1  N        -35.9770   19.9120   13.9520 N.3    62  GLY62      -0.1210
      2  CA       -36.6370   20.7320   14.9550 C.3    62  GLY62       0.1956
      3  C        -38.1100   21.0340   14.7440 C.2    62  GLY62       0.2611
      4  O        -38.8490   21.2640   15.7090 O.2    62  GLY62      -0.2717
      5  N        -38.5500   21.0630   13.4930 N.am   63  PHE63      -0.1976
      6  CA       -39.9500   21.3290   13.2310 C.3    63  PHE63       0.1639
      7  C        -40.7390   20.2090   13.8810 C.2    63  PHE63       0.2290
      8  O        -41.7200   20.4480   14.5880 O.2    63  PHE63      -0.2864
      9  CB       -40.2370   21.3380   11.7390 C.3    63  PHE63       0.0560
     10  CG       -41.6780   21.5750   11.4160 C.ar   63  PHE63      -0.0200
     11  CD1      -42.3020   22.7520   11.8100 C.ar   63  PHE63      -0.0042
     12  CD2      -42.4250   20.6090   10.7510 C.ar   63  PHE63      -0.0042
     13  CE1      -43.6460   22.9700   11.5540 C.ar   63  PHE63      -0.0003
     14  CE2      -43.7760   20.8130   10.4880 C.ar   63  PHE63      -0.0003
     15  CZ       -44.3880   22.0000   10.8930 C.ar   63  PHE63      -0.0000
     16  N        -41.4240   20.5720   17.4100 N.3    66  VAL66      -0.1245
     17  CA       -42.4590   21.5750   17.6630 C.3    66  VAL66       0.1561
     18  C        -43.8610   20.9820   17.5120 C.2    66  VAL66       0.2260
     19  O        -44.7740   21.3050   18.2710 O.2    66  VAL66      -0.2867
     20  CB       -42.2790   22.7920   16.7080 C.3    66  VAL66       0.0252
     21  CG1      -43.4440   23.7600   16.8290 C.3    66  VAL66       0.0019
     22  CG2      -40.9840   23.5000   17.0420 C.3    66  VAL66       0.0019
     23  N        -48.8610   28.2430   15.6140 N.3    87  VAL87      -0.1231
     24  CA       -47.5000   27.7210   15.6440 C.3    87  VAL87       0.1692
     25  C        -46.5680   28.6060   14.8140 C.2    87  VAL87       0.2591
     26  O        -45.4340   28.8800   15.2220 O.2    87  VAL87      -0.2718
     27  CB       -47.4400   26.2810   15.1020 C.3    87  VAL87       0.0266
     28  CG1      -46.0090   25.8030   15.0920 C.3    87  VAL87       0.0020
     29  CG2      -48.2870   25.3670   15.9590 C.3    87  VAL87       0.0020
     30  N        -47.0540   29.0430   13.6520 N.am   88  LEU88      -0.1980
     31  CA       -46.2810   29.9060   12.7730 C.3    88  LEU88       0.1596
     32  C        -46.0230   31.2040   13.5000 C.2    88  LEU88       0.2287
     33  O        -44.9090   31.7230   13.4870 O.2    88  LEU88      -0.2864
     34  CB       -47.0460   30.2040   11.4860 C.3    88  LEU88       0.0297
     35  CG       -47.2630   29.0390   10.5230 C.3    88  LEU88       0.0022
     36  CD1      -47.8660   29.5560    9.2180 C.3    88  LEU88       0.0001
     37  CD2      -45.9330   28.3580   10.2440 C.3    88  LEU88       0.0001
     38  N        -43.2160   30.6190   15.7880 N.3    91  TRP91      -0.1241
     39  CA       -41.9390   30.4310   15.1170 C.3    91  TRP91       0.1605
     40  C        -41.4040   31.7480   14.5600 C.2    91  TRP91       0.2264
     41  O        -40.2330   32.0850   14.7650 O.2    91  TRP91      -0.2867
     42  CB       -42.0540   29.3970   13.9910 C.3    91  TRP91       0.0550
     43  CG       -40.7180   29.1070   13.3480 C.ar   91  TRP91       0.0003
     44  CD1      -39.5740   28.7020   13.9810 C.ar   91  TRP91       0.0946
     45  CD2      -40.3810   29.2380   11.9610 C.ar   91  TRP91       0.0152
     46  NE1      -38.5520   28.5780   13.0770 N.ar   91  TRP91      -0.2442
     47  CE2      -39.0170   28.9010   11.8300 C.ar   91  TRP91       0.0810
     48  CE3      -41.0990   29.6080   10.8170 C.ar   91  TRP91       0.0012
     49  CZ2      -38.3550   28.9250   10.6000 C.ar   91  TRP91       0.0191
     50  CZ3      -40.4410   29.6310    9.5960 C.ar   91  TRP91       0.0001
     51  CH2      -39.0820   29.2920    9.4980 C.ar   91  TRP91       0.0015
     52  N        -32.5450   28.8180    8.7150 N.3   102  GLU102     -0.1231
     53  CA       -33.2050   27.6700    8.1260 C.3   102  GLU102      0.1699
     54  C        -33.7420   27.9710    6.7440 C.2   102  GLU102      0.2592
     55  O        -33.6140   27.1680    5.8370 O.2   102  GLU102     -0.2718
     56  CB       -34.3500   27.1990    9.0250 C.3   102  GLU102      0.0402
     57  CG       -33.9610   26.9590   10.4880 C.3   102  GLU102      0.1161
     58  CD       -35.1340   26.4630   11.3400 C.2   102  GLU102      0.3649
     59  OE1      -35.1290   26.7200   12.5730 O.co2 102  GLU102     -0.2457
     60  OE2      -36.0550   25.8070   10.7760 O.co2 102  GLU102     -0.2457
     61  N        -34.3430   29.1370    6.5780 N.am  103  TYR103     -0.1976
     62  CA       -34.9120   29.4950    5.2840 C.3   103  TYR103      0.1639
     63  C        -33.8670   29.6960    4.2190 C.2   103  TYR103      0.2290
     64  O        -34.0940   29.3780    3.0520 O.2   103  TYR103     -0.2864
     65  CB       -35.7560   30.7660    5.3860 C.3   103  TYR103      0.0560
     66  CG       -37.2080   30.5090    5.1450 C.ar  103  TYR103     -0.0198
     67  CD1      -37.6580   30.0380    3.9210 C.ar  103  TYR103     -0.0009
     68  CD2      -38.1270   30.6750    6.1620 C.ar  103  TYR103     -0.0009
     69  CE1      -39.0010   29.7310    3.7270 C.ar  103  TYR103      0.0417
     70  CE2      -39.4580   30.3740    5.9860 C.ar  103  TYR103      0.0417
     71  CZ       -39.8910   29.9010    4.7760 C.ar  103  TYR103      0.1957
     72  OH       -41.2150   29.5800    4.6510 O.3   103  TYR103     -0.2866
     73  N        -32.7990   26.2960    3.0370 N.3   106  TYR106     -0.1241
     74  CA       -33.9220   25.7590    2.2730 C.3   106  TYR106      0.1605
     75  C        -34.0420   26.3990    0.8850 C.2   106  TYR106      0.2264
     76  O        -34.0880   25.7070   -0.1280 O.2   106  TYR106     -0.2867
     77  CB       -35.2020   26.0090    3.0590 C.3   106  TYR106      0.0534
     78  CG       -36.4940   25.7150    2.3340 C.ar  106  TYR106     -0.0201
     79  CD1      -36.8540   24.4080    1.9870 C.ar  106  TYR106     -0.0009
     80  CD2      -37.4160   26.7340    2.0900 C.ar  106  TYR106     -0.0009
     81  CE1      -38.1070   24.1280    1.4290 C.ar  106  TYR106      0.0417
     82  CE2      -38.6730   26.4640    1.5320 C.ar  106  TYR106      0.0417
     83  CZ       -39.0100   25.1640    1.2100 C.ar  106  TYR106      0.1957
     84  OH       -40.2560   24.9100    0.6950 O.3   106  TYR106     -0.2866
     85  N        -38.4600   18.0180    3.9270 N.3   122  TRP122     -0.1241
     86  CA       -39.2060   18.9280    4.7760 C.3   122  TRP122      0.1605
     87  C        -40.6970   18.9590    4.4060 C.2   122  TRP122      0.2264
     88  O        -41.5720   18.7500    5.2500 O.2   122  TRP122     -0.2867
     89  CB       -38.5990   20.3250    4.6500 C.3   122  TRP122      0.0550
     90  CG       -39.5360   21.3760    5.0510 C.ar  122  TRP122      0.0003
     91  CD1      -40.4280   22.0340    4.2530 C.ar  122  TRP122      0.0946
     92  CD2      -39.7910   21.8060    6.3800 C.ar  122  TRP122      0.0152
     93  NE1      -41.2330   22.8450    5.0130 N.ar  122  TRP122     -0.2442
     94  CE2      -40.8630   22.7210    6.3250 C.ar  122  TRP122      0.0810
     95  CE3      -39.2190   21.5050    7.6200 C.ar  122  TRP122      0.0012
     96  CZ2      -41.3740   23.3300    7.4560 C.ar  122  TRP122      0.0191
     97  CZ3      -39.7210   22.1110    8.7410 C.ar  122  TRP122      0.0001
     98  CH2      -40.7920   23.0140    8.6560 C.ar  122  TRP122      0.0015
     99  N        -48.7790   27.6640    3.1640 N.3   146  LEU146     -0.1231
    100  CA       -48.1330   27.8990    4.4320 C.3   146  LEU146      0.1693
    101  C        -46.7480   28.5120    4.2070 C.2   146  LEU146      0.2592
    102  O        -46.3390   29.4450    4.8890 O.2   146  LEU146     -0.2718
    103  CB       -48.0460   26.5650    5.1540 C.3   146  LEU146      0.0284
    104  CG       -47.4310   26.5000    6.5320 C.3   146  LEU146      0.0019
    105  CD1      -48.3600   25.7100    7.4270 C.3   146  LEU146      0.0001
    106  CD2      -46.0410   25.8610    6.4400 C.3   146  LEU146      0.0001
    107  N        -46.0420   27.9950    3.2190 N.am  147  ASP147     -0.1974
    108  CA       -44.7100   28.4720    2.9040 C.3   147  ASP147      0.1709
    109  C        -44.7670   29.9240    2.4170 C.2   147  ASP147      0.2293
    110  O        -43.9720   30.7690    2.8400 O.2   147  ASP147     -0.2864
    111  CB       -44.1110   27.5560    1.8260 C.3   147  ASP147      0.1436
    112  CG       -42.5980   27.4640    1.8970 C.2   147  ASP147      0.3671
    113  OD1      -42.0080   27.8450    2.9290 O.co2 147  ASP147     -0.2456
    114  OD2      -41.9930   26.9860    0.9230 O.co2 147  ASP147     -0.2456
    115  N        -45.1850   32.6210    5.1530 N.3   150  CYS150     -0.1235
    116  CA       -43.9760   32.9090    5.9360 C.3   150  CYS150      0.1677
    117  C        -43.0710   33.7850    5.1190 C.2   150  CYS150      0.2270
    118  O        -42.4780   34.7450    5.6200 O.2   150  CYS150     -0.2867
    119  CB       -43.1950   31.6400    6.2590 C.3   150  CYS150      0.0956
    120  SG       -43.9370   30.6750    7.5290 S.3   150  CYS150     -0.0801
@<TRIPOS>BOND
     1    76    75    2
     2    84    83    1
     3    75    74    1
     4   114   112   ar
     5    83    81   ar
     6    83    82   ar
     7    81    79   ar
     8    82    80   ar
     9   111   112    1
    10   111   108    1
    11   112   113   ar
    12    79    78   ar
    13    80    78   ar
    14    74    73    1
    15    74    77    1
    16    78    77    1
    17   109   110    2
    18   109   108    1
    19   108   107    1
    20    64    63    2
    21    99   100    1
    22   107   101   am
    23    69    67   ar
    24    69    71   ar
    25    67    66   ar
    26    85    86    1
    27   101   100    1
    28   101   102    2
    29    63    62    1
    30    91    93   ar
    31    91    90   ar
    32    87    86    1
    33    87    88    2
    34   100   103    1
    35    89    86    1
    36    89    90    1
    37    72    71    1
    38    71    70   ar
    39    93    94   ar
    40    90    92   ar
    41   117   118    2
    42   117   116    1
    43    66    65    1
    44    66    68   ar
    45   115   116    1
    46   103   104    1
    47    62    65    1
    48    62    61    1
    49    55    54    2
    50   116   119    1
    51    70    68   ar
    52   119   120    1
    53    94    92   ar
    54    94    96   ar
    55    92    95   ar
    56   106   104    1
    57   104   105    1
    58    61    54   am
    59    54    53    1
    60    96    98   ar
    61    95    97   ar
    62    53    52    1
    63    53    56    1
    64    98    97   ar
    65    56    57    1
    66    36    35    1
    67    51    50   ar
    68    51    49   ar
    69    50    48   ar
    70    37    35    1
    71    57    58    1
    72    14    12   ar
    73    14    15   ar
    74    35    34    1
    75    49    47   ar
    76    12    10   ar
    77    60    58   ar
    78    48    45   ar
    79    15    13   ar
    80    58    59   ar
    81    10     9    1
    82    10    11   ar
    83    34    31    1
    84    13    11   ar
    85     9     6    1
    86    47    45   ar
    87    47    46   ar
    88    45    43   ar
    89    31    32    1
    90    31    30    1
    91    46    44   ar
    92     6     5    1
    93     6     7    1
    94    43    44   ar
    95    43    42    1
    96    33    32    2
    97     5     3   am
    98    30    25   am
    99     7     8    2
   100     1     2    1
   101    42    39    1
   102    40    41    2
   103    40    39    1
   104     3     2    1
   105     3     4    2
   106    25    26    2
   107    25    24    1
   108    28    27    1
   109    27    24    1
   110    27    29    1
   111    39    38    1
   112    23    24    1
   113    20    21    1
   114    20    22    1
   115    20    17    1
   116    16    17    1
   117    18    17    1
   118    18    19    2
