@<TRIPOS>MOLECULE
tmp/3htiA00.pdb
 154 149 0 0 0
SMALL
GASTEIGER

@<TRIPOS>ATOM
      1  N         20.1760  -16.1070    6.7200 N.3    54  LEU54      -0.1245
      2  CA        20.4710  -17.5230    6.8850 C.3    54  LEU54       0.1561
      3  C         21.5020  -17.9850    5.8700 C.2    54  LEU54       0.2260
      4  O         22.4290  -18.7010    6.2190 O.2    54  LEU54      -0.2867
      5  CB        19.1990  -18.3540    6.7330 C.3    54  LEU54       0.0270
      6  CG        18.0880  -17.9920    7.7160 C.3    54  LEU54       0.0019
      7  CD1       16.7890  -18.6240    7.2660 C.3    54  LEU54       0.0001
      8  CD2       18.4650  -18.4380    9.1110 C.3    54  LEU54       0.0001
      9  N         24.7480  -17.2340    7.0370 N.3    57  ALA57      -0.1231
     10  CA        25.1360  -18.0900    8.1450 C.3    57  ALA57       0.1694
     11  C         25.4620  -19.4780    7.6350 C.2    57  ALA57       0.2592
     12  O         26.3810  -20.1170    8.1290 O.2    57  ALA57      -0.2718
     13  CB        24.0220  -18.1620    9.1620 C.3    57  ALA57       0.0304
     14  N         24.6980  -19.9450    6.6490 N.am   58  ASN58      -0.1974
     15  CA        24.9240  -21.2620    6.0660 C.3    58  ASN58       0.1688
     16  C         26.2940  -21.2690    5.4280 C.2    58  ASN58       0.2292
     17  O         27.0720  -22.1960    5.6170 O.2    58  ASN58      -0.2864
     18  CB        23.8720  -21.5950    5.0020 C.3    58  ASN58       0.1181
     19  CG        22.5480  -22.0460    5.6000 C.2    58  ASN58       0.2629
     20  OD1       22.4880  -22.4750    6.7430 O.2    58  ASN58      -0.2716
     21  ND2       21.4810  -21.9690    4.8100 N.am   58  ASN58      -0.0877
     22  N         28.6030  -19.3990    6.2170 N.3    60  GLY60      -0.1210
     23  CA        29.5640  -19.2700    7.2930 C.3    60  GLY60       0.1956
     24  C         29.9940  -20.6470    7.7660 C.2    60  GLY60       0.2611
     25  O         31.1750  -20.9000    7.9690 O.2    60  GLY60      -0.2717
     26  N         29.0280  -21.5460    7.9290 N.am   61  PHE61      -0.1976
     27  CA        29.3140  -22.9010    8.3720 C.3    61  PHE61       0.1639
     28  C         29.9240  -23.7560    7.2680 C.2    61  PHE61       0.2290
     29  O         30.8800  -24.4920    7.5000 O.2    61  PHE61      -0.2864
     30  CB        28.0500  -23.5820    8.8560 C.3    61  PHE61       0.0560
     31  CG        28.2870  -24.9550    9.4000 C.ar   61  PHE61      -0.0200
     32  CD1       28.7630  -25.1320   10.6910 C.ar   61  PHE61      -0.0042
     33  CD2       28.0390  -26.0730    8.6250 C.ar   61  PHE61      -0.0042
     34  CE1       28.9810  -26.3970   11.1980 C.ar   61  PHE61      -0.0003
     35  CE2       28.2560  -27.3400    9.1250 C.ar   61  PHE61      -0.0003
     36  CZ        28.7250  -27.5050   10.4080 C.ar   61  PHE61      -0.0000
     37  N         33.6770  -23.5980    7.3220 N.3    64  VAL64      -0.1245
     38  CA        34.5130  -24.3470    8.2570 C.3    64  VAL64       0.1561
     39  C         34.5730  -25.8090    7.8350 C.2    64  VAL64       0.2260
     40  O         35.5590  -26.4950    8.0840 O.2    64  VAL64      -0.2867
     41  CB        33.9850  -24.2690    9.7220 C.3    64  VAL64       0.0252
     42  CG1       33.0610  -23.0900    9.8840 C.3    64  VAL64       0.0019
     43  CG2       33.3020  -25.5530   10.1140 C.3    64  VAL64       0.0019
     44  N         32.6060  -29.3390   15.0580 N.3    86  LEU86      -0.1245
     45  CA        31.7150  -28.7970   16.0770 C.3    86  LEU86       0.1561
     46  C         32.5190  -27.9270   17.0370 C.2    86  LEU86       0.2260
     47  O         32.3220  -26.7230   17.1100 O.2    86  LEU86      -0.2867
     48  CB        31.0400  -29.9130   16.8780 C.3    86  LEU86       0.0270
     49  CG        29.6410  -30.3250   16.4480 C.3    86  LEU86       0.0019
     50  CD1       28.9960  -31.1470   17.5550 C.3    86  LEU86       0.0001
     51  CD2       28.8100  -29.0920   16.1810 C.3    86  LEU86       0.0001
     52  N         33.3990  -24.2780   16.4480 N.3    89  TRP89      -0.1241
     53  CA        32.5090  -23.1380   16.5560 C.3    89  TRP89       0.1605
     54  C         31.7360  -23.1250   17.8680 C.2    89  TRP89       0.2264
     55  O         31.4400  -22.0570   18.4010 O.2    89  TRP89      -0.2867
     56  CB        31.5640  -23.0620   15.3500 C.3    89  TRP89       0.0550
     57  CG        30.2590  -23.7910   15.4620 C.ar   89  TRP89       0.0003
     58  CD1       30.0370  -25.1130   15.2290 C.ar   89  TRP89       0.0946
     59  CD2       28.9810  -23.2170   15.7700 C.ar   89  TRP89       0.0152
     60  NE1       28.6980  -25.4020   15.3640 N.ar   89  TRP89      -0.2442
     61  CE2       28.0270  -24.2560   15.6970 C.ar   89  TRP89       0.0810
     62  CE3       28.5500  -21.9270   16.1000 C.ar   89  TRP89       0.0012
     63  CZ2       26.6650  -24.0470   15.9400 C.ar   89  TRP89       0.0191
     64  CZ3       27.1900  -21.7170   16.3440 C.ar   89  TRP89       0.0001
     65  CH2       26.2670  -22.7750   16.2620 C.ar   89  TRP89       0.0015
     66  N         23.7930  -17.5260   17.4230 N.3   100  GLU100     -0.1231
     67  CA        23.7120  -18.1660   16.1090 C.3   100  GLU100      0.1699
     68  C         22.7720  -19.3620   16.1120 C.2   100  GLU100      0.2592
     69  O         22.1310  -19.6600   15.1100 O.2   100  GLU100     -0.2718
     70  CB        25.0980  -18.6330   15.6610 C.3   100  GLU100      0.0402
     71  CG        26.1050  -17.5200   15.5360 C.3   100  GLU100      0.1161
     72  CD        27.4700  -18.0220   15.1550 C.2   100  GLU100      0.3649
     73  OE1       28.0530  -18.8000   15.9330 O.co2 100  GLU100     -0.2457
     74  OE2       27.9580  -17.6390   14.0760 O.co2 100  GLU100     -0.2457
     75  N         22.7100  -20.0520   17.2440 N.am  101  TYR101     -0.1976
     76  CA        21.8510  -21.2170   17.3870 C.3   101  TYR101      0.1639
     77  C         20.4420  -20.7630   17.7610 C.2   101  TYR101      0.2290
     78  O         19.4480  -21.4150   17.4320 O.2   101  TYR101     -0.2864
     79  CB        22.4030  -22.1310   18.4780 C.3   101  TYR101      0.0560
     80  CG        21.6970  -23.4600   18.5710 C.ar  101  TYR101     -0.0198
     81  CD1       21.8000  -24.3960   17.5430 C.ar  101  TYR101     -0.0009
     82  CD2       20.9200  -23.7820   19.6790 C.ar  101  TYR101     -0.0009
     83  CE1       21.1470  -25.6200   17.6180 C.ar  101  TYR101      0.0417
     84  CE2       20.2640  -25.0010   19.7600 C.ar  101  TYR101      0.0417
     85  CZ        20.3840  -25.9120   18.7260 C.ar  101  TYR101      0.1957
     86  OH        19.7360  -27.1150   18.7960 O.3   101  TYR101     -0.2866
     87  N         18.4690  -18.8220   16.5930 N.3   103  LEU103     -0.1231
     88  CA        17.9350  -18.1750   15.4110 C.3   103  LEU103      0.1693
     89  C         17.9200  -19.2640   14.3550 C.2   103  LEU103      0.2592
     90  O         17.1740  -19.2000   13.3810 O.2   103  LEU103     -0.2718
     91  CB        18.8310  -17.0120   14.9860 C.3   103  LEU103      0.0284
     92  CG        20.1180  -17.3150   14.2270 C.3   103  LEU103      0.0019
     93  CD1       19.8120  -17.4390   12.7460 C.3   103  LEU103      0.0001
     94  CD2       21.1130  -16.1930   14.4490 C.3   103  LEU103      0.0001
     95  N         18.7760  -20.2610   14.5580 N.am  104  TYR104     -0.1976
     96  CA        18.8310  -21.4040   13.6690 C.3   104  TYR104      0.1639
     97  C         17.5240  -22.0810   13.9860 C.2   104  TYR104      0.2290
     98  O         16.8090  -22.5240   13.0990 O.2   104  TYR104     -0.2864
     99  CB        19.9960  -22.3240   14.0350 C.3   104  TYR104      0.0560
    100  CG        19.7850  -23.7840   13.6710 C.ar  104  TYR104     -0.0198
    101  CD1       19.4910  -24.1680   12.3630 C.ar  104  TYR104     -0.0009
    102  CD2       19.9040  -24.7830   14.6360 C.ar  104  TYR104     -0.0009
    103  CE1       19.3250  -25.5040   12.0260 C.ar  104  TYR104      0.0417
    104  CE2       19.7410  -26.1300   14.3040 C.ar  104  TYR104      0.0417
    105  CZ        19.4550  -26.4790   12.9960 C.ar  104  TYR104      0.1957
    106  OH        19.3360  -27.8020   12.6620 O.3   104  TYR104     -0.2866
    107  N         15.8970  -23.5320    4.5370 N.3   116  VAL116     -0.1231
    108  CA        17.2400  -22.9720    4.4350 C.3   116  VAL116      0.1692
    109  C         17.9710  -23.1080    5.7590 C.2   116  VAL116      0.2591
    110  O         19.1980  -23.0760    5.8070 O.2   116  VAL116     -0.2718
    111  CB        17.2120  -21.4790    4.0660 C.3   116  VAL116      0.0266
    112  CG1       18.6090  -21.0200    3.7160 C.3   116  VAL116      0.0020
    113  CG2       16.2680  -21.2360    2.9060 C.3   116  VAL116      0.0020
    114  N         17.2000  -23.2640    6.8280 N.am  117  ALA117     -0.1980
    115  CA        17.7420  -23.3920    8.1670 C.3   117  ALA117      0.1597
    116  C         18.4540  -24.7180    8.3800 C.2   117  ALA117      0.2287
    117  O         19.3240  -24.8300    9.2380 O.2   117  ALA117     -0.2864
    118  CB        16.6300  -23.2300    9.1860 C.3   117  ALA117      0.0319
    119  N         22.5810  -26.8340    6.2520 N.3   120  TRP120     -0.1241
    120  CA        23.8600  -27.3040    6.7640 C.3   120  TRP120      0.1605
    121  C         23.8450  -28.8180    6.7670 C.2   120  TRP120      0.2264
    122  O         24.8440  -29.4520    6.4480 O.2   120  TRP120     -0.2867
    123  CB        24.1290  -26.7910    8.1920 C.3   120  TRP120      0.0550
    124  CG        23.3050  -27.4600    9.2670 C.ar  120  TRP120      0.0003
    125  CD1       22.1200  -27.0290    9.7780 C.ar  120  TRP120      0.0946
    126  CD2       23.5790  -28.7200    9.9040 C.ar  120  TRP120      0.0152
    127  NE1       21.6340  -27.9360   10.6870 N.ar  120  TRP120     -0.2442
    128  CE2       22.5080  -28.9850   10.7810 C.ar  120  TRP120      0.0810
    129  CE3       24.6240  -29.6550    9.8100 C.ar  120  TRP120      0.0012
    130  CZ2       22.4470  -30.1500   11.5610 C.ar  120  TRP120      0.0191
    131  CZ3       24.5620  -30.8130   10.5820 C.ar  120  TRP120      0.0001
    132  CH2       23.4800  -31.0500   11.4430 C.ar  120  TRP120      0.0015
    133  N         24.5670  -34.8250   15.9520 N.3   144  LEU144     -0.1231
    134  CA        25.1390  -33.4790   15.8550 C.3   144  LEU144      0.1693
    135  C         24.1030  -32.4680   16.3490 C.2   144  LEU144      0.2592
    136  O         24.4250  -31.5760   17.1330 O.2   144  LEU144     -0.2718
    137  CB        25.5140  -33.1380   14.4170 C.3   144  LEU144      0.0284
    138  CG        26.8880  -33.4910   13.8370 C.3   144  LEU144      0.0019
    139  CD1       27.8250  -33.9720   14.9210 C.3   144  LEU144      0.0001
    140  CD2       26.7130  -34.5290   12.7500 C.3   144  LEU144      0.0001
    141  N         22.8670  -32.6120   15.8740 N.am  145  ASP145     -0.1974
    142  CA        21.7500  -31.7530   16.2830 C.3   145  ASP145      0.1709
    143  C         21.5000  -31.9630   17.7730 C.2   145  ASP145      0.2293
    144  O         21.2960  -31.0180   18.5190 O.2   145  ASP145     -0.2864
    145  CB        20.4610  -32.1260   15.5340 C.3   145  ASP145      0.1436
    146  CG        20.1240  -31.1540   14.4150 C.2   145  ASP145      0.3671
    147  OD1       20.1110  -29.9260   14.6620 O.co2 145  ASP145     -0.2456
    148  OD2       19.8570  -31.6150   13.2880 O.co2 145  ASP145     -0.2456
    149  N         24.3820  -30.2520   19.8850 N.3   148  CYS148     -0.1235
    150  CA        24.3360  -28.7940   19.9580 C.3   148  CYS148      0.1677
    151  C         23.2830  -28.3630   20.9740 C.2   148  CYS148      0.2270
    152  O         23.5220  -27.4630   21.7680 O.2   148  CYS148     -0.2867
    153  CB        24.0440  -28.1790   18.5950 C.3   148  CYS148      0.0956
    154  SG        25.4090  -28.3570   17.4270 S.3   148  CYS148     -0.0801
@<TRIPOS>BOND
     1   113   111    1
     2   112   111    1
     3   111   108    1
     4   108   107    1
     5   108   109    1
     6    21    19   am
     7    18    19    1
     8    18    15    1
     9    16    17    2
    10    16    15    1
    11    19    20    2
    12   109   110    2
    13   109   114   am
    14     3     4    2
    15     3     2    1
    16    15    14    1
    17    22    23    1
    18   119   120    1
    19   122   121    2
    20    14    11   am
    21     1     2    1
    22     5     2    1
    23     5     6    1
    24   120   121    1
    25   120   123    1
    26   114   115    1
    27     9    10    1
    28     7     6    1
    29    28    29    2
    30    28    27    1
    31    23    24    1
    32    37    38    1
    33    11    12    2
    34    11    10    1
    35     6     8    1
    36    24    26   am
    37    24    25    2
    38    39    40    2
    39    39    38    1
    40    26    27    1
    41    10    13    1
    42   115   116    1
    43   115   118    1
    44   123   124    1
    45    38    41    1
    46    27    30    1
    47   116   117    2
    48    33    35   ar
    49    33    31   ar
    50    30    31    1
    51    35    36   ar
    52   124   125   ar
    53   124   126   ar
    54    31    32   ar
    55    41    42    1
    56    41    43    1
    57   125   127   ar
    58   129   126   ar
    59   129   131   ar
    60   126   128   ar
    61    36    34   ar
    62   131   132   ar
    63   127   128   ar
    64    32    34   ar
    65   128   130   ar
    66   132   130   ar
    67   103   101   ar
    68   103   105   ar
    69   101   100   ar
    70   106   105    1
    71    93    92    1
    72   140   138    1
    73   105   104   ar
    74    98    97    2
    75   148   146   ar
    76    90    89    2
    77    96    97    1
    78    96    99    1
    79    96    95    1
    80   100    99    1
    81   100   102   ar
    82   138   137    1
    83   138   139    1
    84    74    72   ar
    85    92    94    1
    86    92    91    1
    87   104   102   ar
    88    89    95   am
    89    89    88    1
    90   146   147   ar
    91   146   145    1
    92   137   134    1
    93    91    88    1
    94    44    45    1
    95    69    68    2
    96    72    71    1
    97    72    73   ar
    98    58    60   ar
    99    58    57   ar
   100    56    57    1
   101    56    53    1
   102    60    61   ar
   103    88    87    1
   104    57    59   ar
   105   145   142    1
   106    71    70    1
   107    70    67    1
   108    61    59   ar
   109    61    63   ar
   110    59    62   ar
   111   134   133    1
   112   134   135    1
   113   141   142    1
   114   141   135   am
   115    63    65   ar
   116    45    48    1
   117    45    46    1
   118    62    64   ar
   119    67    68    1
   120    67    66    1
   121    68    75   am
   122    51    49    1
   123    65    64   ar
   124   142   143    1
   125   135   136    2
   126    52    53    1
   127    49    48    1
   128    49    50    1
   129    53    54    1
   130    46    47    2
   131    75    76    1
   132    76    77    1
   133    76    79    1
   134   154   153    1
   135    78    77    2
   136    81    83   ar
   137    81    80   ar
   138    83    85   ar
   139   143   144    2
   140    54    55    2
   141    79    80    1
   142    80    82   ar
   143   153   150    1
   144    85    86    1
   145    85    84   ar
   146    82    84   ar
   147   149   150    1
   148   150   151    1
   149   151   152    2
