@<TRIPOS>MOLECULE
tmp/3htjB00.pdb
 159 153 0 0 0
SMALL
GASTEIGER

@<TRIPOS>ATOM
      1  N        -13.4100   10.6110   -6.3400 N.3    56  ALA56      -0.1231
      2  CA       -14.0500   11.9040   -6.4160 C.3    56  ALA56       0.1694
      3  C        -12.9950   12.9320   -6.0600 C.2    56  ALA56       0.2592
      4  O        -12.8260   13.9310   -6.7650 O.2    56  ALA56      -0.2718
      5  CB       -15.1970   11.9760   -5.4390 C.3    56  ALA56       0.0304
      6  N        -12.2870   12.6750   -4.9610 N.am   57  ASN57      -0.1974
      7  CA       -11.2280   13.5570   -4.4780 C.3    57  ASN57       0.1688
      8  C        -10.3810   14.0520   -5.6500 C.2    57  ASN57       0.2292
      9  O         -9.9900   15.2200   -5.6910 O.2    57  ASN57      -0.2864
     10  CB       -10.3590   12.8120   -3.4500 C.3    57  ASN57       0.1181
     11  CG       -11.0260   12.7100   -2.0760 C.2    57  ASN57       0.2629
     12  OD1      -10.7030   11.8310   -1.2750 O.2    57  ASN57      -0.2716
     13  ND2      -11.9470   13.6200   -1.7970 N.am   57  ASN57      -0.0877
     14  N        -11.1860   14.6180   -8.8730 N.3    59  GLY59      -0.1210
     15  CA       -11.8610   15.7020   -9.5590 C.3    59  GLY59       0.1956
     16  C        -11.4810   17.0780   -9.0470 C.2    59  GLY59       0.2611
     17  O        -11.3400   18.0150   -9.8300 O.2    59  GLY59      -0.2717
     18  N        -11.2990   17.2070   -7.7370 N.am   60  PHE60      -0.1976
     19  CA       -10.9390   18.4900   -7.1460 C.3    60  PHE60       0.1639
     20  C         -9.5770   18.9600   -7.6340 C.2    60  PHE60       0.2290
     21  O         -9.3200   20.1600   -7.7680 O.2    60  PHE60      -0.2864
     22  CB       -10.9400   18.3940   -5.6200 C.3    60  PHE60       0.0560
     23  CG       -10.8990   19.7260   -4.9430 C.ar   60  PHE60      -0.0200
     24  CD1      -11.1360   20.8960   -5.6660 C.ar   60  PHE60      -0.0042
     25  CD2      -10.6410   19.8240   -3.5860 C.ar   60  PHE60      -0.0042
     26  CE1      -11.1150   22.1490   -5.0420 C.ar   60  PHE60      -0.0003
     27  CE2      -10.6200   21.0700   -2.9500 C.ar   60  PHE60      -0.0003
     28  CZ       -10.8580   22.2340   -3.6830 C.ar   60  PHE60      -0.0000
     29  N         -8.0710   18.0400  -10.6870 N.3    62  ARG62      -0.1231
     30  CA        -8.3030   18.4030  -12.0800 C.3    62  ARG62       0.1694
     31  C         -8.7760   19.8430  -12.1770 C.2    62  ARG62       0.2591
     32  O         -8.4170   20.5660  -13.1050 O.2    62  ARG62      -0.2718
     33  CB        -9.3600   17.4760  -12.6860 C.3    62  ARG62       0.0321
     34  CG        -9.1500   16.0140  -12.3380 C.3    62  ARG62       0.0489
     35  CD       -10.1460   15.0960  -13.0280 C.3    62  ARG62       0.2205
     36  NE       -11.4960   15.1590  -12.4640 N.pl3  62  ARG62      -0.0865
     37  CZ       -12.3610   16.1510  -12.6610 C.cat  62  ARG62       0.5346
     38  NH1      -12.0340   17.1910  -13.4170 N.pl3  62  ARG62       0.1354
     39  NH2      -13.5630   16.0940  -12.1050 N.pl3  62  ARG62       0.1354
     40  N         -9.5780   20.2470  -11.1980 N.am   63  VAL63      -0.1980
     41  CA       -10.1350   21.5860  -11.1450 C.3    63  VAL63       0.1595
     42  C         -9.0850   22.6510  -10.8740 C.2    63  VAL63       0.2287
     43  O         -9.0010   23.6460  -11.5900 O.2    63  VAL63      -0.2864
     44  CB       -11.2400   21.6510  -10.0800 C.3    63  VAL63       0.0276
     45  CG1      -11.6820   23.0900   -9.8570 C.3    63  VAL63       0.0022
     46  CG2      -12.4200   20.8020  -10.5290 C.3    63  VAL63       0.0022
     47  N        -11.0800   31.6180   -5.6030 N.3    81  LEU81      -0.1245
     48  CA       -11.8410   30.6170   -4.8680 C.3    81  LEU81       0.1561
     49  C        -13.3530   30.8370   -4.9740 C.2    81  LEU81       0.2260
     50  O        -14.1040   29.9380   -5.3600 O.2    81  LEU81      -0.2867
     51  CB       -11.4400   30.6390   -3.3960 C.3    81  LEU81       0.0270
     52  CG       -10.0300   30.2210   -2.9910 C.3    81  LEU81       0.0019
     53  CD1       -9.9670   30.1430   -1.4750 C.3    81  LEU81       0.0001
     54  CD2       -9.6890   28.8760   -3.5970 C.3    81  LEU81       0.0001
     55  N        -14.4870   30.0330   -8.7680 N.3    84  VAL84      -0.1231
     56  CA       -14.5510   28.6190   -9.1000 C.3    84  VAL84       0.1692
     57  C        -15.5440   27.8670   -8.2290 C.2    84  VAL84       0.2591
     58  O        -16.1290   26.8680   -8.6510 O.2    84  VAL84      -0.2718
     59  CB       -13.1500   27.9790   -8.9750 C.3    84  VAL84       0.0266
     60  CG1      -13.2130   26.5010   -9.3070 C.3    84  VAL84       0.0020
     61  CG2      -12.1780   28.6770   -9.9120 C.3    84  VAL84       0.0020
     62  N        -15.7330   28.3550   -7.0080 N.am   85  LEU85      -0.1980
     63  CA       -16.6700   27.7290   -6.0870 C.3    85  LEU85       0.1596
     64  C        -18.1090   27.8560   -6.6340 C.2    85  LEU85       0.2287
     65  O        -18.8660   26.8810   -6.6360 O.2    85  LEU85      -0.2864
     66  CB       -16.5420   28.3630   -4.6930 C.3    85  LEU85       0.0297
     67  CG       -17.0080   27.5960   -3.4330 C.3    85  LEU85       0.0022
     68  CD1      -18.1620   28.3450   -2.8390 C.3    85  LEU85       0.0001
     69  CD2      -17.4180   26.1490   -3.7200 C.3    85  LEU85       0.0001
     70  N        -18.6920   24.9300   -9.2510 N.3    88  TRP88      -0.1241
     71  CA       -19.0040   23.5830   -8.8150 C.3    88  TRP88       0.1605
     72  C        -20.4210   23.4550   -8.2660 C.2    88  TRP88       0.2264
     73  O        -21.0660   22.4150   -8.4030 O.2    88  TRP88      -0.2867
     74  CB       -18.0020   23.1210   -7.7720 C.3    88  TRP88       0.0550
     75  CG       -18.2040   21.6890   -7.3950 C.ar   88  TRP88       0.0003
     76  CD1      -18.3070   20.6260   -8.2450 C.ar   88  TRP88       0.0946
     77  CD2      -18.2790   21.1510   -6.0680 C.ar   88  TRP88       0.0152
     78  NE1      -18.4340   19.4590   -7.5330 N.ar   88  TRP88      -0.2442
     79  CE2      -18.4220   19.7500   -6.1950 C.ar   88  TRP88       0.0810
     80  CE3      -18.2390   21.7180   -4.7830 C.ar   88  TRP88       0.0012
     81  CZ2      -18.5230   18.9020   -5.0830 C.ar   88  TRP88       0.0191
     82  CZ3      -18.3420   20.8810   -3.6840 C.ar   88  TRP88       0.0001
     83  CH2      -18.4820   19.4830   -3.8420 C.ar   88  TRP88       0.0015
     84  N        -20.7850   13.6820   -3.5790 N.3    99  GLU99      -0.1231
     85  CA       -19.4860   13.9150   -2.9550 C.3    99  GLU99       0.1699
     86  C        -19.6700   14.2730   -1.4750 C.2    99  GLU99       0.2592
     87  O        -19.1070   13.6170   -0.5920 O.2    99  GLU99      -0.2718
     88  CB       -18.7350   15.0410   -3.6760 C.3    99  GLU99       0.0402
     89  CG       -18.0610   14.6120   -4.9730 C.3    99  GLU99       0.1161
     90  CD       -17.0520   15.6390   -5.4800 C.2    99  GLU99       0.3649
     91  OE1      -16.5330   16.4250   -4.6500 O.co2  99  GLU99      -0.2457
     92  OE2      -16.7620   15.6490   -6.7000 O.co2  99  GLU99      -0.2457
     93  N        -20.4680   15.3030   -1.2010 N.am  100  TYR100     -0.1976
     94  CA       -20.7030   15.7040    0.1790 C.3   100  TYR100      0.1639
     95  C        -21.3390   14.5830    0.9720 C.2   100  TYR100      0.2290
     96  O        -20.9920   14.3540    2.1270 O.2   100  TYR100     -0.2864
     97  CB       -21.5830   16.9560    0.2470 C.3   100  TYR100      0.0560
     98  CG       -20.8000   18.1610    0.6730 C.ar  100  TYR100     -0.0198
     99  CD1      -20.4570   18.3570    2.0140 C.ar  100  TYR100     -0.0009
    100  CD2      -20.3020   19.0530   -0.2720 C.ar  100  TYR100     -0.0009
    101  CE1      -19.6180   19.4180    2.4060 C.ar  100  TYR100      0.0417
    102  CE2      -19.4670   20.1110    0.0990 C.ar  100  TYR100      0.0417
    103  CZ       -19.1260   20.2920    1.4380 C.ar  100  TYR100      0.1957
    104  OH       -18.3020   21.3430    1.7890 O.3   100  TYR100     -0.2866
    105  N        -10.2060   15.5390    2.1190 N.3   119  TRP119     -0.1227
    106  CA       -11.2360   16.2790    1.4010 C.3   119  TRP119      0.1737
    107  C        -10.6820   17.3610    0.4780 C.2   119  TRP119      0.2595
    108  O        -10.4970   17.1510   -0.7310 O.2   119  TRP119     -0.2718
    109  CB       -12.1930   16.8950    2.4230 C.3   119  TRP119      0.0564
    110  CG       -13.4310   17.5980    1.8740 C.ar  119  TRP119      0.0003
    111  CD1      -13.8170   18.8860    2.1330 C.ar  119  TRP119      0.0946
    112  CD2      -14.4840   17.0220    1.0790 C.ar  119  TRP119      0.0152
    113  NE1      -15.0370   19.1430    1.5640 N.ar  119  TRP119     -0.2442
    114  CE2      -15.4730   18.0220    0.9090 C.ar  119  TRP119      0.0810
    115  CE3      -14.6910   15.7630    0.4990 C.ar  119  TRP119      0.0012
    116  CZ2      -16.6540   17.8000    0.1810 C.ar  119  TRP119      0.0191
    117  CZ3      -15.8670   15.5450   -0.2240 C.ar  119  TRP119      0.0001
    118  CH2      -16.8310   16.5600   -0.3740 C.ar  119  TRP119      0.0015
    119  N        -10.4290   18.5290    1.0540 N.am  120  ALA120     -0.1980
    120  CA        -9.9060   19.6430    0.2890 C.3   120  ALA120      0.1597
    121  C         -8.6100   19.2470   -0.4010 C.2   120  ALA120      0.2287
    122  O         -8.0850   20.0230   -1.1960 O.2   120  ALA120     -0.2864
    123  CB        -9.6730   20.8380    1.1900 C.3   120  ALA120      0.0319
    124  N         -6.3570   21.2540   -2.7630 N.3   123  VAL123     -0.1245
    125  CA        -6.2090   22.6860   -2.4380 C.3   123  VAL123      0.1561
    126  C         -5.6450   22.8910   -1.0100 C.2   123  VAL123      0.2260
    127  O         -4.8150   23.7740   -0.7860 O.2   123  VAL123     -0.2867
    128  CB        -7.5570   23.4790   -2.5530 C.3   123  VAL123      0.0252
    129  CG1       -8.0760   23.4400   -3.9930 C.3   123  VAL123      0.0019
    130  CG2       -8.5790   22.9400   -1.5500 C.3   123  VAL123      0.0019
    131  N        -10.5690   26.2660    4.4520 N.3   140  VAL140     -0.1245
    132  CA       -11.3460   25.0770    4.1330 C.3   140  VAL140      0.1561
    133  C        -12.5270   24.9810    5.0880 C.2   140  VAL140      0.2260
    134  O        -13.5760   24.4480    4.7260 O.2   140  VAL140     -0.2867
    135  CB       -10.4610   23.7960    4.1950 C.3   140  VAL140      0.0252
    136  CG1      -11.3290   22.5400    4.3570 C.3   140  VAL140      0.0019
    137  CG2       -9.6010   23.6990    2.9010 C.3   140  VAL140      0.0019
    138  N        -15.1110   27.3770    3.7060 N.3   143  LEU143     -0.1231
    139  CA       -15.7020   26.7820    2.5140 C.3   143  LEU143      0.1693
    140  C        -16.7760   25.7660    2.9000 C.2   143  LEU143      0.2592
    141  O        -17.8860   25.7940    2.3780 O.2   143  LEU143     -0.2718
    142  CB       -14.6330   26.0930    1.6600 C.3   143  LEU143      0.0284
    143  CG       -13.8510   26.7930    0.5410 C.3   143  LEU143      0.0019
    144  CD1      -14.8110   27.3430   -0.4840 C.3   143  LEU143      0.0001
    145  CD2      -13.0000   27.8870    1.1040 C.3   143  LEU143      0.0001
    146  N        -16.4330   24.8670    3.8160 N.am  144  ASP144     -0.1974
    147  CA       -17.3600   23.8450    4.2810 C.3   144  ASP144      0.1709
    148  C        -18.6420   24.4560    4.8480 C.2   144  ASP144      0.2293
    149  O        -19.7570   24.0710    4.4700 O.2   144  ASP144     -0.2864
    150  CB       -16.7030   22.9920    5.3640 C.3   144  ASP144      0.1436
    151  CG       -16.2300   21.6550    4.8450 C.2   144  ASP144      0.3671
    152  OD1      -16.9070   21.0980    3.9520 O.co2 144  ASP144     -0.2456
    153  OD2      -15.1980   21.1480    5.3410 O.co2 144  ASP144     -0.2456
    154  N        -20.5880   26.0420    2.0920 N.3   147  CYS147     -0.1235
    155  CA       -21.1970   25.0730    1.1790 C.3   147  CYS147      0.1677
    156  C        -22.3290   24.3010    1.8280 C.2   147  CYS147      0.2270
    157  O        -23.2470   23.8300    1.1540 O.2   147  CYS147     -0.2867
    158  CB       -20.1530   24.0690    0.6880 C.3   147  CYS147      0.0956
    159  SG       -19.1310   24.6280   -0.6830 S.3   147  CYS147     -0.0801
@<TRIPOS>BOND
     1    38    37    1
     2    32    31    2
     3    35    36    1
     4    35    34    1
     5    33    34    1
     6    33    30    1
     7    37    36    2
     8    37    39    1
     9    31    30    1
    10    31    40   am
    11    30    29    1
    12    43    42    2
    13    40    41    1
    14    41    42    1
    15    41    44    1
    16    46    44    1
    17    44    45    1
    18    61    59    1
    19    17    16    2
    20    15    16    1
    21    15    14    1
    22    60    59    1
    23    70    71    1
    24    56    59    1
    25    56    55    1
    26    56    57    1
    27    16    18   am
    28    71    72    1
    29    71    74    1
    30    58    57    2
    31    73    72    2
    32    76    78   ar
    33    76    75   ar
    34    57    62   am
    35    74    75    1
    36    21    20    2
    37    18    19    1
    38    20    19    1
    39    78    79   ar
    40    75    77   ar
    41    19    22    1
    42    62    63    1
    43     4     3    2
    44    92    90   ar
    45    65    64    2
    46    64    63    1
    47     2     1    1
    48     2     3    1
    49     2     5    1
    50    79    77   ar
    51    79    81   ar
    52    63    66    1
    53    77    80   ar
    54     3     6   am
    55     9     8    2
    56    24    26   ar
    57    24    23   ar
    58     8     7    1
    59    22    23    1
    60    47    48    1
    61    90    89    1
    62    90    91   ar
    63    50    49    2
    64    81    83   ar
    65    26    28   ar
    66    49    48    1
    67    89    88    1
    68     6     7    1
    69    23    25   ar
    70    48    51    1
    71    80    82   ar
    72    66    67    1
    73     7    10    1
    74   129   128    1
    75    83    82   ar
    76    69    67    1
    77    28    27   ar
    78    88    85    1
    79    54    52    1
    80    25    27   ar
    81    84    85    1
    82    10    11    1
    83    67    68    1
    84    51    52    1
    85    52    53    1
    86    85    86    1
    87   124   125    1
    88   128   125    1
    89   128   130    1
    90   125   126    1
    91    11    13   am
    92    11    12    2
    93    86    93   am
    94    86    87    2
    95    93    94    1
    96   122   121    2
    97   126   127    2
    98   108   107    2
    99   159   158    1
   100   144   143    1
   101   121   120    1
   102   118   117   ar
   103   118   116   ar
   104   100   102   ar
   105   100    98   ar
   106   117   115   ar
   107   102   103   ar
   108    94    97    1
   109    94    95    1
   110   116   114   ar
   111    97    98    1
   112   120   119    1
   113   120   123    1
   114   107   119   am
   115   107   106    1
   116   115   112   ar
   117   143   145    1
   118   143   142    1
   119    98    99   ar
   120   158   155    1
   121   114   112   ar
   122   114   113   ar
   123    95    96    2
   124   112   110   ar
   125   157   156    2
   126   155   156    1
   127   155   154    1
   128   106   105    1
   129   106   109    1
   130   103   104    1
   131   103   101   ar
   132   113   111   ar
   133   142   139    1
   134   110   111   ar
   135   110   109    1
   136    99   101   ar
   137   141   140    2
   138   139   140    1
   139   139   138    1
   140   140   146   am
   141   137   135    1
   142   146   147    1
   143   152   151   ar
   144   132   135    1
   145   132   131    1
   146   132   133    1
   147   135   136    1
   148   147   148    1
   149   147   150    1
   150   149   148    2
   151   134   133    2
   152   151   153   ar
   153   151   150    1
