@<TRIPOS>MOLECULE
tmp/3htnA00.pdb
 110 109 0 0 0
SMALL
GASTEIGER

@<TRIPOS>ATOM
      1  N         12.6090   40.8750    1.2640 N.3    51  ARG51      -0.1245
      2  CA        11.9530   41.6330    0.2030 C.3    51  ARG51       0.1563
      3  C         10.4930   41.8410    0.5230 C.2    51  ARG51       0.2260
      4  O          9.7960   40.8830    0.8730 O.2    51  ARG51      -0.2867
      5  CB        12.0460   40.9080   -1.1270 C.3    51  ARG51       0.0307
      6  CG        11.3340   41.6340   -2.2590 C.3    51  ARG51       0.0489
      7  CD        11.7030   41.1310   -3.6070 C.3    51  ARG51       0.2205
      8  NE        13.0740   41.4690   -3.9420 N.pl3  51  ARG51      -0.0865
      9  CZ        13.7310   41.0710   -5.0340 C.cat  51  ARG51       0.5346
     10  NH1       13.1930   40.2300   -5.8800 N.pl3  51  ARG51       0.1354
     11  NH2       14.9610   41.4680   -5.2430 N.pl3  51  ARG51       0.1354
     12  N          7.2160   43.1260   -1.5720 N.3    53  PHE53      -0.1241
     13  CA         6.6640   43.4250   -2.8890 C.3    53  PHE53       0.1605
     14  C          5.3140   44.1150   -2.7710 C.2    53  PHE53       0.2264
     15  O          4.4550   43.6420   -2.0460 O.2    53  PHE53      -0.2867
     16  CB         6.5530   42.1250   -3.6460 C.3    53  PHE53       0.0534
     17  CG         5.9060   42.2380   -4.9700 C.ar   53  PHE53      -0.0203
     18  CD1        6.5410   42.8470   -6.0080 C.ar   53  PHE53      -0.0042
     19  CD2        4.6410   41.7160   -5.1720 C.ar   53  PHE53      -0.0042
     20  CE1        5.9270   42.9410   -7.2740 C.ar   53  PHE53      -0.0003
     21  CE2        4.0380   41.7850   -6.4210 C.ar   53  PHE53      -0.0003
     22  CZ         4.6930   42.3940   -7.4700 C.ar   53  PHE53      -0.0000
     23  N          9.2220   47.1520   -5.2780 N.3    60  TYR60      -0.1241
     24  CA         9.6540   46.2000   -4.2850 C.3    60  TYR60       0.1605
     25  C         10.8010   46.7970   -3.5250 C.2    60  TYR60       0.2264
     26  O         11.5340   47.6210   -4.0510 O.2    60  TYR60      -0.2867
     27  CB        10.0530   44.8640   -4.9030 C.3    60  TYR60       0.0534
     28  CG        11.1910   44.8970   -5.8600 C.ar   60  TYR60      -0.0201
     29  CD1       10.9850   45.2140   -7.1890 C.ar   60  TYR60      -0.0009
     30  CD2       12.4920   44.6760   -5.4430 C.ar   60  TYR60      -0.0009
     31  CE1       12.0550   45.2640   -8.1010 C.ar   60  TYR60       0.0417
     32  CE2       13.5550   44.7130   -6.3390 C.ar   60  TYR60       0.0417
     33  CZ        13.3250   45.0040   -7.6630 C.ar   60  TYR60       0.1957
     34  OH        14.3770   45.0460   -8.5670 O.3    60  TYR60      -0.2866
     35  N         14.5760   26.2800   -7.9480 N.3    84  TYR84      -0.1227
     36  CA        13.8710   27.4870   -7.5460 C.3    84  TYR84       0.1736
     37  C         13.4650   27.3110   -6.0900 C.2    84  TYR84       0.2595
     38  O         12.7330   26.3850   -5.7650 O.2    84  TYR84      -0.2718
     39  CB        12.6370   27.7130   -8.4080 C.3    84  TYR84       0.0548
     40  CG        12.0250   29.0610   -8.1420 C.ar   84  TYR84      -0.0200
     41  CD1       11.0420   29.2360   -7.1860 C.ar   84  TYR84      -0.0009
     42  CD2       12.4350   30.1700   -8.8470 C.ar   84  TYR84      -0.0009
     43  CE1       10.4730   30.4650   -6.9480 C.ar   84  TYR84       0.0417
     44  CE2       11.8690   31.4300   -8.6080 C.ar   84  TYR84       0.0417
     45  CZ        10.8880   31.5670   -7.6550 C.ar   84  TYR84       0.1957
     46  OH        10.3260   32.8000   -7.4030 O.3    84  TYR84      -0.2866
     47  N         14.0000   28.1630   -5.2200 N.am   85  LEU85      -0.1966
     48  CA        13.6450   28.1570   -3.8190 C.3    85  LEU85       0.1728
     49  C         12.7330   29.3330   -3.5160 C.2    85  LEU85       0.2616
     50  O         12.9760   30.4300   -3.9710 O.2    85  LEU85      -0.2715
     51  CB        14.8810   28.2860   -2.9440 C.3    85  LEU85       0.0311
     52  CG        15.9020   27.1800   -3.0670 C.3    85  LEU85       0.0022
     53  CD1       16.9900   27.3740   -2.0040 C.3    85  LEU85       0.0001
     54  CD2       15.2280   25.8510   -2.9300 C.3    85  LEU85       0.0001
     55  N         11.6670   29.0930   -2.7520 N.am   86  HIS86      -0.1973
     56  CA        10.7990   30.1300   -2.2450 C.3    86  HIS86       0.1656
     57  C         10.7950   29.9690   -0.7360 C.2    86  HIS86       0.2291
     58  O         10.2340   29.0160   -0.2340 O.2    86  HIS86      -0.2864
     59  CB         9.4040   29.9990   -2.8480 C.3    86  HIS86       0.0771
     60  CG         8.4850   31.1190   -2.5050 C.ar   86  HIS86       0.0820
     61  ND1        7.1190   31.0000   -2.5970 N.ar   86  HIS86      -0.2267
     62  CD2        8.7270   32.3580   -2.0010 C.ar   86  HIS86       0.1154
     63  CE1        6.5590   32.1360   -2.2020 C.ar   86  HIS86       0.1986
     64  NE2        7.5150   32.9840   -1.8570 N.ar   86  HIS86      -0.2212
     65  N          9.6960   37.6330    3.1810 N.3   102  HIS102     -0.1226
     66  CA        10.2670   36.8450    2.0980 C.3   102  HIS102      0.1752
     67  C         11.7750   36.9800    2.1400 C.2   102  HIS102      0.2596
     68  O         12.3040   38.0720    2.0750 O.2   102  HIS102     -0.2718
     69  CB         9.7020   37.3330    0.7780 C.3   102  HIS102      0.0759
     70  CG        10.4130   36.8480   -0.4450 C.ar  102  HIS102      0.0818
     71  ND1       10.9990   35.6070   -0.5610 N.ar  102  HIS102     -0.2268
     72  CD2       10.5340   37.4330   -1.6570 C.ar  102  HIS102      0.1154
     73  CE1       11.4780   35.4710   -1.7900 C.ar  102  HIS102      0.1986
     74  NE2       11.2230   36.5730   -2.4620 N.ar  102  HIS102     -0.2212
     75  N         12.4520   35.8450    2.2900 N.am  103  LEU103     -0.1966
     76  CA        13.8870   35.7970    2.4410 C.3   103  LEU103      0.1728
     77  C         14.6370   35.8530    1.1280 C.2   103  LEU103      0.2616
     78  O         14.3950   35.0310    0.2370 O.2   103  LEU103     -0.2715
     79  CB        14.2710   34.4880    3.1410 C.3   103  LEU103      0.0311
     80  CG        15.7490   34.1940    3.3130 C.3   103  LEU103      0.0022
     81  CD1       16.4430   35.2340    4.2340 C.3   103  LEU103      0.0001
     82  CD2       15.9280   32.7640    3.8340 C.3   103  LEU103      0.0001
     83  N         15.5610   36.8020    1.0070 N.am  104  LEU104     -0.1977
     84  CA        16.5100   36.8360   -0.1200 C.3   104  LEU104      0.1596
     85  C         17.8700   36.2650    0.2210 C.2   104  LEU104      0.2287
     86  O         18.4740   35.5700   -0.5910 O.2   104  LEU104     -0.2864
     87  CB        16.7170   38.2630   -0.6350 C.3   104  LEU104      0.0297
     88  CG        15.4860   38.9590   -1.2300 C.3   104  LEU104      0.0022
     89  CD1       15.9340   40.2770   -1.8540 C.3   104  LEU104      0.0001
     90  CD2       14.7680   38.0590   -2.2700 C.3   104  LEU104      0.0001
     91  N          3.3500   39.7350  -11.5800 N.3   132  GLY132     -0.1210
     92  CA         4.7780   39.9080  -11.3860 C.3   132  GLY132      0.1956
     93  C          5.3860   38.8870  -10.4530 C.2   132  GLY132      0.2612
     94  O          6.3900   39.1830   -9.8010 O.2   132  GLY132     -0.2717
     95  N          4.7610   37.7040  -10.3640 N.am  133  LEU133     -0.1965
     96  CA         5.1800   36.6370   -9.4710 C.3   133  LEU133      0.1728
     97  C          5.3100   35.2970  -10.1880 C.2   133  LEU133      0.2616
     98  O          4.6150   35.0200  -11.1640 O.2   133  LEU133     -0.2715
     99  CB         4.1620   36.4810   -8.3640 C.3   133  LEU133      0.0311
    100  CG         3.9490   37.7110   -7.4820 C.3   133  LEU133      0.0022
    101  CD1        2.8420   37.4430   -6.4710 C.3   133  LEU133      0.0001
    102  CD2        5.2470   38.1220   -6.7930 C.3   133  LEU133      0.0001
    103  N          6.2000   34.4670   -9.6710 N.am  134  ASN134     -0.1972
    104  CA         6.4080   33.1230  -10.1690 C.3   134  ASN134      0.1688
    105  C          5.4820   32.1750   -9.4140 C.2   134  ASN134      0.2292
    106  O          5.7110   31.8540   -8.2580 O.2   134  ASN134     -0.2864
    107  CB         7.8560   32.7280   -9.9480 C.3   134  ASN134      0.1181
    108  CG         8.8030   33.6190  -10.6920 C.2   134  ASN134      0.2629
    109  OD1        8.6020   33.8800  -11.8670 O.2   134  ASN134     -0.2716
    110  ND2        9.8500   34.0540  -10.0270 N.am  134  ASN134     -0.0877
@<TRIPOS>BOND
     1   109   108    2
     2    91    92    1
     3    92    93    1
     4    98    97    2
     5   108   110   am
     6   108   107    1
     7    93    95   am
     8    93    94    2
     9    95    96    1
    10    97   103   am
    11    97    96    1
    12   104   107    1
    13   104   103    1
    14   104   105    1
    15    96    99    1
    16   105   106    2
    17    42    44   ar
    18    42    40   ar
    19    44    45   ar
    20    34    33    1
    21    39    40    1
    22    39    36    1
    23    99   100    1
    24    40    41   ar
    25    31    33   ar
    26    31    29   ar
    27    35    36    1
    28    33    32   ar
    29    45    46    1
    30    45    43   ar
    31    36    37    1
    32   100   102    1
    33   100   101    1
    34    22    20   ar
    35    22    21   ar
    36    20    18   ar
    37    29    28   ar
    38    41    43   ar
    39    21    19   ar
    40    32    30   ar
    41    37    38    2
    42    37    47   am
    43    18    17   ar
    44    10     9    1
    45    28    30   ar
    46    28    27    1
    47    23    24    1
    48    11     9    1
    49    47    48    1
    50    19    17   ar
    51     9     8    2
    52    17    16    1
    53    27    24    1
    54    24    25    1
    55    26    25    2
    56    50    49    2
    57     8     7    1
    58    48    49    1
    59    48    51    1
    60    16    13    1
    61     7     6    1
    62    49    55   am
    63    52    51    1
    64    52    54    1
    65    52    53    1
    66    13    14    1
    67    13    12    1
    68    59    60    1
    69    59    56    1
    70    14    15    2
    71    55    56    1
    72    61    60   ar
    73    61    63   ar
    74    60    62   ar
    75    74    73   ar
    76    74    72   ar
    77    90    88    1
    78     6     5    1
    79    56    57    1
    80    63    64   ar
    81    62    64   ar
    82    89    88    1
    83    73    71   ar
    84    72    70   ar
    85    88    87    1
    86     5     2    1
    87    57    58    2
    88    87    84    1
    89    86    85    2
    90    71    70   ar
    91    70    69    1
    92    84    85    1
    93    84    83    1
    94     2     3    1
    95     2     1    1
    96    78    77    2
    97     3     4    2
    98    69    66    1
    99    83    77   am
   100    77    76    1
   101    68    67    2
   102    66    67    1
   103    66    65    1
   104    67    75   am
   105    75    76    1
   106    76    79    1
   107    79    80    1
   108    80    82    1
   109    80    81    1
