@<TRIPOS>MOLECULE
tmp/3htpA01.pdb
 117 112 0 0 0
SMALL
GASTEIGER

@<TRIPOS>ATOM
      1  N         16.2990   44.2920   14.5560 N.3    91  TYR91      -0.1241
      2  CA        15.4810   43.0930   14.5210 C.3    91  TYR91       0.1605
      3  C         15.8230   42.2700   15.7640 C.2    91  TYR91       0.2264
      4  O         16.9510   41.8020   15.9180 O.2    91  TYR91      -0.2867
      5  CB        15.7500   42.2730   13.2630 C.3    91  TYR91       0.0534
      6  CG        14.7700   41.1320   13.1070 C.ar   91  TYR91      -0.0201
      7  CD1       13.6800   41.2370   12.2540 C.ar   91  TYR91      -0.0009
      8  CD2       14.9090   39.9620   13.8570 C.ar   91  TYR91      -0.0009
      9  CE1       12.7570   40.2110   12.1490 C.ar   91  TYR91       0.0417
     10  CE2       13.9890   38.9320   13.7620 C.ar   91  TYR91       0.0417
     11  CZ        12.9170   39.0630   12.9040 C.ar   91  TYR91       0.1957
     12  OH        12.0070   38.0390   12.7950 O.3    91  TYR91      -0.2866
     13  N         13.5790   39.6350   -0.9910 N.3   130  LYS130     -0.1245
     14  CA        12.4680   39.8640   -0.0750 C.3   130  LYS130      0.1561
     15  C         12.9300   40.0260    1.3680 C.2   130  LYS130      0.2260
     16  O         12.1470   40.4110    2.2360 O.2   130  LYS130     -0.2867
     17  CB        11.4700   38.7060   -0.1800 C.3   130  LYS130      0.0271
     18  CG        10.8460   38.5700   -1.5680 C.3   130  LYS130      0.0035
     19  CD         9.9500   39.7690   -1.8850 C.3   130  LYS130      0.0206
     20  CE         9.5500   39.8230   -3.3530 C.3   130  LYS130      0.1093
     21  NZ        10.7080   40.1610   -4.2310 N.3   130  LYS130     -0.1314
     22  N         13.5990   41.7170    3.8540 N.3   132  VAL132     -0.1231
     23  CA        13.4550   43.0160    4.4780 C.3   132  VAL132      0.1692
     24  C         12.4220   42.9580    5.5960 C.2   132  VAL132      0.2593
     25  O         11.5130   42.1360    5.5680 O.2   132  VAL132     -0.2718
     26  CB        13.0260   44.0530    3.4410 C.3   132  VAL132      0.0266
     27  CG1       12.5710   45.3050    4.1250 C.3   132  VAL132      0.0020
     28  CG2       14.1820   44.3490    2.5100 C.3   132  VAL132      0.0020
     29  N         12.5690   43.8280    6.5860 N.am  133  THR133     -0.1939
     30  CA        11.6390   43.8550    7.7030 C.3   133  THR133      0.2028
     31  C         11.2650   45.2740    8.0870 C.2   133  THR133      0.2642
     32  O         12.0350   46.2070    7.8790 O.2   133  THR133     -0.2714
     33  CB        12.2300   43.1830    8.9370 C.3   133  THR133      0.1808
     34  OG1       11.3100   43.3180   10.0240 O.3   133  THR133     -0.2208
     35  CG2       13.5490   43.8390    9.3210 C.3   133  THR133      0.0379
     36  N         10.0780   45.4330    8.6560 N.am  134  ALA134     -0.1977
     37  CA         9.6200   46.7490    9.0720 C.3   134  ALA134      0.1597
     38  C         10.3290   47.1520   10.3590 C.2   134  ALA134      0.2287
     39  O         10.2910   48.3120   10.7670 O.2   134  ALA134     -0.2864
     40  CB         8.1110   46.7370    9.2770 C.3   134  ALA134      0.0319
     41  N         19.3120   38.5110    4.2240 N.3   150  TRP150     -0.1241
     42  CA        18.2370   37.5810    4.5870 C.3   150  TRP150      0.1605
     43  C         17.7870   36.6740    3.4390 C.2   150  TRP150      0.2264
     44  O         16.8820   37.0110    2.6740 O.2   150  TRP150     -0.2867
     45  CB        17.0230   38.3570    5.1130 C.3   150  TRP150      0.0550
     46  CG        16.0460   37.5130    5.9020 C.ar  150  TRP150      0.0003
     47  CD1       15.9890   36.1440    5.9550 C.ar  150  TRP150      0.0946
     48  CD2       15.0010   37.9870    6.7600 C.ar  150  TRP150      0.0152
     49  NE1       14.9760   35.7410    6.7960 N.ar  150  TRP150     -0.2442
     50  CE2       14.3550   36.8510    7.3040 C.ar  150  TRP150      0.0810
     51  CE3       14.5500   39.2610    7.1260 C.ar  150  TRP150      0.0012
     52  CZ2       13.2860   36.9530    8.1940 C.ar  150  TRP150      0.0191
     53  CZ3       13.4880   39.3600    8.0110 C.ar  150  TRP150      0.0001
     54  CH2       12.8690   38.2120    8.5350 C.ar  150  TRP150      0.0015
     55  N         15.8370   33.8550    1.7120 N.3   152  THR152     -0.1218
     56  CA        14.5780   33.1560    1.9170 C.3   152  THR152      0.1862
     57  C         14.3620   32.0930    0.8480 C.2   152  THR152      0.2287
     58  O         15.2660   31.7710    0.0780 O.2   152  THR152     -0.2866
     59  CB        13.3860   34.1170    1.9100 C.3   152  THR152      0.1770
     60  OG1       13.4790   34.9810    0.7750 O.3   152  THR152     -0.2211
     61  CG2       13.3650   34.9400    3.1770 C.3   152  THR152      0.0375
     62  N         17.8930   32.8520   12.0130 N.3   180  HIS180     -0.1241
     63  CA        16.5420   33.3250   12.2800 C.3   180  HIS180      0.1621
     64  C         15.6790   32.2610   12.9530 C.2   180  HIS180      0.2264
     65  O         15.7340   31.0770   12.6020 O.2   180  HIS180     -0.2867
     66  CB        15.9060   33.8010   10.9750 C.3   180  HIS180      0.0745
     67  CG        14.5040   34.3010   11.1210 C.ar  180  HIS180      0.0817
     68  ND1       13.4050   33.4890   10.9580 N.ar  180  HIS180     -0.2268
     69  CD2       14.0240   35.5420   11.3690 C.ar  180  HIS180      0.1154
     70  CE1       12.3050   34.2090   11.0920 C.ar  180  HIS180      0.1986
     71  NE2       12.6540   35.4590   11.3410 N.ar  180  HIS180     -0.2212
     72  N          8.4470   32.1650   15.1460 N.3   183  PRO183     -0.2116
     73  CA         7.7110   31.8240   16.3630 C.3   183  PRO183      0.1372
     74  C          6.9590   30.5010   16.1910 C.2   183  PRO183      0.2244
     75  O          6.9000   29.6710   17.1030 O.2   183  PRO183     -0.2868
     76  CB         6.7770   33.0200   16.5380 C.3   183  PRO183      0.0268
     77  CG         6.5340   33.4680   15.1270 C.3   183  PRO183      0.0207
     78  CD         7.8960   33.3770   14.5110 C.3   183  PRO183      0.0892
     79  N          5.5850   29.2250   10.0360 N.3   187  GLU187     -0.1245
     80  CA         6.3850   30.2620    9.3920 C.3   187  GLU187      0.1567
     81  C          7.7010   29.6590    8.9210 C.2   187  GLU187      0.2260
     82  O          8.2310   30.0310    7.8720 O.2   187  GLU187     -0.2867
     83  CB         6.6550   31.4160   10.3600 C.3   187  GLU187      0.0388
     84  CG         7.2920   32.6310    9.7050 C.3   187  GLU187      0.1160
     85  CD         7.6470   33.7290   10.7030 C.2   187  GLU187      0.3649
     86  OE1        7.0720   34.8380   10.5920 O.co2 187  GLU187     -0.2457
     87  OE2        8.4990   33.4850   11.5920 O.co2 187  GLU187     -0.2457
     88  N          8.7550   30.3320    4.8940 N.3   191  LEU191     -0.1245
     89  CA         9.9950   31.0680    4.6140 C.3   191  LEU191      0.1561
     90  C         11.1940   30.2460    4.1650 C.2   191  LEU191      0.2260
     91  O         11.9320   30.6610    3.2790 O.2   191  LEU191     -0.2867
     92  CB        10.4100   31.8920    5.8370 C.3   191  LEU191      0.0270
     93  CG         9.6170   33.1740    6.0830 C.3   191  LEU191      0.0019
     94  CD1       10.0610   33.8290    7.3680 C.3   191  LEU191      0.0001
     95  CD2        9.8150   34.1080    4.9100 C.3   191  LEU191      0.0001
     96  N          8.1390   44.9690   16.9840 N.3   222  GLY222     -0.1210
     97  CA         7.5450   44.5600   15.7370 C.3   222  GLY222      0.1956
     98  C          7.3050   43.0800   15.5890 C.2   222  GLY222      0.2612
     99  O          6.1680   42.6300   15.6120 O.2   222  GLY222     -0.2717
    100  N          8.3730   42.3080   15.4620 N.am  223  GLN223     -0.1965
    101  CA         8.2120   40.8790   15.2410 C.3   223  GLN223      0.1733
    102  C          8.2260   39.9690   16.4480 C.2   223  GLN223      0.2616
    103  O          8.8090   40.2820   17.4860 O.2   223  GLN223     -0.2715
    104  CB         9.2770   40.3800   14.2630 C.3   223  GLN223      0.0408
    105  CG         9.6370   41.3510   13.1520 C.3   223  GLN223      0.0908
    106  CD         8.4330   42.0590   12.5770 C.2   223  GLN223      0.2608
    107  OE1        8.2330   43.2550   12.8130 O.2   223  GLN223     -0.2717
    108  NE2        7.6160   41.3250   11.8230 N.am  223  GLN223     -0.0878
    109  N          7.5730   38.8240   16.2790 N.am  224  ALA224     -0.1963
    110  CA         7.5130   37.7910   17.3010 C.3   224  ALA224      0.1728
    111  C          8.6550   36.8340   16.9610 C.2   224  ALA224      0.2616
    112  O          8.9270   35.8670   17.6810 O.2   224  ALA224     -0.2715
    113  CB         6.1830   37.0660   17.2370 C.3   224  ALA224      0.0334
    114  N          9.3100   37.1140   15.8370 N.am  225  GLY225     -0.1955
    115  CA        10.4270   36.3020   15.3990 C.3   225  GLY225      0.1869
    116  C         11.6660   36.7240   16.1590 C.2   225  GLY225      0.2309
    117  O         11.6350   37.6890   16.9270 O.2   225  GLY225     -0.2863
@<TRIPOS>BOND
     1    21    20    1
     2    20    19    1
     3    19    18    1
     4    18    17    1
     5    13    14    1
     6    17    14    1
     7    14    15    1
     8    58    57    2
     9    60    59    1
    10    57    56    1
    11    15    16    2
    12    55    56    1
    13    59    56    1
    14    59    61    1
    15    28    26    1
    16    44    43    2
    17    91    90    2
    18    43    42    1
    19    26    27    1
    20    26    23    1
    21    22    23    1
    22    90    89    1
    23    41    42    1
    24    23    24    1
    25    42    45    1
    26    89    88    1
    27    89    92    1
    28    95    93    1
    29    45    46    1
    30    25    24    2
    31    24    29   am
    32    92    93    1
    33    46    47   ar
    34    46    48   ar
    35    47    49   ar
    36    93    94    1
    37    29    30    1
    38    48    51   ar
    39    48    50   ar
    40    49    50   ar
    41    51    53   ar
    42    50    52   ar
    43    30    31    1
    44    30    33    1
    45    82    81    2
    46    32    31    2
    47    53    54   ar
    48    31    36   am
    49    52    54   ar
    50    36    37    1
    51    81    80    1
    52    33    35    1
    53    33    34    1
    54    37    40    1
    55    37    38    1
    56    80    79    1
    57    80    83    1
    58    84    83    1
    59    84    85    1
    60    38    39    2
    61    86    85   ar
    62    85    87   ar
    63    68    70   ar
    64    68    67   ar
    65    66    67    1
    66    66    63    1
    67    70    71   ar
    68    67    69   ar
    69    71    69   ar
    70   108   106   am
    71    62    63    1
    72     9     7   ar
    73     9    11   ar
    74     7     6   ar
    75    63    64    1
    76   106   107    2
    77   106   105    1
    78    65    64    2
    79    12    11    1
    80    11    10   ar
    81     6     5    1
    82     6     8   ar
    83   105   104    1
    84     5     2    1
    85    10     8   ar
    86   104   101    1
    87    78    77    1
    88    78    72    1
    89     2     1    1
    90     2     3    1
    91    77    76    1
    92    72    73    1
    93   101   100    1
    94   101   102    1
    95   115   114    1
    96   115   116    1
    97   100    98   am
    98    98    99    2
    99    98    97    1
   100    97    96    1
   101     3     4    2
   102   114   111   am
   103   116   117    2
   104    74    73    1
   105    74    75    2
   106   109   102   am
   107   109   110    1
   108    73    76    1
   109   102   103    2
   110   111   110    1
   111   111   112    2
   112   113   110    1
