@<TRIPOS>MOLECULE
tmp/3htqA01.pdb
 125 118 0 0 0
SMALL
GASTEIGER

@<TRIPOS>ATOM
      1  N         16.0330   44.1210   14.6250 N.3    91  TYR91      -0.1241
      2  CA        15.2190   42.9120   14.5820 C.3    91  TYR91       0.1605
      3  C         15.5380   42.0450   15.8010 C.2    91  TYR91       0.2264
      4  O         16.6010   41.4390   15.8680 O.2    91  TYR91      -0.2867
      5  CB        15.4990   42.1160   13.3100 C.3    91  TYR91       0.0534
      6  CG        14.5300   40.9780   13.1370 C.ar   91  TYR91      -0.0201
      7  CD1       13.4410   41.0980   12.2870 C.ar   91  TYR91      -0.0009
      8  CD2       14.6580   39.8050   13.8890 C.ar   91  TYR91      -0.0009
      9  CE1       12.5040   40.0930   12.1880 C.ar   91  TYR91       0.0417
     10  CE2       13.7190   38.7880   13.7980 C.ar   91  TYR91       0.0417
     11  CZ        12.6460   38.9430   12.9440 C.ar   91  TYR91       0.1957
     12  OH        11.7070   37.9500   12.8380 O.3    91  TYR91      -0.2866
     13  N         13.6840   39.5760   -0.9400 N.3   130  LYS130     -0.1245
     14  CA        12.5090   39.7270   -0.0920 C.3   130  LYS130      0.1561
     15  C         12.9230   39.8710    1.3670 C.2   130  LYS130      0.2260
     16  O         12.1100   40.2410    2.2180 O.2   130  LYS130     -0.2867
     17  CB        11.5670   38.5250   -0.2550 C.3   130  LYS130      0.0271
     18  CG        10.8460   38.4670   -1.6020 C.3   130  LYS130      0.0035
     19  CD        10.0320   39.7330   -1.8510 C.3   130  LYS130      0.0206
     20  CE         9.3620   39.7070   -3.2170 C.3   130  LYS130      0.1093
     21  NZ         8.5760   40.9470   -3.4810 N.3   130  LYS130     -0.1314
     22  N         13.4700   41.6220    3.6770 N.3   132  VAL132     -0.1231
     23  CA        13.2530   42.9280    4.2760 C.3   132  VAL132      0.1692
     24  C         12.2190   42.8400    5.3940 C.2   132  VAL132      0.2593
     25  O         11.3730   41.9520    5.4000 O.2   132  VAL132     -0.2718
     26  CB        12.7790   43.9360    3.2140 C.3   132  VAL132      0.0266
     27  CG1       12.2180   45.1800    3.8750 C.3   132  VAL132      0.0020
     28  CG2       13.9380   44.3020    2.3150 C.3   132  VAL132      0.0020
     29  N         12.2970   43.7610    6.3440 N.am  133  THR133     -0.1939
     30  CA        11.3720   43.7780    7.4640 C.3   133  THR133      0.2028
     31  C         10.9700   45.2010    7.7800 C.2   133  THR133      0.2642
     32  O         11.6440   46.1470    7.3810 O.2   133  THR133     -0.2714
     33  CB        12.0010   43.1660    8.7290 C.3   133  THR133      0.1808
     34  OG1       11.0960   43.3150    9.8290 O.3   133  THR133     -0.2208
     35  CG2       13.3160   43.8600    9.0690 C.3   133  THR133      0.0379
     36  N          9.8660   45.3490    8.4990 N.am  134  ALA134     -0.1977
     37  CA         9.3830   46.6680    8.8700 C.3   134  ALA134      0.1597
     38  C         10.0300   47.0770   10.1850 C.2   134  ALA134      0.2287
     39  O         10.0250   48.2510   10.5610 O.2   134  ALA134     -0.2864
     40  CB         7.8750   46.6470    9.0080 C.3   134  ALA134      0.0319
     41  N         10.4070   49.6190    4.4790 N.3   142  SER142     -0.1217
     42  CA        10.8650   48.4280    5.2010 C.3   142  SER142      0.1889
     43  C         12.2380   48.0750    4.6420 C.2   142  SER142      0.2288
     44  O         12.4190   47.9980    3.4240 O.2   142  SER142     -0.2866
     45  CB         9.9080   47.2500    4.9910 C.3   142  SER142      0.2089
     46  OG         8.6440   47.5100    5.5680 O.3   142  SER142     -0.2183
     47  N         19.1890   38.5870    4.2070 N.3   150  TRP150     -0.1241
     48  CA        18.0940   37.6900    4.5800 C.3   150  TRP150      0.1605
     49  C         17.6670   36.8420    3.3810 C.2   150  TRP150      0.2264
     50  O         16.9010   37.2870    2.5260 O.2   150  TRP150     -0.2867
     51  CB        16.8950   38.4980    5.0920 C.3   150  TRP150      0.0550
     52  CG        15.8880   37.6730    5.8620 C.ar  150  TRP150      0.0003
     53  CD1       15.8280   36.3120    5.9330 C.ar  150  TRP150      0.0946
     54  CD2       14.8100   38.1610    6.6760 C.ar  150  TRP150      0.0152
     55  NE1       14.7850   35.9190    6.7410 N.ar  150  TRP150     -0.2442
     56  CE2       14.1440   37.0340    7.2100 C.ar  150  TRP150      0.0810
     57  CE3       14.3450   39.4390    7.0070 C.ar  150  TRP150      0.0012
     58  CZ2       13.0400   37.1450    8.0570 C.ar  150  TRP150      0.0191
     59  CZ3       13.2450   39.5500    7.8520 C.ar  150  TRP150      0.0001
     60  CH2       12.6070   38.4080    8.3670 C.ar  150  TRP150      0.0015
     61  N         15.5390   34.4500    1.5890 N.3   152  THR152     -0.1218
     62  CA        14.1670   33.9520    1.6500 C.3   152  THR152      0.1862
     63  C         14.0650   32.6390    0.8770 C.2   152  THR152      0.2287
     64  O         14.9390   31.7880    0.9660 O.2   152  THR152     -0.2866
     65  CB        13.1850   34.9580    1.0130 C.3   152  THR152      0.1770
     66  OG1       13.6350   36.2990    1.2550 O.3   152  THR152     -0.2211
     67  CG2       11.7970   34.7840    1.6000 C.3   152  THR152      0.0375
     68  N         17.7410   32.6020   12.0800 N.3   180  HIS180     -0.1241
     69  CA        16.4160   33.1320   12.3610 C.3   180  HIS180      0.1621
     70  C         15.5150   32.0740   12.9790 C.2   180  HIS180      0.2264
     71  O         15.5340   30.9090   12.5750 O.2   180  HIS180     -0.2867
     72  CB        15.8050   33.6830   11.0730 C.3   180  HIS180      0.0745
     73  CG        14.4110   34.1950   11.2320 C.ar  180  HIS180      0.0817
     74  ND1       13.3030   33.4140   10.9960 N.ar  180  HIS180     -0.2268
     75  CD2       13.9450   35.4140   11.5860 C.ar  180  HIS180      0.1154
     76  CE1       12.2130   34.1310   11.1920 C.ar  180  HIS180      0.1986
     77  NE2       12.5750   35.3490   11.5510 N.ar  180  HIS180     -0.2212
     78  N          5.2980   29.7380    9.7330 N.3   187  GLU187     -0.1245
     79  CA         6.1750   30.7480    9.1440 C.3   187  GLU187      0.1567
     80  C          7.4740   30.0750    8.7020 C.2   187  GLU187      0.2260
     81  O          8.0800   30.4680    7.7050 O.2   187  GLU187     -0.2867
     82  CB         6.4760   31.8560   10.1660 C.3   187  GLU187      0.0388
     83  CG         7.5550   32.8490    9.7240 C.3   187  GLU187      0.1160
     84  CD         7.8550   33.9340   10.7650 C.2   187  GLU187      0.3649
     85  OE1        6.9920   34.8170   10.9860 O.co2 187  GLU187     -0.2457
     86  OE2        8.9580   33.9040   11.3590 O.co2 187  GLU187     -0.2457
     87  N          8.7500   30.4560    4.4530 N.3   191  LEU191     -0.1245
     88  CA         9.9870   31.1880    4.1740 C.3   191  LEU191      0.1561
     89  C         11.1580   30.3040    3.7930 C.2   191  LEU191      0.2260
     90  O         11.9410   30.6530    2.9160 O.2   191  LEU191     -0.2867
     91  CB        10.4000   32.0360    5.3810 C.3   191  LEU191      0.0270
     92  CG         9.6160   33.3150    5.6660 C.3   191  LEU191      0.0019
     93  CD1       10.2600   34.0400    6.8360 C.3   191  LEU191      0.0001
     94  CD2        9.5940   34.2020    4.4220 C.3   191  LEU191      0.0001
     95  N          6.2060   39.5940   21.2070 N.3   219  LYS219     -0.1245
     96  CA         6.7040   40.2920   20.0460 C.3   219  LYS219      0.1561
     97  C          7.5010   41.4830   20.5240 C.2   219  LYS219      0.2260
     98  O          7.1190   42.1390   21.4910 O.2   219  LYS219     -0.2867
     99  CB         5.5430   40.7560   19.1620 C.3   219  LYS219      0.0271
    100  CG         4.5280   39.6580   18.8700 C.3   219  LYS219      0.0035
    101  CD         3.6970   39.9470   17.6260 C.3   219  LYS219      0.0206
    102  CE         2.8610   41.1990   17.7700 C.3   219  LYS219      0.1093
    103  NZ         2.0310   41.4140   16.5470 N.3   219  LYS219     -0.1314
    104  N          7.6010   44.7570   17.0140 N.3   222  GLY222     -0.1210
    105  CA         6.9250   44.1730   15.8780 C.3   222  GLY222      0.1956
    106  C          6.9310   42.6660   15.7780 C.2   222  GLY222      0.2612
    107  O          5.9110   42.0080   15.9760 O.2   222  GLY222     -0.2717
    108  N          8.0970   42.1150   15.4780 N.am  223  GLN223     -0.1965
    109  CA         8.2550   40.6790   15.2890 C.3   223  GLN223      0.1733
    110  C          8.1390   39.7760   16.5130 C.2   223  GLN223      0.2616
    111  O          8.5380   40.1390   17.6170 O.2   223  GLN223     -0.2715
    112  CB         9.6000   40.4240   14.6130 C.3   223  GLN223      0.0408
    113  CG        10.0630   41.5980   13.7780 C.3   223  GLN223      0.0908
    114  CD         8.9940   42.0680   12.8310 C.2   223  GLN223      0.2608
    115  OE1        8.7980   43.2700   12.6450 O.2   223  GLN223     -0.2717
    116  NE2        8.2900   41.1210   12.2220 N.am  223  GLN223     -0.0878
    117  N          7.5880   38.5880   16.2850 N.am  224  ALA224     -0.1963
    118  CA         7.4420   37.5680   17.3150 C.3   224  ALA224      0.1728
    119  C          8.5850   36.5760   17.0710 C.2   224  ALA224      0.2616
    120  O          8.9090   35.7450   17.9240 O.2   224  ALA224     -0.2715
    121  CB         6.1050   36.8650   17.1770 C.3   224  ALA224      0.0334
    122  N          9.1840   36.6720   15.8840 N.am  225  GLY225     -0.1955
    123  CA        10.2970   35.8100   15.5310 C.3   225  GLY225      0.1869
    124  C         11.5760   36.4170   16.0710 C.2   225  GLY225      0.2309
    125  O         11.6400   37.6240   16.3340 O.2   225  GLY225     -0.2863
@<TRIPOS>BOND
     1    21    20    1
     2    20    19    1
     3    19    18    1
     4    18    17    1
     5    13    14    1
     6    17    14    1
     7    14    15    1
     8    63    64    2
     9    63    62    1
    10    65    66    1
    11    65    67    1
    12    65    62    1
    13    15    16    2
    14    61    62    1
    15    28    26    1
    16    50    49    2
    17    90    89    2
    18    26    27    1
    19    26    23    1
    20    49    48    1
    21    44    43    2
    22    22    23    1
    23    89    88    1
    24    88    87    1
    25    88    91    1
    26    47    48    1
    27    23    24    1
    28    94    92    1
    29    41    42    1
    30    48    51    1
    31    43    42    1
    32    45    42    1
    33    45    46    1
    34    51    52    1
    35    91    92    1
    36    24    25    2
    37    24    29   am
    38    92    93    1
    39    52    53   ar
    40    52    54   ar
    41    53    55   ar
    42    29    30    1
    43    54    57   ar
    44    54    56   ar
    45    55    56   ar
    46    57    59   ar
    47    56    58   ar
    48    32    31    2
    49    30    31    1
    50    30    33    1
    51    81    80    2
    52    31    36   am
    53    59    60   ar
    54    58    60   ar
    55    36    37    1
    56    80    79    1
    57    33    35    1
    58    33    34    1
    59    37    40    1
    60    37    38    1
    61    79    78    1
    62    79    82    1
    63    83    82    1
    64    83    84    1
    65    38    39    2
    66    84    85   ar
    67    84    86   ar
    68    74    76   ar
    69    74    73   ar
    70    72    73    1
    71    72    69    1
    72    76    77   ar
    73    73    75   ar
    74    77    75   ar
    75    68    69    1
    76     9     7   ar
    77     9    11   ar
    78   116   114   am
    79     7     6   ar
    80    69    70    1
    81    71    70    2
    82   115   114    2
    83   114   113    1
    84    12    11    1
    85    11    10   ar
    86     6     5    1
    87     6     8   ar
    88     5     2    1
    89   113   112    1
    90    10     8   ar
    91     2     1    1
    92     2     3    1
    93   112   109    1
    94   109   108    1
    95   109   110    1
    96   108   106   am
    97   123   122    1
    98   123   124    1
    99   106   105    1
   100   106   107    2
   101     3     4    2
   102   105   104    1
   103   122   119   am
   104   124   125    2
   105   117   110   am
   106   117   118    1
   107   110   111    2
   108   103   102    1
   109   119   118    1
   110   119   120    2
   111   121   118    1
   112   101   102    1
   113   101   100    1
   114   100    99    1
   115    99    96    1
   116    96    97    1
   117    96    95    1
   118    97    98    2
