@<TRIPOS>MOLECULE
tmp/3httA02.pdb
 129 123 0 0 0
SMALL
GASTEIGER

@<TRIPOS>ATOM
      1  N         16.0730   44.1100   14.4530 N.3    91  TYR91      -0.1241
      2  CA        15.2730   42.8990   14.4510 C.3    91  TYR91       0.1605
      3  C         15.6320   42.1460   15.7330 C.2    91  TYR91       0.2264
      4  O         16.7820   41.7640   15.9240 O.2    91  TYR91      -0.2867
      5  CB        15.5850   42.0350   13.2330 C.3    91  TYR91       0.0534
      6  CG        14.5570   40.9500   13.0300 C.ar   91  TYR91      -0.0201
      7  CD1       13.4360   41.1670   12.2400 C.ar   91  TYR91      -0.0009
      8  CD2       14.6730   39.7250   13.6820 C.ar   91  TYR91      -0.0009
      9  CE1       12.4600   40.1990   12.1040 C.ar   91  TYR91       0.0417
     10  CE2       13.6960   38.7460   13.5530 C.ar   91  TYR91       0.0417
     11  CZ        12.5930   38.9920   12.7620 C.ar   91  TYR91       0.1957
     12  OH        11.6190   38.0290   12.6370 O.3    91  TYR91      -0.2866
     13  N         13.8040   39.4180   -0.7740 N.3   130  LYS130     -0.1231
     14  CA        12.6800   39.6200    0.1330 C.3   130  LYS130      0.1693
     15  C         13.1450   39.8200    1.5740 C.2   130  LYS130      0.2593
     16  O         12.3550   40.1950    2.4460 O.2   130  LYS130     -0.2718
     17  CB        11.7300   38.4210    0.0550 C.3   130  LYS130      0.0285
     18  CG        11.1860   38.1530   -1.3480 C.3   130  LYS130      0.0035
     19  CD        10.4950   39.3900   -1.9180 C.3   130  LYS130      0.0206
     20  CE        10.0160   39.1630   -3.3440 C.3   130  LYS130      0.1093
     21  NZ         9.5130   40.4300   -3.9450 N.3   130  LYS130     -0.1314
     22  N         14.4300   39.5660    1.8150 N.am  131  GLY131     -0.1942
     23  CA        14.9890   39.7150    3.1470 C.3   131  GLY131      0.2014
     24  C         14.8850   41.1300    3.6720 C.2   131  GLY131      0.2639
     25  O         15.8780   41.8530    3.7400 O.2   131  GLY131     -0.2714
     26  N         13.6750   41.5180    4.0550 N.am  132  VAL132     -0.1963
     27  CA        13.4200   42.8540    4.5560 C.3   132  VAL132      0.1727
     28  C         12.3620   42.8010    5.6540 C.2   132  VAL132      0.2617
     29  O         11.4980   41.9350    5.6430 O.2   132  VAL132     -0.2715
     30  CB        12.9560   43.7580    3.4010 C.3   132  VAL132      0.0290
     31  CG1       12.4330   45.0640    3.9300 C.3   132  VAL132      0.0023
     32  CG2       14.1150   44.0100    2.4550 C.3   132  VAL132      0.0023
     33  N         12.4420   43.7290    6.6010 N.am  133  THR133     -0.1937
     34  CA        11.5060   43.7700    7.7180 C.3   133  THR133      0.2028
     35  C         11.1190   45.1930    8.1120 C.2   133  THR133      0.2642
     36  O         11.8250   46.1510    7.8110 O.2   133  THR133     -0.2714
     37  CB        12.1050   43.0700    8.9600 C.3   133  THR133      0.1808
     38  OG1       11.2540   43.2820   10.0930 O.3   133  THR133     -0.2208
     39  CG2       13.4890   43.6240    9.2680 C.3   133  THR133      0.0379
     40  N          9.9890   45.3120    8.8020 N.am  134  ALA134     -0.1977
     41  CA         9.4780   46.6000    9.2560 C.3   134  ALA134      0.1597
     42  C         10.2220   47.0740   10.5010 C.2   134  ALA134      0.2287
     43  O         10.2250   48.2640   10.8300 O.2   134  ALA134     -0.2864
     44  CB         7.9880   46.4860    9.5540 C.3   134  ALA134      0.0319
     45  N         10.4710   49.3940    4.5350 N.3   142  SER142     -0.1217
     46  CA        10.9730   48.2160    5.2280 C.3   142  SER142      0.1889
     47  C         12.3540   47.9230    4.6610 C.2   142  SER142      0.2288
     48  O         12.5620   47.9990    3.4470 O.2   142  SER142     -0.2866
     49  CB        10.0500   47.0150    5.0000 C.3   142  SER142      0.2089
     50  OG         8.8450   47.1590    5.7310 O.3   142  SER142     -0.2183
     51  N         19.2270   38.4010    4.1330 N.3   150  TRP150     -0.1241
     52  CA        18.1640   37.4800    4.5360 C.3   150  TRP150      0.1605
     53  C         17.6900   36.5790    3.3940 C.2   150  TRP150      0.2264
     54  O         16.7500   36.8970    2.6720 O.2   150  TRP150     -0.2867
     55  CB        16.9780   38.2640    5.0950 C.3   150  TRP150      0.0550
     56  CG        15.9900   37.4220    5.8600 C.ar  150  TRP150      0.0003
     57  CD1       15.8940   36.0590    5.8600 C.ar  150  TRP150      0.0946
     58  CD2       14.9560   37.8980    6.7310 C.ar  150  TRP150      0.0152
     59  NE1       14.8670   35.6580    6.6790 N.ar  150  TRP150     -0.2442
     60  CE2       14.2740   36.7660    7.2260 C.ar  150  TRP150      0.0810
     61  CE3       14.5410   39.1730    7.1420 C.ar  150  TRP150      0.0012
     62  CZ2       13.1990   36.8690    8.1140 C.ar  150  TRP150      0.0191
     63  CZ3       13.4700   39.2760    8.0240 C.ar  150  TRP150      0.0001
     64  CH2       12.8140   38.1290    8.4990 C.ar  150  TRP150      0.0015
     65  N         15.7960   33.7110    1.6420 N.3   152  THR152     -0.1218
     66  CA        14.5400   33.0080    1.8630 C.3   152  THR152      0.1862
     67  C         14.2000   32.0990    0.6990 C.2   152  THR152      0.2287
     68  O         14.5980   32.3480   -0.4320 O.2   152  THR152     -0.2866
     69  CB        13.3760   33.9800    2.0650 C.3   152  THR152      0.1770
     70  OG1       13.3560   34.9280    0.9940 O.3   152  THR152     -0.2211
     71  CG2       13.5180   34.7030    3.3870 C.3   152  THR152      0.0375
     72  N         17.7530   32.8210   11.8430 N.3   180  HIS180     -0.1241
     73  CA        16.4050   33.2710   12.1430 C.3   180  HIS180      0.1621
     74  C         15.5940   32.1720   12.8170 C.2   180  HIS180      0.2264
     75  O         15.6960   30.9920   12.4660 O.2   180  HIS180     -0.2867
     76  CB        15.7230   33.7460   10.8620 C.3   180  HIS180      0.0745
     77  CG        14.3050   34.1770   11.0550 C.ar  180  HIS180      0.0817
     78  ND1       13.2350   33.3520   10.7900 N.ar  180  HIS180     -0.2268
     79  CD2       13.7810   35.3480   11.4840 C.ar  180  HIS180      0.1154
     80  CE1       12.1120   33.9980   11.0430 C.ar  180  HIS180      0.1986
     81  NE2       12.4150   35.2110   11.4660 N.ar  180  HIS180     -0.2212
     82  N          5.5170   29.0000   10.1340 N.3   187  GLU187     -0.1245
     83  CA         6.2720   30.0240    9.4100 C.3   187  GLU187      0.1567
     84  C          7.6080   29.4480    8.9310 C.2   187  GLU187      0.2260
     85  O          8.1090   29.7940    7.8600 O.2   187  GLU187     -0.2867
     86  CB         6.5030   31.2370   10.3150 C.3   187  GLU187      0.0388
     87  CG         7.5220   32.2260    9.7870 C.3   187  GLU187      0.1160
     88  CD         7.7550   33.3900   10.7380 C.2   187  GLU187      0.3649
     89  OE1        6.9000   34.3080   10.7830 O.co2 187  GLU187     -0.2457
     90  OE2        8.7890   33.3790   11.4450 O.co2 187  GLU187     -0.2457
     91  N          8.5530   30.0530    4.8980 N.3   191  LEU191     -0.1245
     92  CA         9.7450   30.8610    4.6380 C.3   191  LEU191      0.1561
     93  C         10.9500   30.0740    4.1520 C.2   191  LEU191      0.2260
     94  O         11.6560   30.5090    3.2460 O.2   191  LEU191     -0.2867
     95  CB        10.1600   31.6250    5.8990 C.3   191  LEU191      0.0270
     96  CG         9.4500   32.9380    6.2090 C.3   191  LEU191      0.0019
     97  CD1       10.1040   33.5950    7.4100 C.3   191  LEU191      0.0001
     98  CD2        9.5390   33.8500    5.0030 C.3   191  LEU191      0.0001
     99  N          5.9620   39.5590   20.8820 N.3   219  LYS219     -0.1245
    100  CA         6.4510   40.3330   19.7570 C.3   219  LYS219      0.1561
    101  C          7.2940   41.4830   20.2980 C.2   219  LYS219      0.2260
    102  O          6.9050   42.1450   21.2650 O.2   219  LYS219     -0.2867
    103  CB         5.2740   40.8870   18.9410 C.3   219  LYS219      0.0271
    104  CG         4.0880   39.9270   18.8630 C.3   219  LYS219      0.0035
    105  CD         3.3050   40.0490   17.5580 C.3   219  LYS219      0.0206
    106  CE         2.7170   41.4340   17.3480 C.3   219  LYS219      0.1093
    107  NZ         1.8070   41.4350   16.1600 N.3   219  LYS219     -0.1314
    108  N          7.5720   44.9010   17.0050 N.3   222  GLY222     -0.1210
    109  CA         6.8980   44.3560   15.8460 C.3   222  GLY222      0.1956
    110  C          6.8650   42.8440   15.7730 C.2   222  GLY222      0.2612
    111  O          5.9140   42.2000   16.2140 O.2   222  GLY222     -0.2717
    112  N          7.9300   42.2770   15.2260 N.am  223  GLN223     -0.1965
    113  CA         8.0430   40.8390   15.0360 C.3   223  GLN223      0.1733
    114  C          8.1020   39.9420   16.2710 C.2   223  GLN223      0.2616
    115  O          8.6740   40.3020   17.3000 O.2   223  GLN223     -0.2715
    116  CB         9.2660   40.5620   14.1740 C.3   223  GLN223      0.0408
    117  CG         9.4150   41.5280   13.0220 C.3   223  GLN223      0.0908
    118  CD         8.1320   41.7120   12.2440 C.2   223  GLN223      0.2608
    119  OE1        7.4690   42.7470   12.3520 O.2   223  GLN223     -0.2717
    120  NE2        7.7690   40.7060   11.4590 N.am  223  GLN223     -0.0878
    121  N          7.5080   38.7590   16.1410 N.am  224  ALA224     -0.1963
    122  CA         7.5130   37.7690   17.2070 C.3   224  ALA224      0.1728
    123  C          8.6460   36.7860   16.8930 C.2   224  ALA224      0.2616
    124  O          8.9970   35.9220   17.7060 O.2   224  ALA224     -0.2715
    125  CB         6.1840   37.0410   17.2580 C.3   224  ALA224      0.0334
    126  N          9.2070   36.9140   15.6960 N.am  225  GLY225     -0.1955
    127  CA        10.3070   36.0550   15.3170 C.3   225  GLY225      0.1869
    128  C         11.5750   36.6200   15.9270 C.2   225  GLY225      0.2309
    129  O         11.5760   37.7510   16.4190 O.2   225  GLY225     -0.2863
@<TRIPOS>BOND
     1    21    20    1
     2    20    19    1
     3    19    18    1
     4    18    17    1
     5    13    14    1
     6    68    67    2
     7    17    14    1
     8    14    15    1
     9    67    66    1
    10    70    69    1
    11    15    22   am
    12    15    16    2
    13    65    66    1
    14    22    23    1
    15    66    69    1
    16    69    71    1
    17    32    30    1
    18    54    53    2
    19    23    24    1
    20    94    93    2
    21    53    52    1
    22    30    31    1
    23    30    27    1
    24    48    47    2
    25    24    25    2
    26    24    26   am
    27    26    27    1
    28    51    52    1
    29    93    92    1
    30    45    46    1
    31    52    55    1
    32    27    28    1
    33    92    91    1
    34    92    95    1
    35    47    46    1
    36    49    46    1
    37    49    50    1
    38    98    96    1
    39    55    56    1
    40    29    28    2
    41    28    33   am
    42    56    57   ar
    43    56    58   ar
    44    57    59   ar
    45    95    96    1
    46    96    97    1
    47    33    34    1
    48    59    60   ar
    49    58    61   ar
    50    58    60   ar
    51    61    63   ar
    52    60    62   ar
    53    34    35    1
    54    34    37    1
    55    36    35    2
    56    85    84    2
    57    63    64   ar
    58    35    40   am
    59    62    64   ar
    60    40    41    1
    61    84    83    1
    62    37    39    1
    63    37    38    1
    64    41    44    1
    65    41    42    1
    66    83    82    1
    67    83    86    1
    68    87    86    1
    69    87    88    1
    70    42    43    2
    71    88    89   ar
    72    88    90   ar
    73    78    80   ar
    74    78    77   ar
    75    76    77    1
    76    76    73    1
    77    80    81   ar
    78    77    79   ar
    79   120   118   am
    80    81    79   ar
    81    72    73    1
    82     9     7   ar
    83     9    11   ar
    84    73    74    1
    85     7     6   ar
    86   118   119    2
    87   118   117    1
    88    75    74    2
    89    12    11    1
    90    11    10   ar
    91   117   116    1
    92     6     5    1
    93     6     8   ar
    94     5     2    1
    95    10     8   ar
    96   116   113    1
    97     2     1    1
    98     2     3    1
    99   113   112    1
   100   113   114    1
   101   112   110   am
   102   127   126    1
   103   127   128    1
   104   126   123   am
   105     3     4    2
   106   110   109    1
   107   110   111    2
   108   109   108    1
   109   128   129    2
   110   121   114   am
   111   121   122    1
   112   107   106    1
   113   114   115    2
   114   123   122    1
   115   123   124    2
   116   122   125    1
   117   106   105    1
   118   105   104    1
   119   104   103    1
   120   103   100    1
   121   100   101    1
   122   100    99    1
   123   101   102    2
