@<TRIPOS>MOLECULE
tmp/3htxD00.pdb
 165 156 0 0 0
SMALL
GASTEIGER

@<TRIPOS>ATOM
      1  N        -96.0890   22.4500   23.2060 N.3   580  SER580     -0.1217
      2  CA       -95.4020   21.4030   22.4630 C.3   580  SER580      0.1889
      3  C        -94.9210   20.2980   23.3990 C.2   580  SER580      0.2288
      4  O        -94.5270   19.2300   22.9400 O.2   580  SER580     -0.2866
      5  CB       -94.2070   21.9740   21.6940 C.3   580  SER580      0.2089
      6  OG       -93.5480   20.9560   20.9600 O.3   580  SER580     -0.2183
      7  N        -98.2080   17.8530   24.1720 N.3   583  ARG583     -0.1245
      8  CA       -98.6360   16.9590   23.1110 C.3   583  ARG583      0.1563
      9  C        -97.9760   15.6080   23.3120 C.2   583  ARG583      0.2260
     10  O        -98.5130   14.5760   22.9290 O.2   583  ARG583     -0.2867
     11  CB       -98.2590   17.5430   21.7550 C.3   583  ARG583      0.0307
     12  CG       -98.6040   19.0020   21.6090 C.3   583  ARG583      0.0489
     13  CD       -98.3080   19.5020   20.2040 C.3   583  ARG583      0.2205
     14  NE       -98.4190   20.9570   20.1070 N.pl3 583  ARG583     -0.0865
     15  CZ       -98.8300   21.6110   19.0220 C.cat 583  ARG583      0.5346
     16  NH1      -99.1730   20.9380   17.9320 N.pl3 583  ARG583      0.1354
     17  NH2      -98.9150   22.9370   19.0310 N.pl3 583  ARG583      0.1354
     18  N        -93.3260    7.3170   13.7990 N.3   601  ASP601     -0.1239
     19  CA       -93.5160    8.7110   14.1590 C.3   601  ASP601      0.1674
     20  C        -93.2590    9.5880   12.9350 C.2   601  ASP601      0.2266
     21  O        -92.1460   10.0760   12.7350 O.2   601  ASP601     -0.2867
     22  CB       -92.5640    9.0860   15.3080 C.3   601  ASP601      0.1410
     23  CG       -92.7780   10.5170   15.8200 C.2   601  ASP601      0.3668
     24  OD1      -93.8680   11.0850   15.5930 O.co2 601  ASP601     -0.2456
     25  OD2      -91.8570   11.0700   16.4660 O.co2 601  ASP601     -0.2456
     26  N        -92.5580   12.4560   11.0190 N.3   603  GLY603     -0.1210
     27  CA       -92.1480   13.8090   11.3510 C.3   603  GLY603      0.1956
     28  C        -91.5680   13.9350   12.7460 C.2   603  GLY603      0.2612
     29  O        -91.9760   14.7880   13.5380 O.2   603  GLY603     -0.2717
     30  N        -90.6100   13.0770   13.0530 N.am  604  CYS604     -0.1956
     31  CA       -89.9910   13.1070   14.3580 C.3   604  CYS604      0.1843
     32  C        -89.1850   14.3620   14.5390 C.2   604  CYS604      0.2626
     33  O        -89.3230   15.0260   15.5550 O.2   604  CYS604     -0.2714
     34  CB       -89.0960   11.9020   14.5280 C.3   604  CYS604      0.0997
     35  SG       -88.5180   11.3280   12.9390 S.3   604  CYS604     -0.0797
     36  N        -88.3520   14.6900   13.5580 N.am  605  GLY605     -0.1940
     37  CA       -87.5340   15.8830   13.6760 C.3   605  GLY605      0.2014
     38  C        -86.6950   15.8170   14.9420 C.2   605  GLY605      0.2639
     39  O        -85.7690   15.0010   15.0340 O.2   605  GLY605     -0.2714
     40  N        -87.0260   16.6680   15.9200 N.am  606  SER606     -0.1949
     41  CA       -86.3150   16.7110   17.2040 C.3   606  SER606      0.1924
     42  C        -86.0480   15.3160   17.8180 C.2   606  SER606      0.2314
     43  O        -84.9300   15.0390   18.2570 O.2   606  SER606     -0.2863
     44  CB       -87.0680   17.6280   18.2210 C.3   606  SER606      0.2116
     45  OG       -88.4930   17.5660   18.1460 O.3   606  SER606     -0.2180
     46  N        -88.0630   14.1520   20.2510 N.3   608  SER608     -0.1202
     47  CA       -88.6680   14.2740   21.5750 C.3   608  SER608      0.2020
     48  C        -89.6790   13.1860   21.9550 C.2   608  SER608      0.2618
     49  O        -89.5360   12.5440   22.9960 O.2   608  SER608     -0.2717
     50  CB       -89.3120   15.6610   21.7230 C.3   608  SER608      0.2103
     51  OG       -89.8130   16.1630   20.4910 O.3   608  SER608     -0.2182
     52  N        -90.7070   12.9910   21.1330 N.am  609  LEU609     -0.1979
     53  CA       -91.7060   11.9520   21.4100 C.3   609  LEU609      0.1596
     54  C        -91.0420   10.5970   21.6290 C.2   609  LEU609      0.2287
     55  O        -91.3680    9.8810   22.5820 O.2   609  LEU609     -0.2864
     56  CB       -92.7030   11.8050   20.2550 C.3   609  LEU609      0.0297
     57  CG       -93.5800   10.5500   20.3800 C.3   609  LEU609      0.0022
     58  CD1      -94.3380   10.6110   21.6960 C.3   609  LEU609      0.0001
     59  CD2      -94.5440   10.4310   19.2090 C.3   609  LEU609      0.0001
     60  N        -89.4370    9.0280   10.8230 N.3   626  VAL626     -0.1231
     61  CA       -89.3550    9.3390    9.4010 C.3   626  VAL626      0.1692
     62  C        -89.3050   10.8430    9.2390 C.2   626  VAL626      0.2592
     63  O        -90.0840   11.5670    9.8580 O.2   626  VAL626     -0.2718
     64  CB       -90.5760    8.7800    8.6150 C.3   626  VAL626      0.0266
     65  CG1      -90.5550    9.2910    7.1880 C.3   626  VAL626      0.0020
     66  CG2      -90.5370    7.2580    8.5980 C.3   626  VAL626      0.0020
     67  N        -88.3860   11.3170    8.4110 N.am  627  ASP627     -0.1960
     68  CA       -88.2750   12.7450    8.2130 C.3   627  ASP627      0.1840
     69  C        -87.4030   13.0530    7.0020 C.2   627  ASP627      0.2622
     70  O        -86.7280   12.1690    6.4780 O.2   627  ASP627     -0.2715
     71  CB       -87.6870   13.3670    9.4820 C.3   627  ASP627      0.1450
     72  CG       -88.1920   14.7740    9.7340 C.2   627  ASP627      0.3671
     73  OD1      -87.6870   15.7250    9.1090 O.co2 627  ASP627     -0.2456
     74  OD2      -89.1090   14.9360   10.5590 O.co2 627  ASP627     -0.2456
     75  N        -87.4460   14.3030    6.5500 N.am  628  ILE628     -0.1963
     76  CA       -86.6330   14.7530    5.4260 C.3   628  ILE628      0.1727
     77  C        -85.6620   15.8600    5.8870 C.2   628  ILE628      0.2616
     78  O        -84.8530   16.3670    5.1090 O.2   628  ILE628     -0.2715
     79  CB       -87.5190   15.2710    4.2870 C.3   628  ILE628      0.0290
     80  CG1      -88.6950   16.0460    4.8740 C.3   628  ILE628      0.0022
     81  CG2      -87.9690   14.1220    3.4140 C.3   628  ILE628      0.0023
     82  CD1      -88.3040   17.3810    5.4740 C.3   628  ILE628      0.0001
     83  N        -85.7370   16.2100    7.1670 N.am  629  SER629     -0.1950
     84  CA       -84.8770   17.2360    7.7580 C.3   629  SER629      0.1924
     85  C        -83.6190   16.6050    8.3690 C.2   629  SER629      0.2314
     86  O        -83.6360   16.1320    9.5050 O.2   629  SER629     -0.2863
     87  CB       -85.6500   17.9910    8.8390 C.3   629  SER629      0.2116
     88  OG       -84.8590   19.0090    9.4160 O.3   629  SER629     -0.2180
     89  N        -87.1350   10.4550    4.6150 N.3   659  GLY659     -0.1210
     90  CA       -88.1270   10.3920    3.5620 C.3   659  GLY659      0.1956
     91  C        -89.4130   11.1630    3.7910 C.2   659  GLY659      0.2613
     92  O        -89.8110   11.4520    4.9270 O.2   659  GLY659     -0.2717
     93  N        -90.0630   11.4930    2.6790 N.am  660  SER660     -0.1938
     94  CA       -91.3220   12.2100    2.6980 C.3   660  SER660      0.2055
     95  C        -92.4060   11.2910    3.2600 C.2   660  SER660      0.2643
     96  O        -92.4910   10.1180    2.9000 O.2   660  SER660     -0.2714
     97  CB       -91.6850   12.6340    1.2720 C.3   660  SER660      0.2130
     98  OG       -92.8860   13.3850    1.2410 O.3   660  SER660     -0.2179
     99  N        -93.2220   11.8130    4.1640 N.am  661  ILE661     -0.1963
    100  CA       -94.3010   11.0170    4.7130 C.3   661  ILE661      0.1727
    101  C        -95.4410   11.0640    3.6970 C.2   661  ILE661      0.2616
    102  O        -96.5880   10.7850    4.0180 O.2   661  ILE661     -0.2715
    103  CB       -94.7700   11.5640    6.0720 C.3   661  ILE661      0.0290
    104  CG1      -95.0780   13.0500    5.9560 C.3   661  ILE661      0.0022
    105  CG2      -93.6970   11.3430    7.1170 C.3   661  ILE661      0.0023
    106  CD1      -95.6050   13.6260    7.2300 C.3   661  ILE661      0.0001
    107  N        -95.1070   11.4470    2.4660 N.am  662  LEU662     -0.1977
    108  CA       -96.0690   11.4950    1.3700 C.3   662  LEU662      0.1596
    109  C        -95.7100   10.3150    0.4930 C.2   662  LEU662      0.2287
    110  O        -96.4800    9.8700   -0.3480 O.2   662  LEU662     -0.2864
    111  CB       -95.9240   12.7820    0.5590 C.3   662  LEU662      0.0297
    112  CG       -95.9640   14.1090    1.3110 C.3   662  LEU662      0.0022
    113  CD1      -96.5420   15.1780    0.3950 C.3   662  LEU662      0.0001
    114  CD2      -96.8110   13.9730    2.5640 C.3   662  LEU662      0.0001
    115  N        -97.4750   14.4920   14.6890 N.3   677  LEU677     -0.1231
    116  CA       -97.8540   15.6900   15.4070 C.3   677  LEU677      0.1693
    117  C        -97.2680   16.9080   14.7670 C.2   677  LEU677      0.2592
    118  O        -96.0700   16.9570   14.5310 O.2   677  LEU677     -0.2718
    119  CB       -97.3430   15.6010   16.8360 C.3   677  LEU677      0.0284
    120  CG       -97.5490   14.2230   17.4630 C.3   677  LEU677      0.0019
    121  CD1      -96.8300   14.1140   18.8180 C.3   677  LEU677      0.0001
    122  CD2      -99.0610   13.9740   17.5830 C.3   677  LEU677      0.0001
    123  N        -98.0910   17.9000   14.4780 N.am  678  GLU678     -0.1966
    124  CA       -97.5320   19.1010   13.9000 C.3   678  GLU678      0.1733
    125  C        -96.7590   18.9220   12.5960 C.2   678  GLU678      0.2616
    126  O        -95.6850   19.5150   12.4170 O.2   678  GLU678     -0.2715
    127  CB       -96.6210   19.7430   14.9380 C.3   678  GLU678      0.0429
    128  CG       -97.3790   20.5880   15.9020 C.3   678  GLU678      0.1163
    129  CD       -98.3000   21.5560   15.1790 C.2   678  GLU678      0.3649
    130  OE1      -97.8350   22.1150   14.1380 O.co2 678  GLU678     -0.2457
    131  OE2      -99.4570   21.7470   15.6450 O.co2 678  GLU678     -0.2457
    132  N        -97.3040   18.1360   11.6770 N.am  679  VAL679     -0.1977
    133  CA       -96.6120   17.9090   10.4240 C.3   679  VAL679      0.1596
    134  C        -97.4410   18.2240    9.1830 C.2   679  VAL679      0.2287
    135  O        -96.9700   18.9370    8.3050 O.2   679  VAL679     -0.2864
    136  CB       -96.1160   16.4630   10.3320 C.3   679  VAL679      0.0276
    137  CG1      -95.2430   16.3010    9.1350 C.3   679  VAL679      0.0022
    138  CG2      -95.3390   16.1020   11.5720 C.3   679  VAL679      0.0022
    139  N        -97.0120   21.5480    7.4130 N.3   682  HIS682     -0.1226
    140  CA       -95.7590   22.0640    6.8880 C.3   682  HIS682      0.1752
    141  C        -95.6610   21.5900    5.4460 C.2   682  HIS682      0.2595
    142  O        -94.5800   21.5250    4.8630 O.2   682  HIS682     -0.2718
    143  CB       -94.5750   21.5510    7.7020 C.3   682  HIS682      0.0759
    144  CG       -94.5990   21.9750    9.1390 C.ar  682  HIS682      0.0818
    145  ND1      -93.5500   22.6410    9.7350 N.ar  682  HIS682     -0.2268
    146  CD2      -95.5380   21.8160   10.1010 C.ar  682  HIS682      0.1154
    147  CE1      -93.8410   22.8750   11.0020 C.ar  682  HIS682      0.1986
    148  NE2      -95.0440   22.3850   11.2540 N.ar  682  HIS682     -0.2212
    149  N        -96.8180   21.2410    4.8920 N.am  683  MET683     -0.1979
    150  CA       -96.9250   20.7960    3.5140 C.3   683  MET683      0.1605
    151  C        -98.2330   21.3490    2.9540 C.2   683  MET683      0.2287
    152  O        -99.1980   21.5440    3.6900 O.2   683  MET683     -0.2864
    153  CB       -96.8950   19.2750    3.4480 C.3   683  MET683      0.0413
    154  CG       -98.0560   18.6160    4.1260 C.3   683  MET683      0.0598
    155  SD       -97.8220   16.8420    4.2010 S.3   683  MET683     -0.1393
    156  CE       -96.9760   16.6740    5.7810 C.3   683  MET683      0.0692
    157  N       -101.2480   18.0940   -0.4080 N.3   687  GLN687     -0.1245
    158  CA      -100.3910   17.0080    0.0290 C.3   687  GLN687      0.1566
    159  C       -100.9450   16.4820    1.3630 C.2   687  GLN687      0.2260
    160  O       -100.9190   15.2820    1.6310 O.2   687  GLN687     -0.2867
    161  CB       -98.9610   17.5210    0.2040 C.3   687  GLN687      0.0367
    162  CG       -98.5030   18.4610   -0.9060 C.3   687  GLN687      0.0905
    163  CD       -97.0120   18.7430   -0.8500 C.2   687  GLN687      0.2608
    164  OE1      -96.3560   18.4370    0.1420 O.2   687  GLN687     -0.2717
    165  NE2      -96.4720   19.3330   -1.9110 N.am  687  GLN687     -0.0878
@<TRIPOS>BOND
     1   165   163   am
     2   162   163    1
     3   162   161    1
     4   163   164    2
     5   157   158    1
     6   110   109    2
     7   158   161    1
     8   158   159    1
     9   113   112    1
    10   109   108    1
    11   111   112    1
    12   111   108    1
    13    98    97    1
    14    97    94    1
    15   112   114    1
    16   159   160    2
    17   108   107    1
    18   107   101   am
    19    93    94    1
    20    93    91   am
    21    94    95    1
    22    96    95    2
    23   151   150    1
    24   151   152    2
    25    95    99   am
    26    81    79    1
    27   153   150    1
    28   153   154    1
    29   150   149    1
    30    90    91    1
    31    90    89    1
    32   101   102    2
    33   101   100    1
    34    91    92    2
    35   154   155    1
    36    99   100    1
    37   155   156    1
    38    79    80    1
    39    79    76    1
    40   100   103    1
    41   142   141    2
    42    80    82    1
    43   149   141   am
    44    78    77    2
    45    76    77    1
    46    76    75    1
    47   141   140    1
    48    77    83   am
    49   104   103    1
    50   104   106    1
    51   103   105    1
    52    70    69    2
    53    75    69   am
    54   140   139    1
    55   140   143    1
    56    69    68    1
    57    83    84    1
    58    65    64    1
    59   143   144    1
    60    84    85    1
    61    84    87    1
    62    68    67    1
    63    68    71    1
    64   135   134    2
    65    85    86    2
    66    67    62   am
    67    66    64    1
    68    64    61    1
    69    87    88    1
    70    73    72   ar
    71   137   136    1
    72   144   145   ar
    73   144   146   ar
    74   134   133    1
    75    62    61    1
    76    62    63    2
    77    61    60    1
    78    71    72    1
    79    72    74   ar
    80   145   147   ar
    81   146   148   ar
    82   136   133    1
    83   136   138    1
    84   133   132    1
    85   147   148   ar
    86    26    27    1
    87    27    28    1
    88   132   125   am
    89   126   125    2
    90   125   124    1
    91    21    20    2
    92    28    30   am
    93    28    29    2
    94    20    19    1
    95    35    34    1
    96    30    31    1
    97    36    37    1
    98    36    32   am
    99    37    38    1
   100    18    19    1
   101   124   123    1
   102   124   127    1
   103   130   129   ar
   104    19    22    1
   105    31    34    1
   106    31    32    1
   107   123   117   am
   108   118   117    2
   109    32    33    2
   110   115   116    1
   111   117   116    1
   112   127   128    1
   113    38    39    2
   114    38    40   am
   115   129   131   ar
   116   129   128    1
   117    22    23    1
   118   116   119    1
   119    24    23   ar
   120    23    25   ar
   121    40    41    1
   122   119   120    1
   123    41    42    1
   124    41    44    1
   125   120   122    1
   126   120   121    1
   127    42    43    2
   128    16    15    1
   129    45    44    1
   130    15    17    1
   131    15    14    2
   132    59    57    1
   133    14    13    1
   134    13    12    1
   135    46    47    1
   136    56    57    1
   137    56    53    1
   138    57    58    1
   139    51    50    1
   140     6     5    1
   141    52    53    1
   142    52    48   am
   143    53    54    1
   144    47    50    1
   145    47    48    1
   146    12    11    1
   147    54    55    2
   148     5     2    1
   149    11     8    1
   150    48    49    2
   151     2     1    1
   152     2     3    1
   153    10     9    2
   154     4     3    2
   155     8     9    1
   156     8     7    1
