@<TRIPOS>MOLECULE
tmp/3hu8A00.pdb
 123 114 0 0 0
SMALL
GASTEIGER

@<TRIPOS>ATOM
      1  N         24.2160  -27.8410  -11.9160 N.3    78  ILE78      -0.1245
      2  CA        23.7840  -28.4580  -10.6610 C.3    78  ILE78       0.1561
      3  C         23.5510  -29.9640  -10.8750 C.2    78  ILE78       0.2260
      4  O         24.1050  -30.7960  -10.1450 O.2    78  ILE78      -0.2867
      5  CB        22.5040  -27.7740  -10.1280 C.3    78  ILE78       0.0252
      6  CG1       22.8470  -26.4030   -9.5360 C.3    78  ILE78       0.0019
      7  CG2       21.8050  -28.6450   -9.0650 C.3    78  ILE78       0.0019
      8  CD1       21.6450  -25.4400   -9.4550 C.3    78  ILE78       0.0001
      9  N         25.9990  -31.4430   -5.6690 N.3    84  LEU84      -0.1245
     10  CA        24.8190  -30.5860   -5.6580 C.3    84  LEU84       0.1561
     11  C         23.5400  -31.3100   -6.0400 C.2    84  LEU84       0.2260
     12  O         22.4800  -31.0230   -5.5030 O.2    84  LEU84      -0.2867
     13  CB        25.0080  -29.3710   -6.5700 C.3    84  LEU84       0.0270
     14  CG        26.2680  -28.5570   -6.2780 C.3    84  LEU84       0.0019
     15  CD1       26.3610  -27.3750   -7.2210 C.3    84  LEU84       0.0001
     16  CD2       26.3280  -28.1080   -4.8070 C.3    84  LEU84       0.0001
     17  N         21.2360  -32.9490   -3.3040 N.3    87  VAL87      -0.1231
     18  CA        20.6080  -31.9220   -2.4720 C.3    87  VAL87       0.1692
     19  C         19.4900  -31.2010   -3.2510 C.2    87  VAL87       0.2592
     20  O         18.3490  -31.0640   -2.7910 O.2    87  VAL87      -0.2718
     21  CB        21.6610  -30.9190   -1.8920 C.3    87  VAL87       0.0266
     22  CG1       20.9910  -30.0150   -0.8970 C.3    87  VAL87       0.0020
     23  CG2       22.8080  -31.6960   -1.1950 C.3    87  VAL87       0.0020
     24  N         19.8180  -30.7950   -4.4690 N.am   88  TYR88      -0.1976
     25  CA        18.8680  -30.1620   -5.3350 C.3    88  TYR88       0.1639
     26  C         17.6340  -31.0530   -5.5140 C.2    88  TYR88       0.2290
     27  O         16.4940  -30.5890   -5.3740 O.2    88  TYR88      -0.2864
     28  CB        19.5420  -29.8880   -6.6760 C.3    88  TYR88       0.0560
     29  CG        18.6820  -29.2120   -7.6910 C.ar   88  TYR88      -0.0198
     30  CD1       18.5450  -27.8110   -7.7080 C.ar   88  TYR88      -0.0009
     31  CD2       18.0250  -29.9490   -8.6730 C.ar   88  TYR88      -0.0009
     32  CE1       17.7830  -27.1810   -8.6550 C.ar   88  TYR88       0.0417
     33  CE2       17.2440  -29.3290   -9.6200 C.ar   88  TYR88       0.0417
     34  CZ        17.1210  -27.9350   -9.6060 C.ar   88  TYR88       0.1957
     35  OH        16.3440  -27.2900  -10.5460 O.3    88  TYR88      -0.2866
     36  N         15.0450  -31.1640   -2.6920 N.3    91  LEU91      -0.1245
     37  CA        14.3070  -29.9370   -2.4170 C.3    91  LEU91       0.1561
     38  C         13.0150  -29.9050   -3.1870 C.2    91  LEU91       0.2260
     39  O         12.9040  -30.5440   -4.2260 O.2    91  LEU91      -0.2867
     40  CB        15.1420  -28.7210   -2.8320 C.3    91  LEU91       0.0270
     41  CG        16.4460  -28.4940   -2.0550 C.3    91  LEU91       0.0019
     42  CD1       17.1970  -27.3440   -2.7400 C.3    91  LEU91       0.0001
     43  CD2       16.1600  -28.1450   -0.6050 C.3    91  LEU91       0.0001
     44  N         18.4530  -22.4430   -4.8310 N.3    99  ALA99      -0.1245
     45  CA        19.6780  -23.1160   -5.2170 C.3    99  ALA99       0.1562
     46  C         20.2120  -22.6170   -6.5670 C.2    99  ALA99       0.2260
     47  O         21.4320  -22.3630   -6.7200 O.2    99  ALA99      -0.2867
     48  CB        19.4680  -24.6530   -5.2250 C.3    99  ALA99       0.0290
     49  N         21.5790  -19.0580   -6.1900 N.3   102  GLN102     -0.1231
     50  CA        22.9140  -19.0280   -5.5850 C.3   102  GLN102      0.1698
     51  C         24.0390  -19.4620   -6.5540 C.2   102  GLN102      0.2592
     52  O         25.0960  -18.8210   -6.6380 O.2   102  GLN102     -0.2718
     53  CB        22.9520  -19.8440   -4.2980 C.3   102  GLN102      0.0381
     54  CG        24.2520  -19.6040   -3.5140 C.3   102  GLN102      0.0905
     55  CD        24.2270  -20.2140   -2.1270 C.2   102  GLN102      0.2608
     56  OE1       23.2190  -20.7760   -1.7180 O.2   102  GLN102     -0.2717
     57  NE2       25.3480  -20.1040   -1.3960 N.am  102  GLN102     -0.0878
     58  N         23.7800  -20.5270   -7.3070 N.am  103  VAL103     -0.1980
     59  CA        24.7440  -21.0100   -8.2930 C.3   103  VAL103      0.1595
     60  C         24.9540  -19.9980   -9.4210 C.2   103  VAL103      0.2287
     61  O         26.0920  -19.7870   -9.8420 O.2   103  VAL103     -0.2864
     62  CB        24.3410  -22.4040   -8.8170 C.3   103  VAL103      0.0276
     63  CG1       25.1100  -22.7660  -10.0660 C.3   103  VAL103      0.0022
     64  CG2       24.6140  -23.4420   -7.7320 C.3   103  VAL103      0.0022
     65  N         29.7300  -22.1730   -4.6410 N.3   111  VAL111     -0.1245
     66  CA        29.1460  -23.1120   -3.7180 C.3   111  VAL111      0.1561
     67  C         30.3010  -24.0680   -3.4440 C.2   111  VAL111      0.2260
     68  O         31.4330  -23.7930   -3.8350 O.2   111  VAL111     -0.2867
     69  CB        27.9140  -23.8080   -4.3100 C.3   111  VAL111      0.0252
     70  CG1       27.3410  -24.8190   -3.3160 C.3   111  VAL111      0.0019
     71  CG2       26.8680  -22.7780   -4.6950 C.3   111  VAL111      0.0019
     72  N         30.0750  -24.4770    0.6100 N.3   114  PHE114     -0.1241
     73  CA        28.8310  -24.6080    1.3630 C.3   114  PHE114      0.1605
     74  C         28.4310  -26.0370    1.7670 C.2   114  PHE114      0.2264
     75  O         27.2520  -26.3210    1.9560 O.2   114  PHE114     -0.2867
     76  CB        27.7090  -23.9090    0.5950 C.3   114  PHE114      0.0534
     77  CG        27.7980  -22.4070    0.6370 C.ar  114  PHE114     -0.0203
     78  CD1       28.7970  -21.7260   -0.0760 C.ar  114  PHE114     -0.0042
     79  CD2       26.9110  -21.6780    1.4180 C.ar  114  PHE114     -0.0042
     80  CE1       28.8750  -20.3290   -0.0230 C.ar  114  PHE114     -0.0003
     81  CE2       26.9760  -20.2800    1.4820 C.ar  114  PHE114     -0.0003
     82  CZ        27.9580  -19.6060    0.7590 C.ar  114  PHE114     -0.0000
     83  N         26.0910  -26.2200    4.7840 N.3   117  SER117     -0.1202
     84  CA        24.7440  -25.7270    4.4280 C.3   117  SER117      0.2020
     85  C         23.9840  -26.7640    3.5880 C.2   117  SER117      0.2618
     86  O         22.7940  -27.0010    3.7980 O.2   117  SER117     -0.2717
     87  CB        24.8090  -24.4340    3.6070 C.3   117  SER117      0.2103
     88  OG        25.2070  -23.3260    4.3840 O.3   117  SER117     -0.2182
     89  N         24.6770  -27.3380    2.6070 N.am  118  LEU118     -0.1979
     90  CA        24.0900  -28.3680    1.7290 C.3   118  LEU118      0.1596
     91  C         23.5750  -29.5640    2.5200 C.2   118  LEU118      0.2287
     92  O         22.4660  -30.0640    2.2670 O.2   118  LEU118     -0.2864
     93  CB        25.1200  -28.8350    0.7030 C.3   118  LEU118      0.0297
     94  CG        25.5040  -27.8190   -0.3760 C.3   118  LEU118      0.0022
     95  CD1       26.7950  -28.3190   -1.0830 C.3   118  LEU118      0.0001
     96  CD2       24.3820  -27.5970   -1.3760 C.3   118  LEU118      0.0001
     97  N         20.4520  -28.4780    4.3620 N.3   121  LEU121     -0.1245
     98  CA        19.3640  -28.3790    3.4040 C.3   121  LEU121      0.1561
     99  C         18.8390  -29.7650    3.0180 C.2   121  LEU121      0.2260
    100  O         17.6210  -29.9610    2.9480 O.2   121  LEU121     -0.2867
    101  CB        19.7900  -27.6030    2.1630 C.3   121  LEU121      0.0270
    102  CG        20.0160  -26.1080    2.4070 C.3   121  LEU121      0.0019
    103  CD1       20.7080  -25.5270    1.1840 C.3   121  LEU121      0.0001
    104  CD2       18.6950  -25.3470    2.6920 C.3   121  LEU121      0.0001
    105  N         24.0710  -20.5580    6.1890 N.3   133  LEU133     -0.1245
    106  CA        24.2360  -19.8740    4.8950 C.3   133  LEU133      0.1561
    107  C         24.7180  -18.4380    5.0700 C.2   133  LEU133      0.2260
    108  O         25.4690  -17.9330    4.2280 O.2   133  LEU133     -0.2867
    109  CB        22.9100  -19.8800    4.1260 C.3   133  LEU133      0.0270
    110  CG        22.5380  -21.2260    3.4690 C.3   133  LEU133      0.0019
    111  CD1       21.0560  -21.2260    3.1450 C.3   133  LEU133      0.0001
    112  CD2       23.4020  -21.4600    2.2430 C.3   133  LEU133      0.0001
    113  N         15.2690  -20.3760    0.8710 N.3   153  PHE153     -0.1241
    114  CA        15.7180  -21.6700    1.4180 C.3   153  PHE153      0.1605
    115  C         15.0590  -22.0550    2.7480 C.2   153  PHE153      0.2264
    116  O         14.7410  -23.2330    2.9780 O.2   153  PHE153     -0.2867
    117  CB        17.2340  -21.6950    1.6550 C.3   153  PHE153      0.0534
    118  CG        18.0710  -22.0090    0.4500 C.ar  153  PHE153     -0.0203
    119  CD1       19.0820  -21.1200    0.0650 C.ar  153  PHE153     -0.0042
    120  CD2       17.9390  -23.2270   -0.2390 C.ar  153  PHE153     -0.0042
    121  CE1       19.9210  -21.4150   -1.0320 C.ar  153  PHE153     -0.0003
    122  CE2       18.7650  -23.5300   -1.3070 C.ar  153  PHE153     -0.0003
    123  CZ        19.7500  -22.6310   -1.7080 C.ar  153  PHE153     -0.0000
@<TRIPOS>BOND
     1     1     2    1
     2     3     2    1
     3     3     4    2
     4     2     5    1
     5    35    34    1
     6     5     6    1
     7     5     7    1
     8    63    62    1
     9    61    60    2
    10    33    34   ar
    11    33    31   ar
    12    34    32   ar
    13     6     8    1
    14    60    59    1
    15    62    59    1
    16    62    64    1
    17    31    29   ar
    18    32    30   ar
    19    59    58    1
    20    30    29   ar
    21    29    28    1
    22    58    51   am
    23    15    14    1
    24    47    46    2
    25    28    25    1
    26    52    51    2
    27    13    14    1
    28    13    10    1
    29    46    45    1
    30    51    50    1
    31    14    16    1
    32    49    50    1
    33    11    10    1
    34    11    12    2
    35     9    10    1
    36    50    53    1
    37    26    27    2
    38    26    25    1
    39    25    24    1
    40    48    45    1
    41    45    44    1
    42    71    69    1
    43    65    66    1
    44    24    19   am
    45    69    66    1
    46    69    70    1
    47    53    54    1
    48    39    38    2
    49    68    67    2
    50    66    67    1
    51    54    55    1
    52    17    18    1
    53    19    20    2
    54    19    18    1
    55    38    37    1
    56    40    37    1
    57    40    41    1
    58    42    41    1
    59    36    37    1
    60    18    21    1
    61    55    56    2
    62    55    57   am
    63    41    43    1
    64    21    23    1
    65    21    22    1
    66   123   122   ar
    67   123   121   ar
    68    96    94    1
    69   122   120   ar
    70    95    94    1
    71   121   119   ar
    72    94    93    1
    73   120   118   ar
    74    78    80   ar
    75    78    77   ar
    76    80    82   ar
    77   119   118   ar
    78   118   117    1
    79    76    77    1
    80    76    73    1
    81    72    73    1
    82    77    79   ar
    83    93    90    1
    84    82    81   ar
    85   113   114    1
    86   103   102    1
    87    73    74    1
    88   114   117    1
    89   114   115    1
    90    79    81   ar
    91    90    91    1
    92    90    89    1
    93    74    75    2
    94   101   102    1
    95   101    98    1
    96   112   110    1
    97    92    91    2
    98   102   104    1
    99    89    85   am
   100   115   116    2
   101   100    99    2
   102    99    98    1
   103   111   110    1
   104    98    97    1
   105   110   109    1
   106    85    86    2
   107    85    84    1
   108    87    88    1
   109    87    84    1
   110   109   106    1
   111   108   107    2
   112    84    83    1
   113   106   107    1
   114   106   105    1
