@<TRIPOS>MOLECULE
tmp/3hu9A00.pdb
 117 108 0 0 0
SMALL
GASTEIGER

@<TRIPOS>ATOM
      1  N        -42.3920   17.4580    4.1530 N.3    78  ILE78      -0.1245
      2  CA       -43.1050   17.4830    5.4420 C.3    78  ILE78       0.1561
      3  C        -44.5160   16.9290    5.2510 C.2    78  ILE78       0.2260
      4  O        -44.9550   16.0720    6.0200 O.2    78  ILE78      -0.2867
      5  CB       -43.1490   18.9070    6.0310 C.3    78  ILE78       0.0252
      6  CG1      -41.7630   19.2880    6.5720 C.3    78  ILE78       0.0019
      7  CG2      -44.2500   19.0340    7.1140 C.3    78  ILE78       0.0019
      8  CD1      -41.6240   20.7710    6.8730 C.3    78  ILE78       0.0001
      9  N        -44.5520   14.0430   10.4830 N.3    84  LEU84      -0.1245
     10  CA       -44.4390   15.4900   10.4670 C.3    84  LEU84       0.1561
     11  C        -45.7270   16.1850   10.0670 C.2    84  LEU84       0.2260
     12  O        -46.0630   17.2290   10.6190 O.2    84  LEU84      -0.2867
     13  CB       -43.2980   15.9410    9.5470 C.3    84  LEU84       0.0270
     14  CG       -41.8970   15.4290    9.8930 C.3    84  LEU84       0.0019
     15  CD1      -40.8970   15.9230    8.8680 C.3    84  LEU84       0.0001
     16  CD2      -41.4720   15.8390   11.3150 C.3    84  LEU84       0.0001
     17  N        -48.2920   17.3810   12.8290 N.3    87  VAL87      -0.1231
     18  CA       -47.7160   18.4440   13.6390 C.3    87  VAL87       0.1692
     19  C        -47.6810   19.7560   12.8480 C.2    87  VAL87       0.2592
     20  O        -48.1550   20.7840   13.3180 O.2    87  VAL87      -0.2718
     21  CB       -46.3090   18.0680   14.1760 C.3    87  VAL87       0.0266
     22  CG1      -45.8090   19.1620   15.1320 C.3    87  VAL87       0.0020
     23  CG2      -46.3530   16.6950   14.8950 C.3    87  VAL87       0.0020
     24  N        -47.1740   19.6950   11.6090 N.am   88  TYR88      -0.1976
     25  CA       -47.1480   20.8530   10.7520 C.3    88  TYR88       0.1639
     26  C        -48.5340   21.4630   10.6020 C.2    88  TYR88       0.2290
     27  O        -48.7050   22.6690   10.7390 O.2    88  TYR88      -0.2864
     28  CB       -46.5950   20.4330    9.3840 C.3    88  TYR88       0.0560
     29  CG       -46.4040   21.5710    8.4220 C.ar   88  TYR88      -0.0198
     30  CD1      -45.2530   22.3760    8.4760 C.ar   88  TYR88      -0.0009
     31  CD2      -47.3510   21.8480    7.4440 C.ar   88  TYR88      -0.0009
     32  CE1      -45.0690   23.4370    7.5990 C.ar   88  TYR88       0.0417
     33  CE2      -47.1630   22.8990    6.5440 C.ar   88  TYR88       0.0417
     34  CZ       -46.0180   23.6910    6.6270 C.ar   88  TYR88       0.1957
     35  OH       -45.8480   24.7420    5.7430 O.3    88  TYR88      -0.2866
     36  N        -49.8740   23.6690   13.3780 N.3    91  LEU91      -0.1245
     37  CA       -49.2000   24.9440   13.6660 C.3    91  LEU91       0.1561
     38  C        -49.7960   26.1260   12.9430 C.2    91  LEU91       0.2260
     39  O        -50.4060   25.9800   11.8770 O.2    91  LEU91      -0.2867
     40  CB       -47.7080   24.8780   13.3070 C.3    91  LEU91       0.0270
     41  CG       -46.8920   23.8080   14.0380 C.3    91  LEU91       0.0019
     42  CD1      -45.5320   23.6630   13.3720 C.3    91  LEU91       0.0001
     43  CD2      -46.7390   24.1700   15.5160 C.3    91  LEU91       0.0001
     44  N        -40.5580   25.0490   11.2800 N.3    99  ALA99      -0.1245
     45  CA       -40.4910   23.6380   10.9150 C.3    99  ALA99       0.1562
     46  C        -39.8040   23.4750    9.5530 C.2    99  ALA99       0.2260
     47  O        -38.9630   22.5780    9.3780 O.2    99  ALA99      -0.2867
     48  CB       -41.9110   23.0310   10.8800 C.3    99  ALA99       0.0290
     49  N        -36.0150   24.0030    9.9510 N.3   102  GLN102     -0.1231
     50  CA       -35.3200   22.8750   10.5330 C.3   102  GLN102      0.1698
     51  C        -35.1620   21.7090    9.5220 C.2   102  GLN102      0.2592
     52  O        -34.1040   21.0980    9.4390 O.2   102  GLN102     -0.2718
     53  CB       -36.0090   22.4710   11.8440 C.3   102  GLN102      0.0381
     54  CG       -35.2280   21.4940   12.6750 C.3   102  GLN102      0.0905
     55  CD       -35.9470   21.0610   13.9330 C.2   102  GLN102      0.2608
     56  OE1      -37.1370   21.3100   14.1240 O.2   102  GLN102     -0.2717
     57  NE2      -35.2190   20.3820   14.7950 N.am  102  GLN102     -0.0878
     58  N        -36.2010   21.4280    8.7460 N.am  103  VAL103     -0.1980
     59  CA       -36.1280   20.3620    7.7600 C.3   103  VAL103      0.1595
     60  C        -35.1470   20.7170    6.6320 C.2   103  VAL103      0.2287
     61  O        -34.4040   19.8590    6.1400 O.2   103  VAL103     -0.2864
     62  CB       -37.5410   20.0550    7.2220 C.3   103  VAL103      0.0276
     63  CG1      -37.4840   19.2680    5.9030 C.3   103  VAL103      0.0022
     64  CG2      -38.3320   19.3190    8.2890 C.3   103  VAL103      0.0022
     65  N        -35.5010   15.4720   11.6410 N.3   111  VAL111     -0.1245
     66  CA       -36.6170   16.1190   12.3360 C.3   111  VAL111      0.1561
     67  C        -37.7170   15.1230   12.7500 C.2   111  VAL111      0.2260
     68  O        -38.2830   15.2260   13.8430 O.2   111  VAL111     -0.2867
     69  CB       -37.2180   17.3010   11.5050 C.3   111  VAL111      0.0252
     70  CG1      -38.2890   18.0300   12.2930 C.3   111  VAL111      0.0019
     71  CG2      -36.1380   18.2940   11.1100 C.3   111  VAL111      0.0019
     72  N        -37.4000   13.6650   16.0670 N.3   114  PHE114     -0.1241
     73  CA       -37.5210   14.5710   17.2160 C.3   114  PHE114      0.1605
     74  C        -38.8490   14.3210   17.9110 C.2   114  PHE114      0.2264
     75  O        -39.6600   15.2320   18.1380 O.2   114  PHE114     -0.2867
     76  CB       -37.4030   16.0260   16.7640 C.3   114  PHE114      0.0534
     77  CG       -35.9880   16.5410   16.7030 C.ar  114  PHE114     -0.0203
     78  CD1      -35.6880   17.8100   17.1760 C.ar  114  PHE114     -0.0042
     79  CD2      -34.9490   15.7550   16.1960 C.ar  114  PHE114     -0.0042
     80  CE1      -34.3910   18.3130   17.1400 C.ar  114  PHE114     -0.0003
     81  CE2      -33.6390   16.2440   16.1550 C.ar  114  PHE114     -0.0003
     82  CZ       -33.3560   17.5290   16.6190 C.ar  114  PHE114     -0.0000
     83  N        -41.7200   17.1080   18.8440 N.3   118  LEU118     -0.1245
     84  CA       -42.8790   17.1140   17.9610 C.3   118  LEU118      0.1561
     85  C        -44.1810   16.9940   18.7290 C.2   118  LEU118      0.2260
     86  O        -45.1450   17.7080   18.4420 O.2   118  LEU118     -0.2867
     87  CB       -42.7780   15.9890   16.9290 C.3   118  LEU118      0.0270
     88  CG       -41.6950   16.1950   15.8850 C.3   118  LEU118      0.0019
     89  CD1      -41.4700   14.8920   15.1360 C.3   118  LEU118      0.0001
     90  CD2      -42.0650   17.2980   14.9160 C.3   118  LEU118      0.0001
     91  N        -44.8740   20.2420   20.5280 N.3   121  LEU121     -0.1245
     92  CA       -45.3210   21.2710   19.5800 C.3   121  LEU121      0.1561
     93  C        -46.7780   21.0220   19.2120 C.2   121  LEU121      0.2260
     94  O        -47.5700   21.9580   19.1950 O.2   121  LEU121     -0.2867
     95  CB       -44.4510   21.2670   18.3070 C.3   121  LEU121      0.0270
     96  CG       -43.0360   21.8010   18.5050 C.3   121  LEU121      0.0019
     97  CD1      -42.1870   21.5080   17.2470 C.3   121  LEU121      0.0001
     98  CD2      -43.0050   23.2890   18.8210 C.3   121  LEU121      0.0001
     99  N        -36.0550   21.0790   22.4290 N.3   133  LEU133     -0.1245
    100  CA       -35.3950   21.2460   21.1230 C.3   133  LEU133      0.1561
    101  C        -33.9070   21.5700   21.2870 C.2   133  LEU133      0.2260
    102  O        -33.0780   21.1890   20.4420 O.2   133  LEU133     -0.2867
    103  CB       -36.0800   22.3700   20.3300 C.3   133  LEU133      0.0270
    104  CG       -37.3920   21.9670   19.6420 C.3   133  LEU133      0.0019
    105  CD1      -38.2230   23.2130   19.3010 C.3   133  LEU133      0.0001
    106  CD2      -37.1320   21.1320   18.3880 C.3   133  LEU133      0.0001
    107  N        -40.3610   28.8920   17.1530 N.3   153  PHE153     -0.1241
    108  CA       -41.2750   27.8620   17.6650 C.3   153  PHE153      0.1605
    109  C        -41.8950   28.2690   19.0030 C.2   153  PHE153      0.2264
    110  O        -43.0590   27.9240   19.2740 O.2   153  PHE153     -0.2867
    111  CB       -40.5460   26.5340   17.8940 C.3   153  PHE153      0.0534
    112  CG       -40.3950   25.6660   16.6810 C.ar  153  PHE153     -0.0203
    113  CD1      -39.1410   25.1740   16.3300 C.ar  153  PHE153     -0.0042
    114  CD2      -41.5130   25.2610   15.9560 C.ar  153  PHE153     -0.0042
    115  CE1      -38.9840   24.3210   15.2400 C.ar  153  PHE153     -0.0003
    116  CE2      -41.3750   24.4020   14.8810 C.ar  153  PHE153     -0.0003
    117  CZ       -40.1170   23.9230   14.5250 C.ar  153  PHE153     -0.0000
@<TRIPOS>BOND
     1     1     2    1
     2     3     2    1
     3     3     4    2
     4     2     5    1
     5    35    34    1
     6    63    62    1
     7     5     6    1
     8     5     7    1
     9    61    60    2
    10    33    34   ar
    11    33    31   ar
    12     6     8    1
    13    34    32   ar
    14    60    59    1
    15    62    59    1
    16    62    64    1
    17    31    29   ar
    18    32    30   ar
    19    59    58    1
    20    29    30   ar
    21    29    28    1
    22    58    51   am
    23    15    14    1
    24    47    46    2
    25    28    25    1
    26    52    51    2
    27    51    50    1
    28    13    14    1
    29    13    10    1
    30    46    45    1
    31    14    16    1
    32    49    50    1
    33    11    10    1
    34    11    12    2
    35    10     9    1
    36    50    53    1
    37    26    27    2
    38    26    25    1
    39    25    24    1
    40    48    45    1
    41    45    44    1
    42    71    69    1
    43    69    70    1
    44    69    66    1
    45    24    19   am
    46    65    66    1
    47    53    54    1
    48    39    38    2
    49    66    67    1
    50    54    55    1
    51    67    68    2
    52    17    18    1
    53    19    20    2
    54    19    18    1
    55    38    37    1
    56    40    37    1
    57    40    41    1
    58    42    41    1
    59    36    37    1
    60    18    21    1
    61    55    56    2
    62    55    57   am
    63    41    43    1
    64    21    23    1
    65    21    22    1
    66   117   116   ar
    67   117   115   ar
    68   116   114   ar
    69    90    88    1
    70    89    88    1
    71   115   113   ar
    72    88    87    1
    73   114   112   ar
    74    72    73    1
    75    81    79   ar
    76    81    82   ar
    77    79    77   ar
    78   113   112   ar
    79    82    80   ar
    80   112   111    1
    81    77    76    1
    82    77    78   ar
    83    76    73    1
    84    87    84    1
    85    80    78   ar
    86   107   108    1
    87    73    74    1
    88    97    96    1
    89   108   111    1
    90   108   109    1
    91    74    75    2
    92    84    85    1
    93    84    83    1
    94    95    96    1
    95    95    92    1
    96   106   104    1
    97    86    85    2
    98    96    98    1
    99   109   110    2
   100    94    93    2
   101    93    92    1
   102   105   104    1
   103    92    91    1
   104   104   103    1
   105   103   100    1
   106   102   101    2
   107   100   101    1
   108   100    99    1
