@<TRIPOS>MOLECULE
tmp/3huaA00.pdb
 123 114 0 0 0
SMALL
GASTEIGER

@<TRIPOS>ATOM
      1  N        -24.2270   27.9470  -12.1530 N.3    78  ILE78      -0.1245
      2  CA       -23.8330   28.5560  -10.8820 C.3    78  ILE78       0.1561
      3  C        -23.6220   30.0610  -11.0590 C.2    78  ILE78       0.2260
      4  O        -24.1560   30.8620  -10.2920 O.2    78  ILE78      -0.2867
      5  CB       -22.5670   27.8830  -10.2920 C.3    78  ILE78       0.0252
      6  CG1      -22.9040   26.4740   -9.7880 C.3    78  ILE78       0.0019
      7  CG2      -21.9580   28.7360   -9.1750 C.3    78  ILE78       0.0019
      8  CD1      -21.6820   25.6220   -9.4780 C.3    78  ILE78       0.0001
      9  N        -26.1340   31.5630   -5.7720 N.3    84  LEU84      -0.1245
     10  CA       -24.9480   30.7270   -5.8020 C.3    84  LEU84       0.1561
     11  C        -23.6650   31.4630   -6.1850 C.2    84  LEU84       0.2260
     12  O        -22.6110   31.1810   -5.6130 O.2    84  LEU84      -0.2867
     13  CB       -25.1610   29.5160   -6.7200 C.3    84  LEU84       0.0270
     14  CG       -26.3050   28.5430   -6.3930 C.3    84  LEU84       0.0019
     15  CD1      -26.4720   27.5320   -7.5140 C.3    84  LEU84       0.0001
     16  CD2      -26.0920   27.8320   -5.0660 C.3    84  LEU84       0.0001
     17  N        -21.3750   33.0200   -3.4000 N.3    87  VAL87      -0.1231
     18  CA       -20.7870   31.9780   -2.5690 C.3    87  VAL87       0.1692
     19  C        -19.6710   31.2780   -3.3540 C.2    87  VAL87       0.2592
     20  O        -18.5600   31.1130   -2.8660 O.2    87  VAL87      -0.2718
     21  CB       -21.8590   30.9660   -2.0580 C.3    87  VAL87       0.0266
     22  CG1      -21.2200   29.9140   -1.1550 C.3    87  VAL87       0.0020
     23  CG2      -22.9720   31.7090   -1.3250 C.3    87  VAL87       0.0020
     24  N        -19.9630   30.9110   -4.5980 N.am   88  TYR88      -0.1976
     25  CA       -18.9810   30.2520   -5.4410 C.3    88  TYR88       0.1639
     26  C        -17.7300   31.1100   -5.5880 C.2    88  TYR88       0.2290
     27  O        -16.6150   30.6290   -5.4040 O.2    88  TYR88      -0.2864
     28  CB       -19.6080   29.9640   -6.8070 C.3    88  TYR88       0.0560
     29  CG       -18.7050   29.2400   -7.7750 C.ar   88  TYR88      -0.0198
     30  CD1      -18.5520   27.8560   -7.7100 C.ar   88  TYR88      -0.0009
     31  CD2      -18.0050   29.9370   -8.7520 C.ar   88  TYR88      -0.0009
     32  CE1      -17.7340   27.1880   -8.6010 C.ar   88  TYR88       0.0417
     33  CE2      -17.1730   29.2790   -9.6440 C.ar   88  TYR88       0.0417
     34  CZ       -17.0410   27.9020   -9.5610 C.ar   88  TYR88       0.1957
     35  OH       -16.2160   27.2300  -10.4400 O.3    88  TYR88      -0.2866
     36  N        -15.1290   31.1730   -2.7870 N.3    91  LEU91      -0.1245
     37  CA       -14.3830   29.9510   -2.5060 C.3    91  LEU91       0.1561
     38  C        -13.0600   29.8770   -3.2470 C.2    91  LEU91       0.2260
     39  O        -12.8970   30.4550   -4.3240 O.2    91  LEU91      -0.2867
     40  CB       -15.2140   28.7190   -2.8800 C.3    91  LEU91       0.0270
     41  CG       -16.5340   28.5130   -2.1420 C.3    91  LEU91       0.0019
     42  CD1      -17.3100   27.3870   -2.7990 C.3    91  LEU91       0.0001
     43  CD2      -16.3300   28.2370   -0.6610 C.3    91  LEU91       0.0001
     44  N        -18.5200   22.4470   -4.9130 N.3    99  ALA99      -0.1245
     45  CA       -19.7660   23.1060   -5.2860 C.3    99  ALA99       0.1562
     46  C        -20.2740   22.6210   -6.6440 C.2    99  ALA99       0.2260
     47  O        -21.4790   22.3540   -6.8150 O.2    99  ALA99      -0.2867
     48  CB       -19.5870   24.6250   -5.2900 C.3    99  ALA99       0.0290
     49  N        -21.7090   19.0530   -6.2730 N.3   102  GLN102     -0.1231
     50  CA       -23.0510   19.0930   -5.6860 C.3   102  GLN102      0.1698
     51  C        -24.1150   19.4860   -6.6990 C.2   102  GLN102      0.2592
     52  O        -25.1650   18.8550   -6.8000 O.2   102  GLN102     -0.2718
     53  CB       -23.0950   20.0910   -4.5320 C.3   102  GLN102      0.0381
     54  CG       -22.8040   19.5160   -3.1720 C.3   102  GLN102      0.0905
     55  CD       -23.3740   20.3810   -2.0560 C.2   102  GLN102      0.2608
     56  OE1      -23.0820   21.5680   -1.9710 O.2   102  GLN102     -0.2717
     57  NE2      -24.1950   19.7860   -1.2060 N.am  102  GLN102     -0.0878
     58  N        -23.8560   20.5600   -7.4440 N.am  103  VAL103     -0.1980
     59  CA       -24.8130   21.0360   -8.4550 C.3   103  VAL103      0.1595
     60  C        -24.9910   19.9990   -9.5650 C.2   103  VAL103      0.2287
     61  O        -26.1000   19.7840  -10.0540 O.2   103  VAL103     -0.2864
     62  CB       -24.3770   22.4020   -9.0420 C.3   103  VAL103      0.0276
     63  CG1      -25.1460   22.7400  -10.3240 C.3   103  VAL103      0.0022
     64  CG2      -24.5610   23.4940   -8.0190 C.3   103  VAL103      0.0022
     65  N        -29.8070   22.2270   -4.7480 N.3   111  VAL111     -0.1245
     66  CA       -28.9690   23.0730   -3.9010 C.3   111  VAL111      0.1561
     67  C        -29.7880   24.2290   -3.3100 C.2   111  VAL111      0.2260
     68  O        -29.3830   24.8450   -2.3290 O.2   111  VAL111     -0.2867
     69  CB       -27.6720   23.5560   -4.6240 C.3   111  VAL111      0.0252
     70  CG1      -26.7900   24.3720   -3.6810 C.3   111  VAL111      0.0019
     71  CG2      -26.8830   22.3610   -5.1420 C.3   111  VAL111      0.0019
     72  N        -30.0010   24.1370    0.2510 N.3   114  PHE114     -0.1241
     73  CA       -28.7540   24.1920    1.0090 C.3   114  PHE114      0.1605
     74  C        -28.3480   25.6090    1.3970 C.2   114  PHE114      0.2264
     75  O        -27.1920   25.8690    1.7400 O.2   114  PHE114     -0.2867
     76  CB       -27.6360   23.4700    0.2540 C.3   114  PHE114      0.0534
     77  CG       -27.6750   21.9840    0.4200 C.ar  114  PHE114     -0.0203
     78  CD1      -28.4350   21.2000   -0.4380 C.ar  114  PHE114     -0.0042
     79  CD2      -26.9810   21.3700    1.4530 C.ar  114  PHE114     -0.0042
     80  CE1      -28.4910   19.8290   -0.2760 C.ar  114  PHE114     -0.0003
     81  CE2      -27.0230   19.9940    1.6190 C.ar  114  PHE114     -0.0003
     82  CZ       -27.7810   19.2210    0.7500 C.ar  114  PHE114     -0.0000
     83  N        -26.2620   26.1820    4.7120 N.3   117  SER117     -0.1202
     84  CA       -24.9250   25.6410    4.4110 C.3   117  SER117      0.2020
     85  C        -24.1130   26.6400    3.5930 C.2   117  SER117      0.2618
     86  O        -22.9320   26.8690    3.8620 O.2   117  SER117     -0.2717
     87  CB       -25.0030   24.3340    3.6090 C.3   117  SER117      0.2103
     88  OG       -25.6950   23.2930    4.2780 O.3   117  SER117     -0.2182
     89  N        -24.7610   27.2120    2.5800 N.am  118  LEU118     -0.1979
     90  CA       -24.1680   28.2180    1.6950 C.3   118  LEU118      0.1596
     91  C        -23.6390   29.4180    2.4600 C.2   118  LEU118      0.2287
     92  O        -22.5410   29.9140    2.1900 O.2   118  LEU118     -0.2864
     93  CB       -25.2110   28.7040    0.6830 C.3   118  LEU118      0.0297
     94  CG       -25.6410   27.7250   -0.4040 C.3   118  LEU118      0.0022
     95  CD1      -26.8430   28.2780   -1.1570 C.3   118  LEU118      0.0001
     96  CD2      -24.4840   27.4190   -1.3540 C.3   118  LEU118      0.0001
     97  N        -20.5390   28.4340    4.3850 N.3   121  LEU121     -0.1245
     98  CA       -19.4200   28.3570    3.4520 C.3   121  LEU121      0.1561
     99  C        -18.9060   29.7450    3.0720 C.2   121  LEU121      0.2260
    100  O        -17.7000   29.9710    3.0720 O.2   121  LEU121     -0.2867
    101  CB       -19.8010   27.5600    2.1910 C.3   121  LEU121      0.0270
    102  CG       -20.0540   26.0640    2.3870 C.3   121  LEU121      0.0019
    103  CD1      -20.7250   25.4720    1.1530 C.3   121  LEU121      0.0001
    104  CD2      -18.7720   25.3140    2.7130 C.3   121  LEU121      0.0001
    105  N        -24.1850   20.5380    6.2480 N.3   133  LEU133     -0.1245
    106  CA       -24.3490   19.8790    4.9540 C.3   133  LEU133      0.1561
    107  C        -24.8250   18.4380    5.1110 C.2   133  LEU133      0.2260
    108  O        -25.5700   17.9320    4.2710 O.2   133  LEU133     -0.2867
    109  CB       -23.0340   19.9080    4.1730 C.3   133  LEU133      0.0270
    110  CG       -22.6980   21.2220    3.4580 C.3   133  LEU133      0.0019
    111  CD1      -21.2090   21.2960    3.1660 C.3   133  LEU133      0.0001
    112  CD2      -23.5220   21.4100    2.1810 C.3   133  LEU133      0.0001
    113  N        -15.3020   20.3250    0.9880 N.3   153  PHE153     -0.1241
    114  CA       -15.7440   21.6260    1.5000 C.3   153  PHE153      0.1605
    115  C        -15.0880   21.9740    2.8350 C.2   153  PHE153      0.2264
    116  O        -14.8190   23.1490    3.1000 O.2   153  PHE153     -0.2867
    117  CB       -17.2550   21.6500    1.7360 C.3   153  PHE153      0.0534
    118  CG       -18.0900   21.9470    0.5180 C.ar  153  PHE153     -0.0203
    119  CD1      -19.1360   21.0960    0.1730 C.ar  153  PHE153     -0.0042
    120  CD2      -17.8820   23.0930   -0.2470 C.ar  153  PHE153     -0.0042
    121  CE1      -19.9560   21.3710   -0.9160 C.ar  153  PHE153     -0.0003
    122  CE2      -18.6970   23.3730   -1.3380 C.ar  153  PHE153     -0.0003
    123  CZ       -19.7340   22.5070   -1.6790 C.ar  153  PHE153     -0.0000
@<TRIPOS>BOND
     1     1     2    1
     2     3     2    1
     3     3     4    2
     4     2     5    1
     5    35    34    1
     6    63    62    1
     7     5     6    1
     8     5     7    1
     9    61    60    2
    10     6     8    1
    11    33    34   ar
    12    33    31   ar
    13    60    59    1
    14    34    32   ar
    15    62    59    1
    16    62    64    1
    17    31    29   ar
    18    32    30   ar
    19    59    58    1
    20    29    30   ar
    21    29    28    1
    22    15    14    1
    23    58    51   am
    24    47    46    2
    25    28    25    1
    26    52    51    2
    27    13    14    1
    28    13    10    1
    29    51    50    1
    30    46    45    1
    31    14    16    1
    32    49    50    1
    33    11    10    1
    34    11    12    2
    35    10     9    1
    36    50    53    1
    37    26    25    1
    38    26    27    2
    39    25    24    1
    40    48    45    1
    41    45    44    1
    42    71    69    1
    43    65    66    1
    44    69    66    1
    45    69    70    1
    46    24    19   am
    47    53    54    1
    48    39    38    2
    49    66    67    1
    50    17    18    1
    51    19    20    2
    52    19    18    1
    53    67    68    2
    54    38    37    1
    55    54    55    1
    56    40    37    1
    57    40    41    1
    58    42    41    1
    59    36    37    1
    60    18    21    1
    61    41    43    1
    62    21    23    1
    63    21    22    1
    64    55    56    2
    65    55    57   am
    66   123   122   ar
    67   123   121   ar
    68    96    94    1
    69   122   120   ar
    70    95    94    1
    71   121   119   ar
    72    78    80   ar
    73    78    77   ar
    74    94    93    1
    75    80    82   ar
    76   120   118   ar
    77   119   118   ar
    78    72    73    1
    79    76    77    1
    80    76    73    1
    81    77    79   ar
    82   118   117    1
    83    93    90    1
    84    82    81   ar
    85   113   114    1
    86    73    74    1
    87   103   102    1
    88    74    75    2
    89    79    81   ar
    90   114   117    1
    91   114   115    1
    92    90    91    1
    93    90    89    1
    94   112   110    1
    95    92    91    2
    96   101   102    1
    97   101    98    1
    98   102   104    1
    99    89    85   am
   100   115   116    2
   101    99   100    2
   102    99    98    1
   103   111   110    1
   104    98    97    1
   105   110   109    1
   106    85    86    2
   107    85    84    1
   108    87    88    1
   109    87    84    1
   110   109   106    1
   111   108   107    2
   112    84    83    1
   113   106   107    1
   114   106   105    1
