@<TRIPOS>MOLECULE
tmp/3hubA01.pdb
 178 166 0 0 0
SMALL
GASTEIGER

@<TRIPOS>ATOM
      1  N         30.0150    7.9190  -23.2470 N.3    26  PRO26      -0.2102
      2  CA        28.8930    7.7680  -22.2890 C.3    26  PRO26       0.1504
      3  C         27.5090    8.1090  -22.8410 C.2    26  PRO26       0.2576
      4  O         27.3870    8.9860  -23.7130 O.2    26  PRO26      -0.2718
      5  CB        29.2950    8.7230  -21.1640 C.3    26  PRO26       0.0282
      6  CG        30.8520    8.6500  -21.2070 C.3    26  PRO26       0.0208
      7  CD        31.1420    8.6930  -22.6740 C.3    26  PRO26       0.0893
      8  N         26.4820    7.3990  -22.3620 N.am   27  VAL27      -0.1966
      9  CA        25.0790    7.6250  -22.7640 C.3    27  VAL27       0.1727
     10  C         24.1790    7.5460  -21.5460 C.2    27  VAL27       0.2616
     11  O         24.5450    6.9050  -20.5520 O.2    27  VAL27      -0.2715
     12  CB        24.5180    6.5710  -23.7840 C.3    27  VAL27       0.0290
     13  CG1       25.0700    6.7690  -25.1610 C.3    27  VAL27       0.0023
     14  CG2       24.7230    5.1390  -23.3020 C.3    27  VAL27       0.0023
     15  N         22.9990    8.1750  -21.6490 N.am   28  GLY28      -0.1955
     16  CA        21.9340    8.1170  -20.6220 C.3    28  GLY28       0.1869
     17  C         22.1590    8.9350  -19.3510 C.2    28  GLY28       0.2309
     18  O         21.3200    8.9140  -18.4240 O.2    28  GLY28      -0.2863
     19  N         21.4660    4.6670  -16.3280 N.3    32  TYR32      -0.1241
     20  CA        21.5740    3.2500  -16.7100 C.3    32  TYR32       0.1605
     21  C         22.7290    2.5600  -16.0330 C.2    32  TYR32       0.2264
     22  O         22.8910    1.3530  -16.1560 O.2    32  TYR32      -0.2867
     23  CB        21.6950    3.1180  -18.2360 C.3    32  TYR32       0.0534
     24  CG        20.5420    3.7890  -18.9070 C.ar   32  TYR32      -0.0201
     25  CD1       19.2580    3.2490  -18.8050 C.ar   32  TYR32      -0.0009
     26  CD2       20.7110    4.9940  -19.5940 C.ar   32  TYR32      -0.0009
     27  CE1       18.1900    3.8600  -19.3910 C.ar   32  TYR32       0.0417
     28  CE2       19.6330    5.6320  -20.1790 C.ar   32  TYR32       0.0417
     29  CZ        18.3690    5.0530  -20.0580 C.ar   32  TYR32       0.1957
     30  OH        17.2650    5.6370  -20.6440 O.3    32  TYR32      -0.2866
     31  N         27.6040    3.3820  -18.5080 N.3    35  VAL35      -0.1245
     32  CA        27.3990    2.8640  -19.8670 C.3    35  VAL35       0.1561
     33  C         28.0340    3.7470  -20.9670 C.2    35  VAL35       0.2260
     34  O         27.9230    4.9480  -20.9120 O.2    35  VAL35      -0.2867
     35  CB        25.8790    2.6770  -20.1700 C.3    35  VAL35       0.0252
     36  CG1       25.6770    2.0180  -21.5040 C.3    35  VAL35       0.0019
     37  CG2       25.2230    1.8190  -19.1440 C.3    35  VAL35       0.0019
     38  N         28.1400    4.0270  -25.3700 N.3    37  ALA37      -0.1245
     39  CA        27.9410    3.6500  -26.7680 C.3    37  ALA37       0.1562
     40  C         29.2950    3.2750  -27.3900 C.2    37  ALA37       0.2260
     41  O         30.3470    3.8080  -27.0380 O.2    37  ALA37      -0.2867
     42  CB        27.3260    4.7850  -27.5160 C.3    37  ALA37       0.0290
     43  N         25.9740   -1.0150  -26.4930 N.3    48  ALA48      -0.1245
     44  CA        26.1480   -0.3100  -25.2410 C.3    48  ALA48       0.1562
     45  C         26.9860   -1.2350  -24.3840 C.2    48  ALA48       0.2260
     46  O         26.6490   -2.3960  -24.2230 O.2    48  ALA48      -0.2867
     47  CB        24.7880    0.0180  -24.5850 C.3    48  ALA48       0.0290
     48  N         28.4100   -1.8080  -20.6110 N.3    50  LYS50      -0.1245
     49  CA        28.2050   -1.3960  -19.2370 C.3    50  LYS50       0.1561
     50  C         29.3570   -1.9450  -18.3760 C.2    50  LYS50       0.2260
     51  O         29.5950   -3.1660  -18.3970 O.2    50  LYS50      -0.2867
     52  CB        26.8560   -1.8970  -18.7590 C.3    50  LYS50       0.0271
     53  CG        26.5030   -1.4810  -17.3800 C.3    50  LYS50       0.0035
     54  CD        25.1730   -2.0240  -17.0570 C.3    50  LYS50       0.0206
     55  CE        24.7000   -1.4770  -15.7560 C.3    50  LYS50       0.1093
     56  NZ        23.4710   -2.2340  -15.3450 N.3    50  LYS50      -0.1314
     57  N         22.3230  -10.3560  -12.3180 N.3    68  GLU68      -0.1245
     58  CA        22.2430   -9.5530  -13.5690 C.3    68  GLU68       0.1567
     59  C         22.9140  -10.3240  -14.7170 C.2    68  GLU68       0.2260
     60  O         22.3560  -10.4880  -15.7550 O.2    68  GLU68      -0.2867
     61  CB        22.8970   -8.1510  -13.4280 C.3    68  GLU68       0.0388
     62  CG        22.4770   -7.1640  -14.5910 C.3    68  GLU68       0.1160
     63  CD        23.2360   -5.7950  -14.5960 C.2    68  GLU68       0.3649
     64  OE1       23.2530   -5.0850  -15.6300 O.co2  68  GLU68      -0.2457
     65  OE2       23.8380   -5.4290  -13.5820 O.co2  68  GLU68      -0.2457
     66  N         20.6240  -11.8970  -17.9500 N.3    72  LEU72      -0.1245
     67  CA        20.9970  -11.4890  -19.3110 C.3    72  LEU72       0.1561
     68  C         21.4580  -12.6310  -20.1880 C.2    72  LEU72       0.2260
     69  O         21.0970  -12.6570  -21.3510 O.2    72  LEU72      -0.2867
     70  CB        22.0830  -10.3980  -19.2970 C.3    72  LEU72       0.0270
     71  CG        21.5680   -9.0530  -18.7890 C.3    72  LEU72       0.0019
     72  CD1       22.7230   -8.0560  -18.6630 C.3    72  LEU72       0.0001
     73  CD2       20.4340   -8.5400  -19.6910 C.3    72  LEU72       0.0001
     74  N         16.0600   -7.5110  -23.9130 N.3    81  ILE81      -0.1231
     75  CA        17.5300   -7.2520  -23.8830 C.3    81  ILE81       0.1692
     76  C         18.3080   -8.4970  -23.4540 C.2    81  ILE81       0.2593
     77  O         18.0740   -9.0190  -22.3790 O.2    81  ILE81      -0.2718
     78  CB        17.8980   -6.0310  -22.9670 C.3    81  ILE81       0.0266
     79  CG1       17.4510   -4.7260  -23.6020 C.3    81  ILE81       0.0019
     80  CG2       19.4020   -5.8930  -22.7380 C.3    81  ILE81       0.0020
     81  CD1       18.1570   -4.3690  -24.9330 C.3    81  ILE81       0.0001
     82  N         19.1970   -8.9870  -24.3200 N.am   82  GLY82      -0.1942
     83  CA        20.1420  -10.0700  -24.0070 C.3    82  GLY82       0.2014
     84  C         21.5880   -9.5850  -24.0800 C.2    82  GLY82       0.2638
     85  O         21.8410   -8.3950  -24.0330 O.2    82  GLY82      -0.2714
     86  N         22.5370  -10.4950  -24.1390 N.am   83  LEU83      -0.1977
     87  CA        23.9410  -10.1440  -24.2030 C.3    83  LEU83       0.1596
     88  C         24.5410  -10.4680  -25.5310 C.2    83  LEU83       0.2287
     89  O         24.4740  -11.6280  -25.9670 O.2    83  LEU83      -0.2864
     90  CB        24.7950  -10.8870  -23.1650 C.3    83  LEU83       0.0297
     91  CG        24.7930  -10.5480  -21.6910 C.3    83  LEU83       0.0022
     92  CD1       25.5650  -11.6290  -20.9840 C.3    83  LEU83       0.0001
     93  CD2       25.4020   -9.1580  -21.4370 C.3    83  LEU83       0.0001
     94  N         29.3510   -5.7720  -19.6390 N.3   101  LEU101     -0.1245
     95  CA        28.2650   -6.3740  -20.3780 C.3   101  LEU101      0.1561
     96  C         27.9680   -5.5640  -21.6700 C.2   101  LEU101      0.2260
     97  O         27.9860   -4.3430  -21.6780 O.2   101  LEU101     -0.2867
     98  CB        27.0070   -6.4940  -19.4800 C.3   101  LEU101      0.0270
     99  CG        27.1640   -7.0480  -18.0450 C.3   101  LEU101      0.0019
    100  CD1       25.8830   -6.8000  -17.2810 C.3   101  LEU101      0.0001
    101  CD2       27.5920   -8.5410  -17.9390 C.3   101  LEU101      0.0001
    102  N         25.3820   -5.0240  -25.0340 N.3   103  THR103     -0.1203
    103  CA        24.1170   -5.2820  -25.6710 C.3   103  THR103      0.1994
    104  C         23.9280   -4.2770  -26.8090 C.2   103  THR103      0.2618
    105  O         24.7350   -3.3960  -27.0030 O.2   103  THR103     -0.2717
    106  CB        22.8950   -5.2390  -24.6550 C.3   103  THR103      0.1784
    107  OG1       21.7910   -5.9130  -25.2460 O.3   103  THR103     -0.2211
    108  CG2       22.4540   -3.7780  -24.3230 C.3   103  THR103      0.0376
    109  N         22.8590   -4.4570  -27.5570 N.am  104  HIS104     -0.1961
    110  CA        22.4020   -3.5480  -28.6170 C.3   104  HIS104      0.1787
    111  C         22.1800   -2.1220  -28.1490 C.2   104  HIS104      0.2620
    112  O         21.5650   -1.8910  -27.1210 O.2   104  HIS104     -0.2715
    113  CB        21.0640   -4.0830  -29.1620 C.3   104  HIS104      0.0785
    114  CG        21.1840   -5.3960  -29.8690 C.ar  104  HIS104      0.0821
    115  ND1       21.7680   -5.5200  -31.1150 N.ar  104  HIS104     -0.2267
    116  CD2       20.7970   -6.6490  -29.5040 C.ar  104  HIS104      0.1154
    117  CE1       21.7250   -6.7900  -31.4910 C.ar  104  HIS104      0.1986
    118  NE2       21.1290   -7.4950  -30.5380 N.ar  104  HIS104     -0.2212
    119  N         22.7050   -1.1650  -28.9010 N.am  105  LEU105     -0.1963
    120  CA        22.2920    0.2210  -28.7470 C.3   105  LEU105      0.1728
    121  C         20.9890    0.4480  -29.5520 C.2   105  LEU105      0.2616
    122  O         21.0110    0.5280  -30.7830 O.2   105  LEU105     -0.2715
    123  CB        23.3860    1.1670  -29.2390 C.3   105  LEU105      0.0311
    124  CG        23.3500    2.6620  -28.8310 C.3   105  LEU105      0.0022
    125  CD1       23.2660    2.8110  -27.3220 C.3   105  LEU105      0.0001
    126  CD2       24.6100    3.3800  -29.3890 C.3   105  LEU105      0.0001
    127  N         19.8600    0.4790  -28.8520 N.am  106  MET106     -0.1963
    128  CA        18.5920    0.8370  -29.4490 C.3   106  MET106      0.1736
    129  C         18.5410    2.3450  -29.5030 C.2   106  MET106      0.2617
    130  O         18.0880    2.9200  -30.4920 O.2   106  MET106     -0.2715
    131  CB        17.4590    0.3260  -28.6060 C.3   106  MET106      0.0427
    132  CG        17.5960   -1.1880  -28.2930 C.3   106  MET106      0.0599
    133  SD        17.5370   -2.0490  -29.8520 S.3   106  MET106     -0.1393
    134  CE        15.8420   -1.8570  -30.3590 C.3   106  MET106      0.0692
    135  N         19.0280    2.9940  -28.4470 N.am  107  GLY107     -0.1940
    136  CA        19.3070    4.4350  -28.5430 C.3   107  GLY107      0.2014
    137  C         18.2010    5.3830  -28.1220 C.2   107  GLY107      0.2639
    138  O         18.4130    6.5970  -28.1110 O.2   107  GLY107     -0.2714
    139  N         17.0380    4.8490  -27.7700 N.am  108  ALA108     -0.1963
    140  CA        15.9520    5.6200  -27.1650 C.3   108  ALA108      0.1728
    141  C         15.1010    4.6490  -26.3520 C.2   108  ALA108      0.2616
    142  O         15.2630    3.4300  -26.4690 O.2   108  ALA108     -0.2715
    143  CB        15.0920    6.3020  -28.2630 C.3   108  ALA108      0.0334
    144  N         14.1920    5.1900  -25.5410 N.am  109  ASP109     -0.1971
    145  CA        13.1510    4.3860  -24.8910 C.3   109  ASP109      0.1709
    146  C         11.7720    4.8160  -25.4090 C.2   109  ASP109      0.2293
    147  O         11.6940    5.7000  -26.2610 O.2   109  ASP109     -0.2864
    148  CB        13.2550    4.4790  -23.3630 C.3   109  ASP109      0.1436
    149  CG        13.0200    5.8800  -22.8390 C.2   109  ASP109      0.3671
    150  OD1       13.4880    6.1890  -21.7470 O.co2 109  ASP109     -0.2456
    151  OD2       12.3480    6.6750  -23.4890 O.co2 109  ASP109     -0.2456
    152  N         10.9230    8.5760  -25.5410 N.3   112  ASN112     -0.1240
    153  CA        11.8850    9.1590  -26.4940 C.3   112  ASN112      0.1653
    154  C         11.4900    8.9710  -27.9440 C.2   112  ASN112      0.2266
    155  O         12.2050    9.4440  -28.8490 O.2   112  ASN112     -0.2867
    156  CB        13.2460    8.4660  -26.3620 C.3   112  ASN112      0.1155
    157  CG        14.0950    9.0000  -25.2350 C.2   112  ASN112      0.2627
    158  OD1       13.6640    9.0920  -24.0650 O.2   112  ASN112     -0.2716
    159  ND2       15.3430    9.3220  -25.5690 N.am  112  ASN112     -0.0877
    160  N         10.0990    3.7840  -19.7710 N.3   151  SER151     -0.1217
    161  CA        11.5710    3.8870  -19.5670 C.3   151  SER151      0.1889
    162  C         12.2790    2.5290  -19.5630 C.2   151  SER151      0.2288
    163  O         13.5150    2.4430  -19.7700 O.2   151  SER151     -0.2866
    164  CB        11.9680    4.6750  -18.3090 C.3   151  SER151      0.2089
    165  OG        11.1040    4.3850  -17.2160 O.3   151  SER151     -0.2183
    166  N         13.1480   -0.1510  -24.5220 N.3   154  ALA154     -0.1245
    167  CA        14.1070    0.2990  -25.5080 C.3   154  ALA154      0.1562
    168  C         13.5580    0.1930  -26.9310 C.2   154  ALA154      0.2260
    169  O         13.0000   -0.8340  -27.3200 O.2   154  ALA154     -0.2867
    170  CB        15.4280   -0.5230  -25.3680 C.3   154  ALA154      0.0290
    171  N         13.6550   -4.0590  -21.1200 N.3   164  LEU164     -0.1245
    172  CA        14.8380   -4.0730  -20.2880 C.3   164  LEU164      0.1561
    173  C         14.4890   -4.1750  -18.8120 C.2   164  LEU164      0.2260
    174  O         13.3490   -3.8840  -18.4360 O.2   164  LEU164     -0.2867
    175  CB        15.7290   -2.8880  -20.6040 C.3   164  LEU164      0.0270
    176  CG        15.4460   -1.4140  -20.3920 C.3   164  LEU164      0.0019
    177  CD1       16.7040   -0.7490  -19.8150 C.3   164  LEU164      0.0001
    178  CD2       15.0770   -0.7290  -21.6780 C.3   164  LEU164      0.0001
@<TRIPOS>BOND
     1   117   115   ar
     2   117   118   ar
     3   115   114   ar
     4   122   121    2
     5   118   116   ar
     6   130   129    2
     7   134   133    1
     8   114   116   ar
     9   114   113    1
    10   133   132    1
    11   121   127   am
    12   121   120    1
    13   129   128    1
    14   129   135   am
    15   128   127    1
    16   128   131    1
    17   126   124    1
    18   123   124    1
    19   123   120    1
    20   113   110    1
    21   119   120    1
    22   119   111   am
    23   155   154    2
    24   124   125    1
    25   110   111    1
    26   110   109    1
    27   131   132    1
    28   136   135    1
    29   136   137    1
    30   143   140    1
    31   111   112    2
    32   137   138    2
    33   137   139   am
    34   154   153    1
    35   139   140    1
    36   109   104   am
    37    42    39    1
    38    40    41    2
    39    40    39    1
    40   169   168    2
    41   140   141    1
    42   105   104    2
    43   168   167    1
    44   104   103    1
    45    39    38    1
    46   153   156    1
    47   153   152    1
    48    43    44    1
    49   142   141    2
    50   156   157    1
    51   141   144   am
    52   147   146    2
    53    89    88    2
    54   103   102    1
    55   103   106    1
    56   159   157   am
    57   144   145    1
    58    88    87    1
    59   167   170    1
    60   167   166    1
    61   146   145    1
    62   107   106    1
    63    44    47    1
    64    44    45    1
    65   157   158    2
    66    13    12    1
    67    81    79    1
    68   145   148    1
    69   106   108    1
    70    45    46    2
    71    82    83    1
    72    82    76   am
    73    87    86    1
    74    87    90    1
    75    86    84   am
    76    84    85    2
    77    84    83    1
    78    74    75    1
    79    75    76    1
    80    75    78    1
    81    12    14    1
    82    12     9    1
    83     4     3    2
    84    79    78    1
    85   151   149   ar
    86    76    77    2
    87   148   149    1
    88     1     7    1
    89     1     2    1
    90    90    91    1
    91    78    80    1
    92     3     8   am
    93     3     2    1
    94   149   150   ar
    95     9     8    1
    96     9    10    1
    97     7     6    1
    98     2     5    1
    99    91    93    1
   100    91    92    1
   101   178   176    1
   102    97    96    2
   103    96    95    1
   104    15    10   am
   105    15    16    1
   106    10    11    2
   107    36    35    1
   108    69    68    2
   109     6     5    1
   110   171   172    1
   111    33    34    2
   112    33    32    1
   113    30    29    1
   114    16    17    1
   115    48    49    1
   116   175   176    1
   117   175   172    1
   118   176   177    1
   119    95    94    1
   120    95    98    1
   121   172   173    1
   122    68    67    1
   123    28    29   ar
   124    28    26   ar
   125    35    32    1
   126    35    37    1
   127    29    27   ar
   128    32    31    1
   129   160   161    1
   130   163   162    2
   131    73    71    1
   132    26    24   ar
   133   161   162    1
   134   161   164    1
   135    98    99    1
   136    27    25   ar
   137    17    18    2
   138    67    70    1
   139    67    66    1
   140    70    71    1
   141    49    52    1
   142    49    50    1
   143    24    25   ar
   144    24    23    1
   145   173   174    2
   146    71    72    1
   147    52    53    1
   148    51    50    2
   149   164   165    1
   150    23    20    1
   151    99   101    1
   152    99   100    1
   153    53    54    1
   154    54    55    1
   155    20    19    1
   156    20    21    1
   157    22    21    2
   158    55    56    1
   159    60    59    2
   160    64    63   ar
   161    59    58    1
   162    63    62    1
   163    63    65   ar
   164    62    61    1
   165    58    61    1
   166    58    57    1
