@<TRIPOS>MOLECULE
tmp/3hucA01.pdb
 138 128 0 0 0
SMALL
GASTEIGER

@<TRIPOS>ATOM
      1  N         28.5100    7.5480  -21.8180 N.3    27  VAL27      -0.1231
      2  CA        27.1200    7.8680  -22.1190 C.3    27  VAL27       0.1692
      3  C         26.2190    7.8400  -20.8650 C.2    27  VAL27       0.2592
      4  O         25.0310    8.1790  -20.9130 O.2    27  VAL27      -0.2718
      5  CB        26.5920    6.9680  -23.2680 C.3    27  VAL27       0.0266
      6  CG1       26.2610    5.5710  -22.7740 C.3    27  VAL27       0.0020
      7  CG2       25.3940    7.6210  -23.9630 C.3    27  VAL27       0.0020
      8  N         26.7890    7.4510  -19.7350 N.am   28  GLY28      -0.1957
      9  CA        25.9810    7.2360  -18.5480 C.3    28  GLY28       0.1869
     10  C         26.7660    6.6400  -17.4110 C.2    28  GLY28       0.2309
     11  O         27.7240    5.8780  -17.6130 O.2    28  GLY28      -0.2863
     12  N         25.1920    1.6610  -10.3290 N.3    32  TYR32      -0.1241
     13  CA        25.3170    0.4080  -11.0930 C.3    32  TYR32       0.1605
     14  C         26.6960    0.2150  -11.7260 C.2    32  TYR32       0.2264
     15  O         27.2320   -0.9030  -11.7590 O.2    32  TYR32      -0.2867
     16  CB        24.2300    0.3410  -12.1810 C.3    32  TYR32       0.0534
     17  CG        24.2510    1.4980  -13.1820 C.ar   32  TYR32      -0.0201
     18  CD1       24.9650    1.3980  -14.3890 C.ar   32  TYR32      -0.0009
     19  CD2       23.5530    2.6820  -12.9270 C.ar   32  TYR32      -0.0009
     20  CE1       24.9900    2.4580  -15.3150 C.ar   32  TYR32       0.0417
     21  CE2       23.5680    3.7390  -13.8380 C.ar   32  TYR32       0.0417
     22  CZ        24.2880    3.6200  -15.0280 C.ar   32  TYR32       0.1957
     23  OH        24.2960    4.6670  -15.9180 O.3    32  TYR32      -0.2866
     24  N         28.6470    3.3610  -18.3940 N.3    35  VAL35      -0.1245
     25  CA        28.4030    2.8260  -19.7270 C.3    35  VAL35       0.1561
     26  C         29.0930    3.7240  -20.7400 C.2    35  VAL35       0.2260
     27  O         29.0540    4.9560  -20.6150 O.2    35  VAL35      -0.2867
     28  CB        26.8780    2.7200  -20.0360 C.3    35  VAL35       0.0252
     29  CG1       26.6280    2.1590  -21.4620 C.3    35  VAL35       0.0019
     30  CG2       26.1380    1.8780  -18.9610 C.3    35  VAL35       0.0019
     31  N         26.6390   -0.7520  -26.5380 N.3    48  ALA48      -0.1245
     32  CA        26.8450   -0.1780  -25.2030 C.3    48  ALA48       0.1562
     33  C         27.7180   -1.1410  -24.3890 C.2    48  ALA48       0.2260
     34  O         27.4340   -2.3490  -24.3340 O.2    48  ALA48      -0.2867
     35  CB        25.5090    0.0350  -24.5170 C.3    48  ALA48       0.0290
     36  N         29.1810   -1.7470  -20.5950 N.3    50  LYS50      -0.1245
     37  CA        29.0170   -1.3540  -19.1920 C.3    50  LYS50       0.1561
     38  C         30.0590   -2.0190  -18.3340 C.2    50  LYS50       0.2260
     39  O         30.2190   -3.2520  -18.3670 O.2    50  LYS50      -0.2867
     40  CB        27.6480   -1.7110  -18.6860 C.3    50  LYS50       0.0271
     41  CG        27.4340   -1.4000  -17.2060 C.3    50  LYS50       0.0035
     42  CD        25.9840   -1.5170  -16.8440 C.3    50  LYS50       0.0206
     43  CE        25.5460   -2.9680  -16.6960 C.3    50  LYS50       0.1093
     44  NZ        24.0870   -3.0360  -16.3130 N.3    50  LYS50      -0.1314
     45  N         22.4670  -10.4580  -12.4120 N.3    68  GLU68      -0.1245
     46  CA        22.3660   -9.6530  -13.6420 C.3    68  GLU68       0.1567
     47  C         22.9540  -10.4290  -14.8140 C.2    68  GLU68       0.2260
     48  O         22.3680  -10.4680  -15.9270 O.2    68  GLU68      -0.2867
     49  CB        23.0540   -8.2850  -13.4960 C.3    68  GLU68       0.0388
     50  CG        22.8700   -7.4130  -14.7800 C.3    68  GLU68       0.1160
     51  CD        23.6670   -6.0930  -14.7990 C.2    68  GLU68       0.3649
     52  OE1       24.4300   -5.7920  -13.8440 O.co2  68  GLU68      -0.2457
     53  OE2       23.5540   -5.3680  -15.8200 O.co2  68  GLU68      -0.2457
     54  N         20.8100  -11.7650  -18.0880 N.3    72  LEU72      -0.1245
     55  CA        21.1710  -11.2990  -19.4380 C.3    72  LEU72       0.1561
     56  C         21.6030  -12.4570  -20.3330 C.2    72  LEU72       0.2260
     57  O         21.2740  -12.4550  -21.5270 O.2    72  LEU72      -0.2867
     58  CB        22.2560  -10.2050  -19.3960 C.3    72  LEU72       0.0270
     59  CG        21.7500   -8.8100  -19.0260 C.3    72  LEU72       0.0019
     60  CD1       22.9700   -7.9370  -18.7300 C.3    72  LEU72       0.0001
     61  CD2       20.9120   -8.1990  -20.1810 C.3    72  LEU72       0.0001
     62  N         16.0520   -7.1480  -24.2190 N.3    81  ILE81      -0.1245
     63  CA        17.5080   -6.8760  -24.1650 C.3    81  ILE81       0.1561
     64  C         18.2960   -8.1880  -24.0300 C.2    81  ILE81       0.2260
     65  O         17.9360   -9.0530  -23.2260 O.2    81  ILE81      -0.2867
     66  CB        17.9050   -5.8790  -23.0190 C.3    81  ILE81       0.0252
     67  CG1       19.4240   -5.5810  -23.1010 C.3    81  ILE81       0.0019
     68  CG2       17.5680   -6.4270  -21.6500 C.3    81  ILE81       0.0019
     69  CD1       20.0150   -4.7800  -21.8780 C.3    81  ILE81       0.0001
     70  N         22.4930  -10.1560  -24.4380 N.3    83  LEU83      -0.1245
     71  CA        23.9310   -9.9650  -24.2330 C.3    83  LEU83       0.1561
     72  C         24.6990  -10.3030  -25.5050 C.2    83  LEU83       0.2260
     73  O         24.6420  -11.4410  -25.9730 O.2    83  LEU83      -0.2867
     74  CB        24.3670  -10.8720  -23.0820 C.3    83  LEU83       0.0270
     75  CG        25.6980  -10.5790  -22.3840 C.3    83  LEU83       0.0019
     76  CD1       25.6670   -9.1600  -21.7650 C.3    83  LEU83       0.0001
     77  CD2       25.9180  -11.6450  -21.3370 C.3    83  LEU83       0.0001
     78  N         29.8190   -5.8180  -19.5660 N.3   101  LEU101     -0.1231
     79  CA        28.7110   -6.3890  -20.3200 C.3   101  LEU101      0.1693
     80  C         28.4880   -5.5780  -21.5610 C.2   101  LEU101      0.2592
     81  O         28.5930   -4.3530  -21.5120 O.2   101  LEU101     -0.2718
     82  CB        27.4210   -6.4230  -19.5070 C.3   101  LEU101      0.0284
     83  CG        27.5460   -7.0340  -18.1010 C.3   101  LEU101      0.0019
     84  CD1       26.2970   -6.7260  -17.2950 C.3   101  LEU101      0.0001
     85  CD2       27.7090   -8.5200  -18.2370 C.3   101  LEU101      0.0001
     86  N         28.1430   -6.2710  -22.6480 N.am  102  VAL102     -0.1966
     87  CA        27.9530   -5.6110  -23.9480 C.3   102  VAL102      0.1727
     88  C         26.5870   -5.9260  -24.5320 C.2   102  VAL102      0.2616
     89  O         26.1730   -7.0810  -24.5620 O.2   102  VAL102     -0.2715
     90  CB        29.0520   -6.0060  -24.9790 C.3   102  VAL102      0.0290
     91  CG1       28.8430   -5.2050  -26.3050 C.3   102  VAL102      0.0023
     92  CG2       30.4580   -5.7560  -24.4170 C.3   102  VAL102      0.0023
     93  N         25.8870   -4.8850  -24.9860 N.am  103  THR103     -0.1951
     94  CA        24.5970   -5.0500  -25.6630 C.3   103  THR103      0.1897
     95  C         24.4980   -4.0610  -26.8360 C.2   103  THR103      0.2313
     96  O         25.3900   -3.2260  -27.0300 O.2   103  THR103     -0.2863
     97  CB        23.4300   -4.8590  -24.6900 C.3   103  THR103      0.1794
     98  OG1       22.2280   -5.3520  -25.3020 O.3   103  THR103     -0.2208
     99  CG2       23.2420   -3.3840  -24.3210 C.3   103  THR103      0.0378
    100  N         23.6990   -0.8440  -28.8030 N.3   105  LEU105     -0.1231
    101  CA        23.5410    0.5470  -28.4210 C.3   105  LEU105      0.1693
    102  C         22.1340    0.9640  -28.8160 C.2   105  LEU105      0.2591
    103  O         21.7430    0.8630  -29.9850 O.2   105  LEU105     -0.2718
    104  CB        24.5770    1.4460  -29.1060 C.3   105  LEU105      0.0284
    105  CG        24.6230    2.9050  -28.6330 C.3   105  LEU105      0.0019
    106  CD1       24.8610    3.0090  -27.1130 C.3   105  LEU105      0.0001
    107  CD2       25.6550    3.7260  -29.4160 C.3   105  LEU105      0.0001
    108  N         21.3700    1.4200  -27.8390 N.am  106  MET106     -0.1979
    109  CA        20.0130    1.8570  -28.1130 C.3   106  MET106      0.1605
    110  C         19.9320    3.3640  -28.0120 C.2   106  MET106      0.2287
    111  O         20.3560    3.9560  -27.0060 O.2   106  MET106     -0.2864
    112  CB        19.0360    1.1840  -27.1650 C.3   106  MET106      0.0413
    113  CG        19.0980   -0.3090  -27.2730 C.3   106  MET106      0.0598
    114  SD        18.8980   -1.0600  -25.6730 S.3   106  MET106     -0.1393
    115  CE        20.2890   -0.4090  -24.7440 C.3   106  MET106      0.0692
    116  N         15.7400   -3.7450  -18.6230 N.3   165  ASP165     -0.1225
    117  CA        15.7730   -3.8360  -17.1590 C.3   165  ASP165      0.1805
    118  C         16.3610   -2.5560  -16.4950 C.2   165  ASP165      0.2598
    119  O         16.9610   -2.6350  -15.4060 O.2   165  ASP165     -0.2718
    120  CB        16.6130   -5.0760  -16.7500 C.3   165  ASP165      0.1424
    121  CG        18.0630   -5.0570  -17.3220 C.2   165  ASP165      0.3668
    122  OD1       18.3460   -4.3470  -18.3180 O.co2 165  ASP165     -0.2456
    123  OD2       18.9380   -5.7810  -16.7810 O.co2 165  ASP165     -0.2456
    124  N         16.1970   -1.4040  -17.1520 N.am  166  PHE166     -0.1962
    125  CA        16.8020   -0.1140  -16.7600 C.3   166  PHE166      0.1771
    126  C         16.4200    0.9980  -17.7480 C.2   166  PHE166      0.2620
    127  O         15.9570    0.7180  -18.8730 O.2   166  PHE166     -0.2715
    128  CB        18.3290   -0.2150  -16.7520 C.3   166  PHE166      0.0574
    129  CG        18.9130   -0.5210  -18.1040 C.ar  166  PHE166     -0.0200
    130  CD1       19.2020   -1.8250  -18.4630 C.ar  166  PHE166     -0.0042
    131  CD2       19.1360    0.4910  -19.0330 C.ar  166  PHE166     -0.0042
    132  CE1       19.7250   -2.1150  -19.7120 C.ar  166  PHE166     -0.0003
    133  CE2       19.6610    0.1990  -20.2840 C.ar  166  PHE166     -0.0003
    134  CZ        19.9530   -1.1020  -20.6160 C.ar  166  PHE166     -0.0000
    135  N         16.6360    2.2500  -17.3380 N.am  167  GLY167     -0.1954
    136  CA        16.4520    3.4280  -18.2060 C.3   167  GLY167      0.1869
    137  C         17.7780    4.0770  -18.5750 C.2   167  GLY167      0.2309
    138  O         18.2550    3.9540  -19.7140 O.2   167  GLY167     -0.2863
@<TRIPOS>BOND
     1   103   102    2
     2   107   105    1
     3   104   105    1
     4   104   101    1
     5   102   101    1
     6   102   108   am
     7   100   101    1
     8   105   106    1
     9   109   110    1
    10   109   108    1
    11   109   112    1
    12   110   111    2
    13   113   112    1
    14   113   114    1
    15    96    95    2
    16    95    94    1
    17    31    32    1
    18    91    90    1
    19    73    72    2
    20   114   115    1
    21    94    93    1
    22    94    97    1
    23    72    71    1
    24    98    97    1
    25    32    35    1
    26    32    33    1
    27    93    88   am
    28    90    92    1
    29    90    87    1
    30    97    99    1
    31    89    88    2
    32    88    87    1
    33    70    71    1
    34    33    34    2
    35    71    74    1
    36    62    63    1
    37    63    64    1
    38    63    66    1
    39    64    65    2
    40     7     5    1
    41    87    86    1
    42     5     6    1
    43     5     2    1
    44    67    66    1
    45    67    69    1
    46    74    75    1
    47    66    68    1
    48    86    80   am
    49    75    76    1
    50    75    77    1
    51     2     1    1
    52     2     3    1
    53    80    81    2
    54    80    79    1
    55    57    56    2
    56    29    28    1
    57     4     3    2
    58     3     8   am
    59    26    27    2
    60    26    25    1
    61   134   133   ar
    62   134   132   ar
    63    36    37    1
    64    56    55    1
    65    79    78    1
    66    79    82    1
    67   133   131   ar
    68    61    59    1
    69    28    25    1
    70    28    30    1
    71     8     9    1
    72    25    24    1
    73   138   137    2
    74   132   130   ar
    75    82    83    1
    76    55    58    1
    77    55    54    1
    78    58    59    1
    79    37    40    1
    80    37    38    1
    81   131   129   ar
    82    59    60    1
    83   127   126    2
    84    40    41    1
    85   116   117    1
    86   137   136    1
    87     9    10    1
    88   130   129   ar
    89    39    38    2
    90   122   121   ar
    91    85    83    1
    92   136   135    1
    93   129   128    1
    94    83    84    1
    95   126   135   am
    96   126   125    1
    97    11    10    2
    98   121   123   ar
    99   121   120    1
   100    41    42    1
   101   117   120    1
   102   117   118    1
   103   124   125    1
   104   124   118   am
   105    42    43    1
   106   125   128    1
   107    43    44    1
   108   118   119    2
   109    48    47    2
   110    23    22    1
   111    53    51   ar
   112    20    22   ar
   113    20    18   ar
   114    22    21   ar
   115    47    46    1
   116    51    50    1
   117    51    52   ar
   118    50    49    1
   119    18    17   ar
   120    21    19   ar
   121    46    49    1
   122    46    45    1
   123    17    19   ar
   124    17    16    1
   125    16    13    1
   126    15    14    2
   127    14    13    1
   128    13    12    1
