@<TRIPOS>MOLECULE
tmp/3hufA00.pdb
 86 83 0 0 0
SMALL
GASTEIGER

@<TRIPOS>ATOM
      1  N        -44.0510    7.1530   -0.0520 N.3    27  ARG27      -0.1231
      2  CA       -43.0900    6.0780   -0.3250 C.3    27  ARG27       0.1694
      3  C        -43.7130    4.8800   -1.0670 C.2    27  ARG27       0.2592
      4  O        -43.0600    4.2530   -1.9090 O.2    27  ARG27      -0.2718
      5  CB       -42.4730    5.6140    1.0090 C.3    27  ARG27       0.0321
      6  CG       -41.2850    4.6650    0.9030 C.3    27  ARG27       0.0489
      7  CD       -40.8020    4.3070    2.3130 C.3    27  ARG27       0.2205
      8  NE       -41.8090    3.5490    3.0620 N.pl3  27  ARG27      -0.0865
      9  CZ       -42.1100    3.7490    4.3420 C.cat  27  ARG27       0.5346
     10  NH1      -41.4930    4.6890    5.0390 N.pl3  27  ARG27       0.1354
     11  NH2      -43.0400    3.0150    4.9270 N.pl3  27  ARG27       0.1354
     12  N        -44.9740    4.5730   -0.7610 N.am   28  ASN28      -0.1974
     13  CA       -45.6240    3.3850   -1.3110 C.3    28  ASN28       0.1688
     14  C        -46.8340    3.7300   -2.1580 C.2    28  ASN28       0.2292
     15  O        -47.9740    3.4140   -1.8140 O.2    28  ASN28      -0.2864
     16  CB       -46.0190    2.4310   -0.1910 C.3    28  ASN28       0.1181
     17  CG       -45.5470    1.0220   -0.4490 C.2    28  ASN28       0.2629
     18  OD1      -45.9630    0.3730   -1.4200 O.2    28  ASN28      -0.2716
     19  ND2      -44.6510    0.5390    0.4140 N.am   28  ASN28      -0.0877
     20  N        -36.3300    6.3110    3.5370 N.3    41  LYS41      -0.1231
     21  CA       -36.6440    5.6540    4.8090 C.3    41  LYS41       0.1693
     22  C        -37.7120    6.3370    5.6600 C.2    41  LYS41       0.2593
     23  O        -38.6190    5.6710    6.1780 O.2    41  LYS41      -0.2718
     24  CB       -35.3700    5.4950    5.6600 C.3    41  LYS41       0.0285
     25  CG       -34.6630    4.1480    5.5170 C.3    41  LYS41       0.0035
     26  CD       -34.7240    3.2880    6.7990 C.3    41  LYS41       0.0206
     27  CE       -34.1050    1.9090    6.5540 C.3    41  LYS41       0.1093
     28  NZ       -34.2630    0.9330    7.6830 N.3    41  LYS41      -0.1314
     29  N        -37.5840    7.6510    5.8160 N.am   42  SER42      -0.1938
     30  CA       -38.3720    8.3990    6.8070 C.3    42  SER42       0.2055
     31  C        -39.6690    8.9940    6.2420 C.2    42  SER42       0.2643
     32  O        -40.4230    9.6540    6.9600 O.2    42  SER42      -0.2714
     33  CB       -37.5130    9.5010    7.4440 C.3    42  SER42       0.2130
     34  OG       -37.0980   10.4430    6.4520 O.3    42  SER42      -0.2179
     35  N        -39.9230    8.7300    4.9690 N.am   43  ILE43      -0.1963
     36  CA       -41.1550    9.1570    4.3010 C.3    43  ILE43       0.1727
     37  C        -42.2210    8.0920    4.5200 C.2    43  ILE43       0.2617
     38  O        -41.9690    6.9200    4.2850 O.2    43  ILE43      -0.2715
     39  CB       -40.9080    9.3530    2.7960 C.3    43  ILE43       0.0290
     40  CG1      -39.7920   10.3760    2.6030 C.3    43  ILE43       0.0022
     41  CG2      -42.2060    9.7970    2.0510 C.3    43  ILE43       0.0023
     42  CD1      -39.4510   10.6720    1.1570 C.3    43  ILE43       0.0001
     43  N        -43.3940    8.4950    5.0010 N.am   44  SER44      -0.1936
     44  CA       -44.5120    7.5700    5.2010 C.3    44  SER44       0.2055
     45  C        -45.0220    7.0580    3.8710 C.2    44  SER44       0.2642
     46  O        -44.8380    7.7170    2.8390 O.2    44  SER44      -0.2714
     47  CB       -45.6550    8.2510    5.9260 C.3    44  SER44       0.2130
     48  OG       -45.1970    8.8110    7.1280 O.3    44  SER44      -0.2179
     49  N        -45.6610    5.8880    3.9090 N.am   45  LYS45      -0.1977
     50  CA       -46.2490    5.2610    2.7280 C.3    45  LYS45       0.1596
     51  C        -47.1350    6.2100    1.9200 C.2    45  LYS45       0.2287
     52  O        -46.9770    6.3300    0.7130 O.2    45  LYS45      -0.2864
     53  CB       -47.0510    4.0260    3.1270 C.3    45  LYS45       0.0298
     54  CG       -46.2040    2.8960    3.6370 C.3    45  LYS45       0.0038
     55  CD       -47.0260    1.6380    3.7760 C.3    45  LYS45       0.0206
     56  CE       -46.7090    0.9670    5.0830 C.3    45  LYS45       0.1093
     57  NZ       -47.1520    1.8370    6.2040 N.3    45  LYS45      -0.1314
     58  N        -45.3850   10.0000   10.6280 N.3    76  LYS76      -0.1231
     59  CA       -44.3920    9.7670   11.6770 C.3    76  LYS76       0.1693
     60  C        -43.4690   10.9710   11.8960 C.2    76  LYS76       0.2592
     61  O        -43.3340   11.4490   13.0230 O.2    76  LYS76      -0.2718
     62  CB       -43.5570    8.5150   11.3650 C.3    76  LYS76       0.0285
     63  CG       -42.7380    7.9940   12.5460 C.3    76  LYS76       0.0035
     64  CD       -42.2050    6.6020   12.2710 C.3    76  LYS76       0.0206
     65  CE       -41.7430    5.9240   13.5380 C.3    76  LYS76       0.1093
     66  NZ       -41.4320    4.4760   13.3020 N.3    76  LYS76      -0.1314
     67  N        -42.8550   11.4680   10.8230 N.am   77  PHE77      -0.1976
     68  CA       -41.8180   12.4990   10.9600 C.3    77  PHE77       0.1639
     69  C        -42.1490   13.9200   10.4780 C.2    77  PHE77       0.2290
     70  O        -41.3020   14.7990   10.5690 O.2    77  PHE77      -0.2864
     71  CB       -40.4970   12.0070   10.3520 C.3    77  PHE77       0.0560
     72  CG       -39.9350   10.7960   11.0390 C.ar   77  PHE77      -0.0200
     73  CD1      -39.7820    9.6030   10.3540 C.ar   77  PHE77      -0.0042
     74  CD2      -39.5830   10.8440   12.3890 C.ar   77  PHE77      -0.0042
     75  CE1      -39.2690    8.4730   10.9930 C.ar   77  PHE77      -0.0003
     76  CE2      -39.0670    9.7240   13.0380 C.ar   77  PHE77      -0.0003
     77  CZ       -38.9100    8.5260   12.3400 C.ar   77  PHE77      -0.0000
     78  N        -37.7300   13.1000    7.5650 N.3   104  LYS104     -0.1245
     79  CA       -36.3600   13.5040    7.7940 C.3   104  LYS104      0.1561
     80  C        -35.5320   13.2660    6.5400 C.2   104  LYS104      0.2260
     81  O        -34.3160   13.1300    6.6170 O.2   104  LYS104     -0.2867
     82  CB       -35.7680   12.7110    8.9530 C.3   104  LYS104      0.0271
     83  CG       -36.4090   13.0040   10.2770 C.3   104  LYS104      0.0035
     84  CD       -36.1700   11.8470   11.1870 C.3   104  LYS104      0.0206
     85  CE       -35.7180   12.3280   12.5370 C.3   104  LYS104      0.1093
     86  NZ       -35.2660   11.1730   13.3690 N.3   104  LYS104     -0.1314
@<TRIPOS>BOND
     1    14    15    2
     2    14    13    1
     3     4     3    2
     4    18    17    2
     5    13    12    1
     6    13    16    1
     7     3    12   am
     8     3     2    1
     9    17    16    1
    10    17    19   am
    11     2     1    1
    12     2     5    1
    13    52    51    2
    14     6     5    1
    15     6     7    1
    16    42    40    1
    17    51    50    1
    18    41    39    1
    19     7     8    1
    20    40    39    1
    21    50    53    1
    22    50    49    1
    23    39    36    1
    24    46    45    2
    25     8     9    2
    26    53    54    1
    27    20    21    1
    28    54    55    1
    29    55    56    1
    30    45    49   am
    31    45    44    1
    32    38    37    2
    33    36    37    1
    34    36    35    1
    35     9    11    1
    36     9    10    1
    37    37    43   am
    38    21    22    1
    39    21    24    1
    40    35    31   am
    41    43    44    1
    42    56    57    1
    43    44    47    1
    44    25    24    1
    45    25    26    1
    46    22    29   am
    47    22    23    2
    48    29    30    1
    49    47    48    1
    50    31    30    1
    51    31    32    2
    52    34    33    1
    53    80    81    2
    54    80    79    1
    55    27    26    1
    56    27    28    1
    57    30    33    1
    58    78    79    1
    59    79    82    1
    60    82    83    1
    61    83    84    1
    62    71    68    1
    63    71    72    1
    64    73    75   ar
    65    73    72   ar
    66    69    70    2
    67    69    68    1
    68    58    59    1
    69    67    68    1
    70    67    60   am
    71    75    77   ar
    72    72    74   ar
    73    84    85    1
    74    62    59    1
    75    62    63    1
    76    59    60    1
    77    60    61    2
    78    64    63    1
    79    64    65    1
    80    77    76   ar
    81    74    76   ar
    82    85    86    1
    83    66    65    1
