@<TRIPOS>MOLECULE
tmp/3hukA00.pdb
 139 129 0 0 0
SMALL
GASTEIGER

@<TRIPOS>ATOM
      1  N         35.8060   -7.0360   12.1100 N.3    78  ILE78      -0.1245
      2  CA        36.1530   -6.3990   10.8410 C.3    78  ILE78       0.1561
      3  C         37.3600   -5.4770   11.0250 C.2    78  ILE78       0.2260
      4  O         38.3230   -5.5320   10.2510 O.2    78  ILE78      -0.2867
      5  CB        34.9550   -5.6070   10.2590 C.3    78  ILE78       0.0252
      6  CG1       33.8930   -6.5640    9.7070 C.3    78  ILE78       0.0019
      7  CG2       35.4070   -4.6460    9.1620 C.3    78  ILE78       0.0019
      8  CD1       32.5630   -5.8960    9.3620 C.3    78  ILE78       0.0001
      9  N         39.9700   -6.9520    5.8710 N.3    84  LEU84      -0.1245
     10  CA        38.6500   -6.3310    5.8720 C.3    84  LEU84       0.1561
     11  C         38.6640   -4.8500    6.2400 C.2    84  LEU84       0.2260
     12  O         37.9130   -4.0650    5.6580 O.2    84  LEU84      -0.2867
     13  CB        37.6820   -7.0940    6.7840 C.3    84  LEU84       0.0270
     14  CG        37.3730   -8.5580    6.4400 C.3    84  LEU84       0.0019
     15  CD1       36.4620   -9.1600    7.5040 C.3    84  LEU84       0.0001
     16  CD2       36.7490   -8.6880    5.0570 C.3    84  LEU84       0.0001
     17  N         38.9270   -2.0980    3.4610 N.3    87  VAL87      -0.1231
     18  CA        37.7350   -2.0930    2.6240 C.3    87  VAL87       0.1692
     19  C         36.5680   -1.4580    3.3870 C.2    87  VAL87       0.2592
     20  O         35.8870   -0.5780    2.8690 O.2    87  VAL87      -0.2718
     21  CB        37.3680   -3.5140    2.1150 C.3    87  VAL87       0.0266
     22  CG1       36.1780   -3.4450    1.1780 C.3    87  VAL87       0.0020
     23  CG2       38.5580   -4.1700    1.4170 C.3    87  VAL87       0.0020
     24  N         36.3630   -1.8940    4.6260 N.am   88  TYR88      -0.1976
     25  CA        35.3200   -1.3320    5.4720 C.3    88  TYR88       0.1639
     26  C         35.4650    0.1830    5.6080 C.2    88  TYR88       0.2290
     27  O         34.4910    0.9320    5.4480 O.2    88  TYR88      -0.2864
     28  CB        35.3640   -1.9970    6.8500 C.3    88  TYR88       0.0560
     29  CG        34.2590   -1.5700    7.7840 C.ar   88  TYR88      -0.0198
     30  CD1       32.9960   -2.1590    7.7160 C.ar   88  TYR88      -0.0009
     31  CD2       34.4820   -0.5920    8.7490 C.ar   88  TYR88      -0.0009
     32  CE1       31.9800   -1.7700    8.5780 C.ar   88  TYR88       0.0417
     33  CE2       33.4740   -0.1980    9.6160 C.ar   88  TYR88       0.0417
     34  CZ        32.2250   -0.7880    9.5190 C.ar   88  TYR88       0.1957
     35  OH        31.2170   -0.4030   10.3670 O.3    88  TYR88      -0.2866
     36  N         34.2270    2.3910    2.7650 N.3    91  LEU91      -0.1245
     37  CA        32.7950    2.4050    2.4900 C.3    91  LEU91       0.1561
     38  C         32.0610    3.5300    3.1990 C.2    91  LEU91       0.2260
     39  O         32.4880    4.0010    4.2530 O.2    91  LEU91      -0.2867
     40  CB        32.1580    1.0710    2.8990 C.3    91  LEU91       0.0270
     41  CG        32.6300   -0.1940    2.1840 C.3    91  LEU91       0.0019
     42  CD1       32.0250   -1.4170    2.8600 C.3    91  LEU91       0.0001
     43  CD2       32.2700   -0.1760    0.7020 C.3    91  LEU91       0.0001
     44  N         28.3810   -4.9090    4.9270 N.3    99  ALA99      -0.1245
     45  CA        29.5760   -5.6240    5.3700 C.3    99  ALA99       0.1562
     46  C         29.3890   -6.2900    6.7300 C.2    99  ALA99       0.2260
     47  O         29.7450   -7.4570    6.9120 O.2    99  ALA99      -0.2867
     48  CB        30.7710   -4.6660    5.4060 C.3    99  ALA99       0.0290
     49  N         27.0340   -9.3320    6.3730 N.3   102  GLN102     -0.1231
     50  CA        27.6780  -10.5040    5.8070 C.3   102  GLN102      0.1698
     51  C         28.6050  -11.1950    6.8160 C.2   102  GLN102      0.2592
     52  O         28.5750  -12.4180    6.9210 O.2   102  GLN102     -0.2718
     53  CB        28.3920  -10.1730    4.4900 C.3   102  GLN102      0.0381
     54  CG        28.7230  -11.4080    3.6540 C.3   102  GLN102      0.0905
     55  CD        29.4140  -11.0980    2.3360 C.2   102  GLN102      0.2608
     56  OE1       29.8320  -12.0110    1.6250 O.2   102  GLN102     -0.2717
     57  NE2       29.5400   -9.8180    2.0040 N.am  102  GLN102     -0.0878
     58  N         29.3910  -10.4310    7.5730 N.am  103  VAL103     -0.1980
     59  CA        30.2810  -10.9950    8.5880 C.3   103  VAL103      0.1595
     60  C         29.4790  -11.6760    9.7050 C.2   103  VAL103      0.2287
     61  O         29.8520  -12.7300   10.2030 O.2   103  VAL103     -0.2864
     62  CB        31.2240   -9.9030    9.1610 C.3   103  VAL103      0.0276
     63  CG1       31.9620  -10.4060   10.3870 C.3   103  VAL103      0.0022
     64  CG2       32.2240   -9.4620    8.0990 C.3   103  VAL103      0.0022
     65  N         28.2960  -15.0140    8.1370 N.3   106  MET106     -0.1230
     66  CA        29.3000  -15.9670    7.6560 C.3   106  MET106      0.1702
     67  C         30.5480  -16.0910    8.5130 C.2   106  MET106      0.2592
     68  O         31.2750  -17.0840    8.4070 O.2   106  MET106     -0.2718
     69  CB        29.7160  -15.6190    6.2280 C.3   106  MET106      0.0401
     70  CG        28.6630  -15.9170    5.1840 C.3   106  MET106      0.0596
     71  SD        29.3070  -15.7740    3.5100 S.3   106  MET106     -0.1393
     72  CE        29.9690  -14.1060    3.4980 C.3   106  MET106      0.0692
     73  N         30.8070  -15.0960    9.3510 N.am  107  GLY107     -0.1957
     74  CA        32.0590  -15.0570   10.1060 C.3   107  GLY107      0.1869
     75  C         33.2100  -14.6670    9.1890 C.2   107  GLY107      0.2309
     76  O         32.9930  -14.1520    8.0890 O.2   107  GLY107     -0.2863
     77  N         35.9530  -17.3620    5.6010 N.3   110  GLY110     -0.1210
     78  CA        35.9170  -17.3720    4.1390 C.3   110  GLY110      0.1956
     79  C         36.3420  -16.0720    3.4820 C.2   110  GLY110      0.2611
     80  O         36.1330  -15.8790    2.2830 O.2   110  GLY110     -0.2717
     81  N         36.9500  -15.1820    4.2600 N.am  111  VAL111     -0.1979
     82  CA        37.3530  -13.8710    3.7540 C.3   111  VAL111      0.1595
     83  C         38.1890  -13.9660    2.4770 C.2   111  VAL111      0.2287
     84  O         37.9470  -13.2350    1.5160 O.2   111  VAL111     -0.2864
     85  CB        38.0960  -13.0390    4.8360 C.3   111  VAL111      0.0276
     86  CG1       38.7570  -11.8040    4.2290 C.3   111  VAL111      0.0022
     87  CG2       37.1310  -12.6300    5.9400 C.3   111  VAL111      0.0022
     88  N         36.5130  -14.1990   -0.7760 N.3   114  PHE114     -0.1241
     89  CA        35.8960  -12.9580   -1.2500 C.3   114  PHE114      0.1605
     90  C         36.9120  -11.8750   -1.6070 C.2   114  PHE114      0.2264
     91  O         36.5400  -10.7120   -1.7600 O.2   114  PHE114     -0.2867
     92  CB        34.8620  -12.4410   -0.2420 C.3   114  PHE114      0.0534
     93  CG        33.5750  -13.2270   -0.2360 C.ar  114  PHE114     -0.0203
     94  CD1       33.4710  -14.4120    0.4870 C.ar  114  PHE114     -0.0042
     95  CD2       32.4700  -12.7890   -0.9640 C.ar  114  PHE114     -0.0042
     96  CE1       32.2790  -15.1470    0.4880 C.ar  114  PHE114     -0.0003
     97  CE2       31.2770  -13.5130   -0.9660 C.ar  114  PHE114     -0.0003
     98  CZ        31.1830  -14.6960   -0.2390 C.ar  114  PHE114     -0.0000
     99  N         35.7890   -9.8370   -4.6690 N.3   117  SER117     -0.1202
    100  CA        34.6400   -8.9890   -4.3200 C.3   117  SER117      0.2020
    101  C         35.0960   -7.7800   -3.5110 C.2   117  SER117      0.2618
    102  O         34.6840   -6.6470   -3.7760 O.2   117  SER117     -0.2717
    103  CB        33.6080   -9.7620   -3.4910 C.3   117  SER117      0.2103
    104  OG        33.0260  -10.8400   -4.2040 O.3   117  SER117     -0.2182
    105  N         35.9460   -8.0350   -2.5190 N.am  118  LEU118     -0.1979
    106  CA        36.4680   -6.9930   -1.6360 C.3   118  LEU118      0.1596
    107  C         37.2430   -5.9280   -2.4000 C.2   118  LEU118      0.2287
    108  O         37.0840   -4.7310   -2.1360 O.2   118  LEU118     -0.2864
    109  CB        37.3530   -7.6120   -0.5530 C.3   118  LEU118      0.0297
    110  CG        36.6360   -8.4000    0.5440 C.3   118  LEU118      0.0022
    111  CD1       37.6250   -9.2400    1.3310 C.3   118  LEU118      0.0001
    112  CD2       35.8650   -7.4800    1.4760 C.3   118  LEU118      0.0001
    113  N         34.7640   -3.8070   -4.3100 N.3   121  LEU121     -0.1245
    114  CA        34.1130   -2.8840   -3.3830 C.3   121  LEU121      0.1561
    115  C         35.0200   -1.7060   -3.0300 C.2   121  LEU121      0.2260
    116  O         34.5820   -0.5520   -3.0390 O.2   121  LEU121     -0.2867
    117  CB        33.6430   -3.6050   -2.1160 C.3   121  LEU121      0.0270
    118  CG        32.4850   -4.5910   -2.2820 C.3   121  LEU121      0.0019
    119  CD1       32.3480   -5.4250   -1.0200 C.3   121  LEU121      0.0001
    120  CD2       31.1750   -3.8900   -2.6050 C.3   121  LEU121      0.0001
    121  N         29.8170  -10.9680   -6.1190 N.3   133  LEU133     -0.1245
    122  CA        29.2970  -11.4270   -4.8290 C.3   133  LEU133      0.1561
    123  C         28.2860  -12.5630   -4.9730 C.2   133  LEU133      0.2260
    124  O         28.2130  -13.4420   -4.1100 O.2   133  LEU133     -0.2867
    125  CB        28.6600  -10.2610   -4.0760 C.3   133  LEU133      0.0270
    126  CG        29.6400   -9.3020   -3.3910 C.3   133  LEU133      0.0019
    127  CD1       28.9650   -7.9790   -3.0850 C.3   133  LEU133      0.0001
    128  CD2       30.2270   -9.9180   -2.1220 C.3   133  LEU133      0.0001
    129  N         25.0390   -3.2480   -1.0330 N.3   153  PHE153     -0.1241
    130  CA        26.3920   -2.9910   -1.5290 C.3   153  PHE153      0.1605
    131  C         26.3900   -2.2740   -2.8760 C.2   153  PHE153      0.2264
    132  O         27.2600   -1.4430   -3.1370 O.2   153  PHE153     -0.2867
    133  CB        27.1590   -4.3010   -1.7270 C.3   153  PHE153      0.0534
    134  CG        27.8620   -4.8240   -0.4990 C.ar  153  PHE153     -0.0203
    135  CD1       27.6690   -6.1450   -0.1070 C.ar  153  PHE153     -0.0042
    136  CD2       28.7490   -4.0290    0.2280 C.ar  153  PHE153     -0.0042
    137  CE1       28.3300   -6.6680    0.9930 C.ar  153  PHE153     -0.0003
    138  CE2       29.4120   -4.5440    1.3410 C.ar  153  PHE153     -0.0003
    139  CZ        29.2050   -5.8640    1.7210 C.ar  153  PHE153     -0.0000
@<TRIPOS>BOND
     1   121   122    1
     2   123   122    1
     3   123   124    2
     4   122   125    1
     5    99   100    1
     6   100   101    1
     7   100   103    1
     8   113   114    1
     9   104   103    1
    10   125   126    1
    11   102   101    2
    12   101   105   am
    13   126   127    1
    14   126   128    1
    15   114   115    1
    16   114   117    1
    17   132   131    2
    18   116   115    2
    19   131   130    1
    20   120   118    1
    21   105   106    1
    22   107   108    2
    23   107   106    1
    24   118   117    1
    25   118   119    1
    26    91    90    2
    27   133   130    1
    28   133   134    1
    29   106   109    1
    30    90    89    1
    31   130   129    1
    32    89    88    1
    33    89    92    1
    34    97    95   ar
    35    97    98   ar
    36    95    93   ar
    37   109   110    1
    38   134   135   ar
    39   134   136   ar
    40    92    93    1
    41    98    96   ar
    42    93    94   ar
    43   135   137   ar
    44   136   138   ar
    45    94    96   ar
    46   110   111    1
    47   110   112    1
    48    43    41    1
    49   137   139   ar
    50    22    21    1
    51   138   139   ar
    52    23    21    1
    53    84    83    2
    54    56    55    2
    55    57    55   am
    56    21    18    1
    57    41    42    1
    58    41    40    1
    59    80    79    2
    60    55    54    1
    61    83    82    1
    62    37    36    1
    63    37    40    1
    64    37    38    1
    65    18    19    1
    66    18    17    1
    67    20    19    2
    68    38    39    2
    69    19    24   am
    70    79    78    1
    71    79    81   am
    72    72    71    1
    73    71    70    1
    74    54    53    1
    75    82    81    1
    76    82    85    1
    77    78    77    1
    78    86    85    1
    79    53    50    1
    80    24    25    1
    81    85    87    1
    82    44    45    1
    83    16    14    1
    84    70    69    1
    85    45    48    1
    86    45    46    1
    87    27    26    2
    88    25    26    1
    89    25    28    1
    90    12    11    2
    91    50    49    1
    92    50    51    1
    93     9    10    1
    94    10    11    1
    95    10    13    1
    96    69    66    1
    97    14    13    1
    98    14    15    1
    99    46    47    2
   100    51    52    2
   101    51    58   am
   102    28    29    1
   103    58    59    1
   104    66    65    1
   105    66    67    1
   106    30    29   ar
   107    30    32   ar
   108    29    31   ar
   109    76    75    2
   110    64    62    1
   111    68    67    2
   112    67    73   am
   113    32    34   ar
   114    59    62    1
   115    59    60    1
   116    31    33   ar
   117    62    63    1
   118     7     5    1
   119    75    74    1
   120    73    74    1
   121     8     6    1
   122    34    33   ar
   123    34    35    1
   124    60    61    2
   125     6     5    1
   126     4     3    2
   127     5     2    1
   128     2     3    1
   129     2     1    1
