@<TRIPOS>MOLECULE
tmp/3huoB00.pdb
 130 123 0 0 0
SMALL
GASTEIGER

@<TRIPOS>ATOM
      1  N         31.2680   14.4920   -7.6300 N.3    42  GLY42      -0.1225
      2  CA        31.8030   14.7360   -8.9670 C.3    42  GLY42       0.1811
      3  C         33.1370   14.1020   -9.3190 C.2    42  GLY42       0.2280
      4  O         33.4940   14.0360  -10.5010 O.2    42  GLY42      -0.2866
      5  N         33.3230   11.3990  -11.9560 N.3    45  LYS45      -0.1245
      6  CA        33.2850   11.7070  -13.3800 C.3    45  LYS45       0.1561
      7  C         34.5700   11.2560  -14.0790 C.2    45  LYS45       0.2260
      8  O         34.5540   10.9280  -15.2580 O.2    45  LYS45      -0.2867
      9  CB        32.9790   13.1970  -13.6090 C.3    45  LYS45       0.0271
     10  CG        31.5220   13.5410  -13.2420 C.3    45  LYS45       0.0035
     11  CD        31.2880   15.0110  -13.0410 C.3    45  LYS45       0.0206
     12  CE        29.7770   15.2890  -12.9210 C.3    45  LYS45       0.1093
     13  NZ        29.4670   16.3360  -11.9080 N.3    45  LYS45      -0.1314
     14  N         20.1630   19.0530  -12.4670 N.3    76  ASN76      -0.1225
     15  CA        20.3590   20.2320  -11.6020 C.3    76  ASN76       0.1785
     16  C         21.5070   21.1860  -11.9360 C.2    76  ASN76       0.2597
     17  O         21.5720   22.2910  -11.3960 O.2    76  ASN76      -0.2718
     18  CB        20.5320   19.7810  -10.1760 C.3    76  ASN76       0.1169
     19  CG        21.8080   19.0300   -9.9760 C.2    76  ASN76       0.2627
     20  OD1       22.1350   18.1290  -10.7530 O.2    76  ASN76      -0.2716
     21  ND2       22.5940   19.4460   -8.9820 N.am   76  ASN76      -0.0877
     22  N         22.4370   20.7490  -12.7620 N.am   77  TYR77      -0.1976
     23  CA        23.5980   21.5650  -13.1000 C.3    77  TYR77       0.1639
     24  C         24.1010   21.1280  -14.4750 C.2    77  TYR77       0.2290
     25  O         24.6900   20.0520  -14.6220 O.2    77  TYR77      -0.2864
     26  CB        24.6900   21.3760  -12.0530 C.3    77  TYR77       0.0560
     27  CG        25.8550   22.2860  -12.2430 C.ar   77  TYR77      -0.0198
     28  CD1       27.1110   21.7840  -12.5780 C.ar   77  TYR77      -0.0009
     29  CD2       25.7000   23.6550  -12.1450 C.ar   77  TYR77      -0.0009
     30  CE1       28.1780   22.6380  -12.7850 C.ar   77  TYR77       0.0417
     31  CE2       26.7520   24.5080  -12.3360 C.ar   77  TYR77       0.0417
     32  CZ        27.9890   24.0000  -12.6470 C.ar   77  TYR77       0.1957
     33  OH        29.0440   24.8770  -12.8350 O.3    77  TYR77      -0.2866
     34  N         33.7540   21.0180  -16.5950 N.3   101  TYR101     -0.1227
     35  CA        32.7000   21.8910  -16.0710 C.3   101  TYR101      0.1736
     36  C         31.8170   21.1810  -15.0390 C.2   101  TYR101      0.2596
     37  O         30.9580   21.8090  -14.4160 O.2   101  TYR101     -0.2718
     38  CB        31.8270   22.4190  -17.2350 C.3   101  TYR101      0.0548
     39  CG        32.6080   23.2810  -18.2040 C.ar  101  TYR101     -0.0200
     40  CD1       33.3770   22.7020  -19.2080 C.ar  101  TYR101     -0.0009
     41  CD2       32.6550   24.6640  -18.0560 C.ar  101  TYR101     -0.0009
     42  CE1       34.1340   23.4730  -20.0720 C.ar  101  TYR101      0.0417
     43  CE2       33.4170   25.4510  -18.9300 C.ar  101  TYR101      0.0417
     44  CZ        34.1470   24.8380  -19.9300 C.ar  101  TYR101      0.1957
     45  OH        34.9290   25.5990  -20.8070 O.3   101  TYR101     -0.2866
     46  N         32.0620   19.8780  -14.8350 N.am  102  SER102     -0.1952
     47  CA        31.2640   19.0870  -13.9040 C.3   102  SER102      0.1924
     48  C         29.7810   19.0580  -14.3060 C.2   102  SER102      0.2314
     49  O         28.9110   18.9610  -13.4670 O.2   102  SER102     -0.2863
     50  CB        31.4190   19.5740  -12.4610 C.3   102  SER102      0.2116
     51  OG        31.3930   18.4460  -11.5700 O.3   102  SER102     -0.2180
     52  N         26.4080   17.7500  -15.0600 N.3   104  ASN104     -0.1240
     53  CA        25.7110   16.5350  -14.6160 C.3   104  ASN104      0.1653
     54  C         24.9320   15.8150  -15.7140 C.2   104  ASN104      0.2266
     55  O         24.7870   14.5920  -15.6820 O.2   104  ASN104     -0.2867
     56  CB        24.8100   16.8480  -13.4160 C.3   104  ASN104      0.1155
     57  CG        25.5990   17.0530  -12.1460 C.2   104  ASN104      0.2627
     58  OD1       26.7750   16.7580  -12.1010 O.2   104  ASN104     -0.2716
     59  ND2       24.9320   17.5320  -11.0880 N.am  104  ASN104     -0.0877
     60  N         21.3180   13.5580  -10.1920 N.3   139  PRO139     -0.2116
     61  CA        22.1460   14.1070   -9.1340 C.3   139  PRO139      0.1372
     62  C         22.1740   13.2870   -7.8310 C.2   139  PRO139      0.2244
     63  O         22.8740   13.6730   -6.8970 O.2   139  PRO139     -0.2868
     64  CB        21.4650   15.4460   -8.8440 C.3   139  PRO139      0.0268
     65  CG        20.0090   15.1530   -9.0430 C.3   139  PRO139      0.0207
     66  CD        19.9430   14.0980  -10.1490 C.3   139  PRO139      0.0892
     67  N         25.1030   12.2340   -5.3090 N.3   142  ASN142     -0.1240
     68  CA        25.7090   13.2430   -4.4130 C.3   142  ASN142      0.1653
     69  C         25.0400   13.3870   -3.0460 C.2   142  ASN142      0.2266
     70  O         25.3340   14.3480   -2.3180 O.2   142  ASN142     -0.2867
     71  CB        25.7320   14.6270   -5.0860 C.3   142  ASN142      0.1155
     72  CG        26.3810   14.6020   -6.4360 C.2   142  ASN142      0.2627
     73  OD1       27.6200   14.5180   -6.5460 O.2   142  ASN142     -0.2716
     74  ND2       25.5740   14.6770   -7.4820 N.am  142  ASN142     -0.0877
     75  N         37.1530   24.2440  -12.6660 N.3   188  THR188     -0.1218
     76  CA        36.6160   24.3480  -11.3110 C.3   188  THR188      0.1862
     77  C         37.5720   24.1890  -10.1400 C.2   188  THR188      0.2287
     78  O         37.1080   24.1860   -8.9720 O.2   188  THR188     -0.2866
     79  CB        35.5230   23.2670  -11.0900 C.3   188  THR188      0.1770
     80  OG1       36.1430   21.9650  -11.0680 O.3   188  THR188     -0.2211
     81  CG2       34.4790   23.3030  -12.2040 C.3   188  THR188      0.0375
     82  N         40.0390   17.0600  -10.6730 N.3   206  LYS206     -0.1231
     83  CA        38.5540   16.9670  -10.7730 C.3   206  LYS206      0.1693
     84  C         37.9620   17.1480   -9.3880 C.2   206  LYS206      0.2593
     85  O         38.2790   16.3800   -8.4650 O.2   206  LYS206     -0.2718
     86  CB        38.0990   15.6140  -11.3390 C.3   206  LYS206      0.0285
     87  CG        36.5360   15.4760  -11.4560 C.3   206  LYS206      0.0035
     88  CD        35.9960   16.4100  -12.5620 C.3   206  LYS206      0.0206
     89  CE        34.4700   16.6260  -12.4450 C.3   206  LYS206      0.1093
     90  NZ        34.1690   17.6970  -11.4310 N.3   206  LYS206     -0.1314
     91  N         37.1420   18.1800   -9.2220 N.am  207  THR207     -0.1939
     92  CA        36.5210   18.4720   -7.9610 C.3   207  THR207      0.2028
     93  C         35.2260   17.6810   -7.7830 C.2   207  THR207      0.2643
     94  O         34.6920   17.1010   -8.7370 O.2   207  THR207     -0.2714
     95  CB        36.1600   19.9750   -7.8710 C.3   207  THR207      0.1808
     96  OG1       35.3890   20.3470   -9.0300 O.3   207  THR207     -0.2208
     97  CG2       37.4430   20.8480   -7.7970 C.3   207  THR207      0.0379
     98  N         34.6810   17.7440   -6.5770 N.am  208  GLY208     -0.1939
     99  CA        33.3790   17.1740   -6.3030 C.3   208  GLY208      0.2014
    100  C         32.7430   17.9060   -5.1440 C.2   208  GLY208      0.2640
    101  O         33.4370   18.4040   -4.2680 O.2   208  GLY208     -0.2714
    102  N         31.4110   17.9830   -5.1600 N.am  209  SER209     -0.1935
    103  CA        30.6700   18.6080   -4.0800 C.3   209  SER209      0.2055
    104  C         29.3190   17.9390   -3.9280 C.2   209  SER209      0.2644
    105  O         28.7370   17.4730   -4.8940 O.2   209  SER209     -0.2714
    106  CB        30.5020   20.1110   -4.3180 C.3   209  SER209      0.2130
    107  OG        29.4750   20.3700   -5.2520 O.3   209  SER209     -0.2179
    108  N         28.8320   17.8860   -2.7040 N.am  210  GLY210     -0.1939
    109  CA        27.5360   17.2470   -2.4610 C.3   210  GLY210      0.2014
    110  C         26.9240   17.6790   -1.1590 C.2   210  GLY210      0.2638
    111  O         27.3760   18.6480   -0.5440 O.2   210  GLY210     -0.2714
    112  N         25.9020   16.9580   -0.7200 N.am  211  ASP211     -0.1971
    113  CA        25.2550   17.2870    0.5580 C.3   211  ASP211      0.1709
    114  C         26.2320   16.9860    1.6920 C.2   211  ASP211      0.2293
    115  O         27.3170   16.4090    1.4660 O.2   211  ASP211     -0.2864
    116  CB        23.9670   16.4870    0.7460 C.3   211  ASP211      0.1436
    117  CG        22.8020   17.0610   -0.0330 C.2   211  ASP211      0.3671
    118  OD1       22.8680   18.2520   -0.4440 O.co2 211  ASP211     -0.2456
    119  OD2       21.8080   16.3230   -0.2230 O.co2 211  ASP211     -0.2456
    120  N         36.2310   24.2380    0.4700 N.3   246  ARG246     -0.1245
    121  CA        37.3450   24.0120   -0.4400 C.3   246  ARG246      0.1563
    122  C         38.6770   24.4250    0.2080 C.2   246  ARG246      0.2260
    123  O         39.7530   23.8720   -0.1290 O.2   246  ARG246     -0.2867
    124  CB        37.1190   24.7380   -1.7830 C.3   246  ARG246      0.0307
    125  CG        36.0950   24.0240   -2.6980 C.3   246  ARG246      0.0489
    126  CD        35.7740   24.8360   -3.9460 C.3   246  ARG246      0.2205
    127  NE        35.0760   26.0780   -3.6350 N.pl3 246  ARG246     -0.0865
    128  CZ        34.5570   26.8930   -4.5550 C.cat 246  ARG246      0.5346
    129  NH1       34.6440   26.5840   -5.8520 N.pl3 246  ARG246      0.1354
    130  NH2       33.9400   28.0080   -4.1810 N.pl3 246  ARG246      0.1354
@<TRIPOS>BOND
     1    45    44    1
     2    42    44   ar
     3    42    40   ar
     4    44    43   ar
     5    40    39   ar
     6    43    41   ar
     7    39    41   ar
     8    39    38    1
     9    38    35    1
    10    34    35    1
    11    35    36    1
    12    54    55    2
    13    54    53    1
    14     8     7    2
    15    52    53    1
    16    36    46   am
    17    36    37    2
    18    46    47    1
    19    25    24    2
    20    53    56    1
    21    24    23    1
    22    48    47    1
    23    48    49    2
    24     7     6    1
    25    47    50    1
    26     9     6    1
    27     9    10    1
    28    56    57    1
    29     6     5    1
    30    10    11    1
    31    23    22    1
    32    23    26    1
    33    11    12    1
    34    12    13    1
    35    33    32    1
    36    30    32   ar
    37    30    28   ar
    38    22    16   am
    39    75    76    1
    40    32    31   ar
    41    28    27   ar
    42    88    89    1
    43    88    87    1
    44    14    15    1
    45    50    51    1
    46    89    90    1
    47    31    29   ar
    48    27    29   ar
    49    27    26    1
    50    81    79    1
    51    57    58    2
    52    57    59   am
    53    16    15    1
    54    16    17    2
    55    15    18    1
    56    87    86    1
    57    86    83    1
    58    76    79    1
    59    76    77    1
    60    79    80    1
    61    83    82    1
    62    83    84    1
    63    20    19    2
    64     4     3    2
    65    60    66    1
    66    60    61    1
    67    18    19    1
    68    66    65    1
    69    77    78    2
    70    19    21   am
    71    84    91   am
    72    84    85    2
    73     3     2    1
    74    91    92    1
    75    61    64    1
    76    61    62    1
    77    65    64    1
    78    96    95    1
    79     2     1    1
    80    94    93    2
    81    92    95    1
    82    92    93    1
    83    95    97    1
    84    62    63    2
    85    93    98   am
    86    74    72   am
    87    98    99    1
    88    73    72    2
    89    72    71    1
    90    99   100    1
    91   129   128    1
    92    67    68    1
    93   107   106    1
    94   102   100   am
    95   102   103    1
    96   100   101    2
    97    71    68    1
    98   105   104    2
    99   128   130    1
   100   128   127    2
   101    68    69    1
   102   106   103    1
   103   103   104    1
   104   126   127    1
   105   126   125    1
   106   104   108   am
   107    69    70    2
   108   108   109    1
   109   125   124    1
   110   109   110    1
   111   124   121    1
   112   110   112   am
   113   110   111    2
   114   112   113    1
   115   118   117   ar
   116   121   122    1
   117   121   120    1
   118   119   117   ar
   119   123   122    2
   120   117   116    1
   121   113   116    1
   122   113   114    1
   123   115   114    2
