@<TRIPOS>MOLECULE
tmp/3huoA01.pdb
 97 94 0 0 0
SMALL
GASTEIGER

@<TRIPOS>ATOM
      1  N         21.8720   -9.2140   17.1560 N.3    26  THR26      -0.1203
      2  CA        22.4490   -8.9920   18.4870 C.3    26  THR26       0.1994
      3  C         23.9760   -9.1340   18.5390 C.2    26  THR26       0.2617
      4  O         24.5600   -8.9280   19.5770 O.2    26  THR26      -0.2717
      5  CB        21.7840   -9.8600   19.6050 C.3    26  THR26       0.1784
      6  OG1       22.2010  -11.2220   19.4780 O.3    26  THR26      -0.2211
      7  CG2       20.2360   -9.7760   19.5150 C.3    26  THR26       0.0376
      8  N         24.6010   -9.4580   17.4080 N.am   27  ALA27      -0.1979
      9  CA        26.0890   -9.5260   17.3530 C.3    27  ALA27       0.1597
     10  C         26.6580   -8.1170   17.5210 C.2    27  ALA27       0.2287
     11  O         27.7670   -7.9400   18.0590 O.2    27  ALA27      -0.2864
     12  CB        26.5580  -10.1330   16.0200 C.3    27  ALA27       0.0319
     13  N         24.0240   -5.1970   17.5580 N.3    29  ASN29      -0.1240
     14  CA        22.8550   -4.3430   17.8080 C.3    29  ASN29       0.1653
     15  C         22.3700   -3.5720   16.5730 C.2    29  ASN29       0.2266
     16  O         21.5330   -2.6500   16.6990 O.2    29  ASN29      -0.2867
     17  CB        23.1230   -3.3340   18.9420 C.3    29  ASN29       0.1155
     18  CG        23.5540   -3.9960   20.2370 C.2    29  ASN29       0.2627
     19  OD1       23.0930   -5.0730   20.5870 O.2    29  ASN29      -0.2716
     20  ND2       24.4260   -3.3150   20.9780 N.am   29  ASN29      -0.0877
     21  N         12.0120   -4.8520   18.7540 N.3   162  GLN162     -0.1245
     22  CA        12.6310   -4.3960   19.9980 C.3   162  GLN162      0.1566
     23  C         12.0080   -5.1200   21.1840 C.2   162  GLN162      0.2260
     24  O         12.7130   -5.6320   22.0650 O.2   162  GLN162     -0.2867
     25  CB        12.4600   -2.8980   20.1650 C.3   162  GLN162      0.0367
     26  CG        13.0870   -2.3660   21.4350 C.3   162  GLN162      0.0905
     27  CD        14.5810   -2.5840   21.4800 C.2   162  GLN162      0.2608
     28  OE1       15.2510   -2.5770   20.4500 O.2   162  GLN162     -0.2717
     29  NE2       15.1160   -2.7700   22.6820 N.am  162  GLN162     -0.0878
     30  N         12.9360   -8.8130   21.3290 N.3   165  ARG165     -0.1231
     31  CA        14.3060   -8.9410   21.8220 C.3   165  ARG165      0.1694
     32  C         14.3430   -8.8290   23.3500 C.2   165  ARG165      0.2591
     33  O         14.9570   -9.6510   24.0240 O.2   165  ARG165     -0.2718
     34  CB        15.2350   -7.8930   21.1760 C.3   165  ARG165      0.0321
     35  CG        16.7030   -8.0480   21.6000 C.3   165  ARG165      0.0489
     36  CD        17.5480   -6.8860   21.2130 C.3   165  ARG165      0.2205
     37  NE        18.9420   -7.1480   21.5590 N.pl3 165  ARG165     -0.0865
     38  CZ        19.9530   -6.3520   21.2520 C.cat 165  ARG165      0.5346
     39  NH1       19.7310   -5.2130   20.6190 N.pl3 165  ARG165      0.1354
     40  NH2       21.1980   -6.6930   21.6110 N.pl3 165  ARG165      0.1354
     41  N         13.6830   -7.8170   23.8980 N.am  166  GLN166     -0.1979
     42  CA        13.6790   -7.6500   25.3410 C.3   166  GLN166      0.1601
     43  C         13.0250   -8.8500   26.0630 C.2   166  GLN166      0.2287
     44  O         13.5060   -9.2870   27.1310 O.2   166  GLN166     -0.2864
     45  CB        12.9910   -6.3560   25.7270 C.3   166  GLN166      0.0394
     46  CG        13.8270   -5.1260   25.4420 C.3   166  GLN166      0.0908
     47  CD        13.0250   -3.8740   25.4420 C.2   166  GLN166      0.2608
     48  OE1       13.5240   -2.8070   25.0840 O.2   166  GLN166     -0.2717
     49  NE2       11.7590   -3.9780   25.8450 N.am  166  GLN166     -0.0878
     50  N         15.5030  -12.2950   24.9530 N.3   169  LEU169     -0.1231
     51  CA        16.9700  -12.2450   25.1670 C.3   169  LEU169      0.1693
     52  C         17.3740  -11.2880   26.2530 C.2   169  LEU169      0.2593
     53  O         18.5180  -11.3230   26.7190 O.2   169  LEU169     -0.2718
     54  CB        17.6900  -11.8890   23.8550 C.3   169  LEU169      0.0284
     55  CG        17.3920  -12.8110   22.6570 C.3   169  LEU169      0.0019
     56  CD1       17.9450  -12.2240   21.3720 C.3   169  LEU169      0.0001
     57  CD2       17.9480  -14.2300   22.8980 C.3   169  LEU169      0.0001
     58  N         16.4580  -10.3960   26.6290 N.am  170  GLY170     -0.1942
     59  CA        16.7310   -9.3830   27.6350 C.3   170  GLY170      0.2014
     60  C         16.1370   -9.6650   28.9960 C.2   170  GLY170      0.2638
     61  O         15.9760  -10.8440   29.4040 O.2   170  GLY170     -0.2714
     62  N         15.8360   -8.5880   29.7130 N.am  171  HIS171     -0.1973
     63  CA        15.3480   -8.6820   31.0800 C.3   171  HIS171      0.1656
     64  C         13.9550   -8.1240   31.3240 C.2   171  HIS171      0.2291
     65  O         13.6400   -7.7360   32.4360 O.2   171  HIS171     -0.2864
     66  CB        16.3460   -8.0190   32.0450 C.3   171  HIS171      0.0771
     67  CG        17.6550   -8.7390   32.1440 C.ar  171  HIS171      0.0820
     68  ND1       18.4770   -8.9420   31.0550 N.ar  171  HIS171     -0.2267
     69  CD2       18.2830   -9.3070   33.2000 C.ar  171  HIS171      0.1154
     70  CE1       19.5540   -9.6070   31.4380 C.ar  171  HIS171      0.1986
     71  NE2       19.4620   -9.8380   32.7340 N.ar  171  HIS171     -0.2212
     72  N         18.7100  -18.3860   16.2100 N.3   224  TRP224     -0.1241
     73  CA        20.0840  -18.6860   16.6010 C.3   224  TRP224      0.1605
     74  C         20.8180  -19.2560   15.3930 C.2   224  TRP224      0.2264
     75  O         20.7530  -20.4590   15.1240 O.2   224  TRP224     -0.2867
     76  CB        20.0960  -19.6900   17.7570 C.3   224  TRP224      0.0550
     77  CG        19.6150  -19.0990   19.0410 C.ar  224  TRP224      0.0003
     78  CD1       20.3740  -18.4870   19.9970 C.ar  224  TRP224      0.0946
     79  CD2       18.2630  -19.0360   19.5010 C.ar  224  TRP224      0.0152
     80  NE1       19.5810  -18.0540   21.0220 N.ar  224  TRP224     -0.2442
     81  CE2       18.2770  -18.3770   20.7460 C.ar  224  TRP224      0.0810
     82  CE3       17.0430  -19.4780   18.9860 C.ar  224  TRP224      0.0012
     83  CZ2       17.1070  -18.1500   21.4930 C.ar  224  TRP224      0.0191
     84  CZ3       15.8860  -19.2450   19.7180 C.ar  224  TRP224      0.0001
     85  CH2       15.9320  -18.5870   20.9600 C.ar  224  TRP224      0.0015
     86  N         25.6170  -14.8140   16.9580 N.3   229  ALA229     -0.1231
     87  CA        24.7650  -14.3430   18.0490 C.3   229  ALA229      0.1679
     88  C         23.3520  -14.3310   17.4920 C.2   229  ALA229      0.2434
     89  O         23.1650  -14.2230   16.2820 O.2   229  ALA229     -0.2733
     90  CB        25.1670  -12.9420   18.4850 C.3   229  ALA229      0.0304
     91  N         22.3540  -14.4370   18.3670 N.am  230  PRO230     -0.2729
     92  CA        20.9800  -14.5030   17.8720 C.3   230  PRO230      0.1401
     93  C         20.4810  -13.2620   17.1280 C.2   230  PRO230      0.2269
     94  O         21.0310  -12.1380   17.2720 O.2   230  PRO230     -0.2865
     95  CB        20.1430  -14.7340   19.1360 C.3   230  PRO230      0.0296
     96  CG        21.0320  -14.4480   20.2800 C.3   230  PRO230      0.0237
     97  CD        22.4430  -14.5710   19.8320 C.3   230  PRO230      0.0939
@<TRIPOS>BOND
     1    75    74    2
     2    74    73    1
     3    12     9    1
     4    72    73    1
     5    89    88    2
     6    15    16    2
     7    15    14    1
     8    73    76    1
     9    86    87    1
    10    93    94    2
    11    93    92    1
    12     1     2    1
    13     9     8    1
    14     9    10    1
    15     8     3   am
    16    88    87    1
    17    88    91   am
    18    10    11    2
    19    13    14    1
    20    76    77    1
    21    14    17    1
    22    92    91    1
    23    92    95    1
    24    87    90    1
    25    91    97    1
    26     2     3    1
    27     2     5    1
    28     3     4    2
    29    21    22    1
    30    17    18    1
    31    82    79   ar
    32    82    84   ar
    33    77    79   ar
    34    77    78   ar
    35    95    96    1
    36     6     5    1
    37    79    81   ar
    38     7     5    1
    39    84    85   ar
    40    97    96    1
    41    78    80   ar
    42    22    25    1
    43    22    23    1
    44    25    26    1
    45    18    19    2
    46    18    20   am
    47    28    27    2
    48    39    38    1
    49    81    80   ar
    50    81    83   ar
    51    85    83   ar
    52    34    35    1
    53    34    31    1
    54    23    24    2
    55    36    37    1
    56    36    35    1
    57    38    37    2
    58    38    40    1
    59    30    31    1
    60    56    55    1
    61    26    27    1
    62    27    29   am
    63    31    32    1
    64    55    57    1
    65    55    54    1
    66    32    41   am
    67    32    33    2
    68    54    51    1
    69    41    42    1
    70    50    51    1
    71    48    47    2
    72    51    52    1
    73    42    45    1
    74    42    43    1
    75    47    46    1
    76    47    49   am
    77    46    45    1
    78    43    44    2
    79    52    58   am
    80    52    53    2
    81    58    59    1
    82    59    60    1
    83    60    61    2
    84    60    62   am
    85    62    63    1
    86    68    70   ar
    87    68    67   ar
    88    63    64    1
    89    63    66    1
    90    64    65    2
    91    70    71   ar
    92    66    67    1
    93    67    69   ar
    94    71    69   ar
