@<TRIPOS>MOLECULE
tmp/3huqA00.pdb
 117 108 0 0 0
SMALL
GASTEIGER

@<TRIPOS>ATOM
      1  N         35.9510  -27.7770   -4.0450 N.3    78  ILE78      -0.1245
      2  CA        36.3350  -28.3910   -5.3160 C.3    78  ILE78       0.1561
      3  C         36.5530  -29.8940   -5.1350 C.2    78  ILE78       0.2260
      4  O         36.0140  -30.7000   -5.8970 O.2    78  ILE78      -0.2867
      5  CB        37.5930  -27.7230   -5.9100 C.3    78  ILE78       0.0252
      6  CG1       37.2540  -26.3230   -6.4290 C.3    78  ILE78       0.0019
      7  CG2       38.1910  -28.5760   -7.0350 C.3    78  ILE78       0.0019
      8  CD1       38.4740  -25.4560   -6.7120 C.3    78  ILE78       0.0001
      9  N         34.0340  -31.3720  -10.3670 N.3    84  LEU84      -0.1245
     10  CA        35.2210  -30.5320  -10.3720 C.3    84  LEU84       0.1561
     11  C         36.4930  -31.2670   -9.9730 C.2    84  LEU84       0.2260
     12  O         37.5570  -30.9860  -10.5180 O.2    84  LEU84      -0.2867
     13  CB        35.0280  -29.3050   -9.4760 C.3    84  LEU84       0.0270
     14  CG        33.8860  -28.3450   -9.8160 C.3    84  LEU84       0.0019
     15  CD1       33.8630  -27.2330   -8.7860 C.3    84  LEU84       0.0001
     16  CD2       34.0130  -27.7830  -11.2250 C.3    84  LEU84       0.0001
     17  N         38.7820  -32.8200  -12.7390 N.3    87  VAL87      -0.1231
     18  CA        39.3800  -31.7840  -13.5670 C.3    87  VAL87       0.1692
     19  C         40.5050  -31.0940  -12.7900 C.2    87  VAL87       0.2592
     20  O         41.6210  -30.9420  -13.2760 O.2    87  VAL87      -0.2718
     21  CB        38.3240  -30.7580  -14.0490 C.3    87  VAL87       0.0266
     22  CG1       38.9590  -29.7540  -15.0080 C.3    87  VAL87       0.0020
     23  CG2       37.1660  -31.4890  -14.7340 C.3    87  VAL87       0.0020
     24  N         40.2170  -30.7110  -11.5510 N.am   88  TYR88      -0.1976
     25  CA        41.2110  -30.0840  -10.7000 C.3    88  TYR88       0.1639
     26  C         42.4460  -30.9660  -10.5540 C.2    88  TYR88       0.2290
     27  O         43.5700  -30.5030  -10.7300 O.2    88  TYR88      -0.2864
     28  CB        40.5870  -29.7960   -9.3340 C.3    88  TYR88       0.0560
     29  CG        41.4940  -29.0720   -8.3760 C.ar   88  TYR88      -0.0198
     30  CD1       41.6020  -27.6800   -8.4090 C.ar   88  TYR88      -0.0009
     31  CD2       42.2450  -29.7680   -7.4400 C.ar   88  TYR88      -0.0009
     32  CE1       42.4210  -27.0060   -7.5240 C.ar   88  TYR88       0.0417
     33  CE2       43.0810  -29.1050   -6.5540 C.ar   88  TYR88       0.0417
     34  CZ        43.1670  -27.7200   -6.6070 C.ar   88  TYR88       0.1957
     35  OH        43.9890  -27.0450   -5.7380 O.3    88  TYR88      -0.2866
     36  N         44.9880  -31.0230  -13.3510 N.3    91  LEU91      -0.1245
     37  CA        45.7310  -29.7980  -13.6360 C.3    91  LEU91       0.1561
     38  C         47.0620  -29.7270  -12.9120 C.2    91  LEU91       0.2260
     39  O         47.2390  -30.3210  -11.8460 O.2    91  LEU91      -0.2867
     40  CB        44.8950  -28.5670  -13.2600 C.3    91  LEU91       0.0270
     41  CG        43.5810  -28.3610  -14.0120 C.3    91  LEU91       0.0019
     42  CD1       42.7910  -27.2490  -13.3340 C.3    91  LEU91       0.0001
     43  CD2       43.8270  -28.0290  -15.4650 C.3    91  LEU91       0.0001
     44  N         41.6480  -22.3320  -11.2330 N.3    99  ALA99      -0.1245
     45  CA        40.4130  -23.0050  -10.8530 C.3    99  ALA99       0.1562
     46  C         39.8940  -22.5110   -9.5050 C.2    99  ALA99       0.2260
     47  O         38.6890  -22.2250   -9.3520 O.2    99  ALA99      -0.2867
     48  CB        40.6340  -24.5220  -10.8220 C.3    99  ALA99       0.0290
     49  N         38.4950  -18.9540   -9.9190 N.3   102  GLN102     -0.1231
     50  CA        37.1760  -18.9310  -10.5280 C.3   102  GLN102      0.1698
     51  C         36.0870  -19.3560   -9.5380 C.2   102  GLN102      0.2592
     52  O         35.0520  -18.7020   -9.4360 O.2   102  GLN102     -0.2718
     53  CB        37.1430  -19.7810  -11.7950 C.3   102  GLN102      0.0381
     54  CG        35.9050  -19.5420  -12.6320 C.3   102  GLN102      0.0905
     55  CD        35.9070  -20.3270  -13.9220 C.2   102  GLN102      0.2608
     56  OE1       36.9090  -20.9290  -14.3020 O.2   102  GLN102     -0.2717
     57  NE2       34.7730  -20.3260  -14.6090 N.am  102  GLN102     -0.0878
     58  N         36.3310  -20.4250   -8.7880 N.am  103  VAL103     -0.1980
     59  CA        35.3590  -20.9070   -7.8020 C.3   103  VAL103      0.1595
     60  C         35.1740  -19.8840   -6.6800 C.2   103  VAL103      0.2287
     61  O         34.0560  -19.6660   -6.2050 O.2   103  VAL103     -0.2864
     62  CB        35.7860  -22.2770   -7.2340 C.3   103  VAL103      0.0276
     63  CG1       34.9980  -22.6390   -5.9790 C.3   103  VAL103      0.0022
     64  CG2       35.6230  -23.3520   -8.2940 C.3   103  VAL103      0.0022
     65  N         30.3900  -22.2230  -11.4630 N.3   111  VAL111     -0.1245
     66  CA        31.2580  -23.0590  -12.2930 C.3   111  VAL111      0.1561
     67  C         30.4850  -24.2430  -12.9050 C.2   111  VAL111      0.2260
     68  O         30.9480  -24.8600  -13.8600 O.2   111  VAL111     -0.2867
     69  CB        32.5600  -23.4820  -11.5350 C.3   111  VAL111      0.0252
     70  CG1       33.4730  -24.3410  -12.4110 C.3   111  VAL111      0.0019
     71  CG2       33.3200  -22.2420  -11.0840 C.3   111  VAL111      0.0019
     72  N         29.9370  -24.4240  -16.6090 N.3   114  PHE114     -0.1241
     73  CA        31.1620  -24.5360  -17.4000 C.3   114  PHE114      0.1605
     74  C         31.5530  -25.9620  -17.8360 C.2   114  PHE114      0.2264
     75  O         32.7310  -26.2330  -18.1040 O.2   114  PHE114     -0.2867
     76  CB        32.2990  -23.8310  -16.6630 C.3   114  PHE114      0.0534
     77  CG        32.1830  -22.3270  -16.6710 C.ar  114  PHE114     -0.0203
     78  CD1       31.2320  -21.6740  -15.8850 C.ar  114  PHE114     -0.0042
     79  CD2       33.0140  -21.5600  -17.4750 C.ar  114  PHE114     -0.0042
     80  CE1       31.1320  -20.2830  -15.9120 C.ar  114  PHE114     -0.0003
     81  CE2       32.9190  -20.1730  -17.5000 C.ar  114  PHE114     -0.0003
     82  CZ        31.9760  -19.5340  -16.7140 C.ar  114  PHE114     -0.0000
     83  N         35.3300  -27.1610  -18.7620 N.3   118  LEU118     -0.1245
     84  CA        35.9370  -28.1510  -17.8710 C.3   118  LEU118      0.1561
     85  C         36.4650  -29.3460  -18.6350 C.2   118  LEU118      0.2260
     86  O         37.5740  -29.8120  -18.3620 O.2   118  LEU118     -0.2867
     87  CB        34.9240  -28.6310  -16.8330 C.3   118  LEU118      0.0270
     88  CG        34.5100  -27.6070  -15.7900 C.3   118  LEU118      0.0019
     89  CD1       33.3110  -28.1120  -15.0080 C.3   118  LEU118      0.0001
     90  CD2       35.6680  -27.2990  -14.8670 C.3   118  LEU118      0.0001
     91  N         39.5560  -28.3090  -20.5040 N.3   121  LEU121     -0.1245
     92  CA        40.6580  -28.2160  -19.5530 C.3   121  LEU121      0.1561
     93  C         41.1830  -29.6030  -19.1920 C.2   121  LEU121      0.2260
     94  O         42.3930  -29.8210  -19.1970 O.2   121  LEU121     -0.2867
     95  CB        40.2410  -27.4520  -18.2900 C.3   121  LEU121      0.0270
     96  CG        39.9900  -25.9520  -18.4860 C.3   121  LEU121      0.0019
     97  CD1       39.3270  -25.3730  -17.2540 C.3   121  LEU121      0.0001
     98  CD2       41.2710  -25.1920  -18.7980 C.3   121  LEU121      0.0001
     99  N         35.9010  -20.4770  -22.3660 N.3   133  LEU133     -0.1245
    100  CA        35.7540  -19.8030  -21.0650 C.3   133  LEU133      0.1561
    101  C         35.2700  -18.3640  -21.2200 C.2   133  LEU133      0.2260
    102  O         34.5190  -17.8730  -20.3820 O.2   133  LEU133     -0.2867
    103  CB        37.0810  -19.8290  -20.2920 C.3   133  LEU133      0.0270
    104  CG        37.4060  -21.1490  -19.5840 C.3   133  LEU133      0.0019
    105  CD1       38.8820  -21.2210  -19.2560 C.3   133  LEU133      0.0001
    106  CD2       36.5600  -21.3470  -18.3330 C.3   133  LEU133      0.0001
    107  N         44.8210  -20.2130  -17.2000 N.3   153  PHE153     -0.1241
    108  CA        44.3850  -21.5250  -17.6880 C.3   153  PHE153      0.1605
    109  C         45.0260  -21.8610  -19.0210 C.2   153  PHE153      0.2264
    110  O         45.3160  -23.0290  -19.2930 O.2   153  PHE153     -0.2867
    111  CB        42.8720  -21.5630  -17.8980 C.3   153  PHE153      0.0534
    112  CG        42.0650  -21.8660  -16.6700 C.ar  153  PHE153     -0.0203
    113  CD1       41.0230  -21.0220  -16.3010 C.ar  153  PHE153     -0.0042
    114  CD2       42.2980  -23.0170  -15.9210 C.ar  153  PHE153     -0.0042
    115  CE1       40.2280  -21.3070  -15.1960 C.ar  153  PHE153     -0.0003
    116  CE2       41.5130  -23.3130  -14.8150 C.ar  153  PHE153     -0.0003
    117  CZ        40.4830  -22.4580  -14.4470 C.ar  153  PHE153     -0.0000
@<TRIPOS>BOND
     1    99   100    1
     2   101   100    1
     3   101   102    2
     4   100   103    1
     5    91    92    1
     6   103   104    1
     7   104   105    1
     8   104   106    1
     9    92    93    1
    10    92    95    1
    11   110   109    2
    12    94    93    2
    13   109   108    1
    14    98    96    1
    15    83    84    1
    16    85    86    2
    17    85    84    1
    18    96    95    1
    19    96    97    1
    20    75    74    2
    21   111   108    1
    22   111   112    1
    23    84    87    1
    24    74    73    1
    25   108   107    1
    26    81    79   ar
    27    81    82   ar
    28    79    77   ar
    29    73    76    1
    30    73    72    1
    31    87    88    1
    32    82    80   ar
    33    77    76    1
    34    77    78   ar
    35   112   113   ar
    36   112   114   ar
    37   113   115   ar
    38   114   116   ar
    39    80    78   ar
    40    88    89    1
    41    88    90    1
    42    43    41    1
    43   115   117   ar
    44    22    21    1
    45   116   117   ar
    46    23    21    1
    47    57    55   am
    48    56    55    2
    49    21    18    1
    50    41    42    1
    51    41    40    1
    52    55    54    1
    53    68    67    2
    54    37    36    1
    55    37    40    1
    56    37    38    1
    57    18    19    1
    58    18    17    1
    59    20    19    2
    60    38    39    2
    61    67    66    1
    62    19    24   am
    63    54    53    1
    64    70    69    1
    65    66    69    1
    66    66    65    1
    67    53    50    1
    68    24    25    1
    69    69    71    1
    70    44    45    1
    71    16    14    1
    72    45    48    1
    73    45    46    1
    74    27    26    2
    75    25    26    1
    76    25    28    1
    77    50    49    1
    78    50    51    1
    79    12    11    2
    80    10     9    1
    81    10    11    1
    82    10    13    1
    83    14    13    1
    84    14    15    1
    85    51    52    2
    86    51    58   am
    87    46    47    2
    88    28    29    1
    89    58    59    1
    90    30    29   ar
    91    30    32   ar
    92    29    31   ar
    93    64    62    1
    94    59    62    1
    95    59    60    1
    96    32    34   ar
    97    31    33   ar
    98    62    63    1
    99     7     5    1
   100     8     6    1
   101    60    61    2
   102    34    33   ar
   103    34    35    1
   104     6     5    1
   105     5     2    1
   106     4     3    2
   107     2     3    1
   108     2     1    1
