@<TRIPOS>MOLECULE
tmp/3hv0A00.pdb
 147 143 0 0 0
SMALL
GASTEIGER

@<TRIPOS>ATOM
      1  N         17.1860    2.8140    1.8230 N.3    59  TYR59      -0.1227
      2  CA        17.4080    3.3530    3.1630 C.3    59  TYR59       0.1736
      3  C         18.6570    2.7040    3.7530 C.2    59  TYR59       0.2596
      4  O         18.7640    1.4790    3.8580 O.2    59  TYR59      -0.2718
      5  CB        16.1940    3.1160    4.0570 C.3    59  TYR59       0.0548
      6  CG        16.4160    3.1610    5.5680 C.ar   59  TYR59      -0.0200
      7  CD1       17.1780    4.1490    6.1650 C.ar   59  TYR59      -0.0009
      8  CD2       15.7970    2.2400    6.3930 C.ar   59  TYR59      -0.0009
      9  CE1       17.3400    4.1930    7.5340 C.ar   59  TYR59       0.0417
     10  CE2       15.9560    2.2740    7.7660 C.ar   59  TYR59       0.0417
     11  CZ        16.7290    3.2550    8.3370 C.ar   59  TYR59       0.1957
     12  OH        16.8940    3.2640    9.7250 O.3    59  TYR59      -0.2866
     13  N         19.6210    3.5430    4.0960 N.am   60  THR60      -0.1939
     14  CA        20.7980    3.0860    4.7970 C.3    60  THR60       0.2028
     15  C         21.1210    4.0740    5.9080 C.2    60  THR60       0.2643
     16  O         20.4730    5.0820    6.0100 O.2    60  THR60      -0.2714
     17  CB        21.9500    2.8750    3.8460 C.3    60  THR60       0.1808
     18  OG1       22.8150    1.8930    4.4090 O.3    60  THR60      -0.2208
     19  CG2       22.7250    4.1390    3.6180 C.3    60  THR60       0.0379
     20  N         22.0940    3.7630    6.7450 N.am   61  GLY61      -0.1939
     21  CA        22.3940    4.6280    7.9080 C.3    61  GLY61       0.2014
     22  C         23.8010    4.5440    8.4360 C.2    61  GLY61       0.2639
     23  O         24.6140    3.7900    7.9220 O.2    61  GLY61      -0.2714
     24  N         24.0690    5.3550    9.4680 N.am   62  ARG62      -0.1963
     25  CA        25.3850    5.5130   10.0540 C.3    62  ARG62       0.1729
     26  C         25.2570    5.9920   11.5300 C.2    62  ARG62       0.2616
     27  O         24.4840    6.8710   11.8460 O.2    62  ARG62      -0.2715
     28  CB        26.1800    6.4730    9.1710 C.3    62  ARG62       0.0348
     29  CG        27.2970    7.2520    9.8320 C.3    62  ARG62       0.0492
     30  CD        28.4520    6.3780   10.3220 C.3    62  ARG62       0.2205
     31  NE        29.4680    7.1690   11.0050 N.pl3  62  ARG62      -0.0865
     32  CZ        30.4940    6.6660   11.6740 C.cat  62  ARG62       0.5346
     33  NH1       30.6610    5.3600   11.7610 N.pl3  62  ARG62       0.1354
     34  NH2       31.3570    7.4800   12.2710 N.pl3  62  ARG62       0.1354
     35  N         26.0120    5.3830   12.4320 N.am   63  GLY63      -0.1955
     36  CA        26.0370    5.8100   13.8280 C.3    63  GLY63       0.1869
     37  C         27.2710    6.6400   14.1200 C.2    63  GLY63       0.2309
     38  O         28.3630    6.0970   14.1320 O.2    63  GLY63      -0.2863
     39  N         33.2760    1.4900    6.8090 N.3    73  HIS73      -0.1241
     40  CA        31.9540    2.1130    6.7420 C.3    73  HIS73       0.1621
     41  C         31.5950    2.6300    5.3810 C.2    73  HIS73       0.2264
     42  O         30.4530    2.9480    5.1550 O.2    73  HIS73      -0.2867
     43  CB        31.8470    3.2610    7.7410 C.3    73  HIS73       0.0745
     44  CG        31.7680    2.8120    9.1650 C.ar   73  HIS73       0.0817
     45  ND1       32.6600    3.2270   10.1340 N.ar   73  HIS73      -0.2268
     46  CD2       30.9000    1.9770    9.7820 C.ar   73  HIS73       0.1154
     47  CE1       32.3380    2.6670   11.2900 C.ar   73  HIS73       0.1986
     48  NE2       31.2800    1.8980   11.1010 N.ar   73  HIS73      -0.2212
     49  N         29.0290   -0.1230    2.7700 N.3    76  PRO76      -0.2116
     50  CA        27.6180    0.0020    2.4070 C.3    76  PRO76       0.1372
     51  C         27.2750    1.2750    1.6250 C.2    76  PRO76       0.2244
     52  O         26.4090    1.2350    0.7670 O.2    76  PRO76      -0.2868
     53  CB        26.9070   -0.0060    3.7650 C.3    76  PRO76       0.0268
     54  CG        27.8620   -0.6080    4.6960 C.3    76  PRO76       0.0207
     55  CD        29.2060   -0.1500    4.2270 C.3    76  PRO76       0.0892
     56  N         19.9850    7.8890    7.5670 N.3    94  GLN94      -0.1245
     57  CA        19.7520    8.2620    8.9630 C.3    94  GLN94       0.1566
     58  C         21.0480    8.3430    9.7850 C.2    94  GLN94       0.2260
     59  O         21.7850    7.3540    9.9140 O.2    94  GLN94      -0.2867
     60  CB        18.8090    7.2460    9.6230 C.3    94  GLN94       0.0367
     61  CG        18.5720    7.4840   11.1150 C.3    94  GLN94       0.0905
     62  CD        17.7040    6.3990   11.7720 C.2    94  GLN94       0.2608
     63  OE1       18.0030    5.2160   11.6690 O.2    94  GLN94      -0.2717
     64  NE2       16.6320    6.8080   12.4420 N.am   94  GLN94      -0.0878
     65  N         22.3360    8.4190   13.3190 N.3    96  THR96      -0.1218
     66  CA        21.7310    8.0730   14.5900 C.3    96  THR96       0.1862
     67  C         22.4270    8.7170   15.7800 C.2    96  THR96       0.2287
     68  O         22.9380    8.0150   16.6580 O.2    96  THR96      -0.2866
     69  CB        21.6490    6.5250   14.7890 C.3    96  THR96       0.1770
     70  OG1       22.9510    5.9490   14.9780 O.3    96  THR96      -0.2211
     71  CG2       21.0180    5.8980   13.6030 C.3    96  THR96       0.0375
     72  N         21.1760    7.2000   19.1050 N.3    99  GLU99      -0.1231
     73  CA        21.6140    5.8320   19.4380 C.3    99  GLU99       0.1699
     74  C         22.9310    5.7950   20.2090 C.2    99  GLU99       0.2592
     75  O         23.0620    5.0940   21.1940 O.2    99  GLU99      -0.2718
     76  CB        21.7420    4.9940   18.1400 C.3    99  GLU99       0.0402
     77  CG        22.3950    3.6060   18.2960 C.3    99  GLU99       0.1161
     78  CD        22.6730    2.8950   16.9490 C.2    99  GLU99       0.3649
     79  OE1       22.6130    3.5600   15.8640 O.co2  99  GLU99      -0.2457
     80  OE2       22.9710    1.6620   16.9820 O.co2  99  GLU99      -0.2457
     81  N         23.9110    6.5450   19.7280 N.am  100  LYS100     -0.1980
     82  CA        25.3110    6.4160   20.1660 C.3   100  LYS100      0.1596
     83  C         25.5180    7.1630   21.4470 C.2   100  LYS100      0.2287
     84  O         26.2990    6.7470   22.2970 O.2   100  LYS100     -0.2864
     85  CB        26.2680    6.9150   19.0740 C.3   100  LYS100      0.0298
     86  CG        26.1610    6.1140   17.7550 C.3   100  LYS100      0.0038
     87  CD        26.4710    4.6320   18.0460 C.3   100  LYS100      0.0206
     88  CE        26.5300    3.7730   16.7970 C.3   100  LYS100      0.1093
     89  NZ        27.0850    2.4120   17.1200 N.3   100  LYS100     -0.1314
     90  N         15.1740    3.2180   14.4870 N.3   182  GLN182     -0.1245
     91  CA        15.8940    2.7330   13.3120 C.3   182  GLN182      0.1566
     92  C         15.0120    2.0070   12.3340 C.2   182  GLN182      0.2260
     93  O         15.2980    1.9890   11.1500 O.2   182  GLN182     -0.2867
     94  CB        17.0020    1.7870   13.7070 C.3   182  GLN182      0.0367
     95  CG        17.8180    1.3360   12.5240 C.3   182  GLN182      0.0905
     96  CD        19.2300    1.0450   12.8410 C.2   182  GLN182      0.2608
     97  OE1       19.8330    0.2080   12.2040 O.2   182  GLN182     -0.2717
     98  NE2       19.7750    1.7150   13.8250 N.am  182  GLN182     -0.0878
     99  N         16.8540   -1.9320    1.9140 N.3   205  VAL205     -0.1231
    100  CA        17.7690   -1.5230    2.9830 C.3   205  VAL205      0.1678
    101  C         19.0840   -2.2820    2.8950 C.2   205  VAL205      0.2434
    102  O         19.1590   -3.4570    3.2950 O.2   205  VAL205     -0.2733
    103  CB        17.1340   -1.8040    4.3230 C.3   205  VAL205      0.0265
    104  CG1       18.0430   -1.2690    5.5080 C.3   205  VAL205      0.0020
    105  CG2       15.7190   -1.2290    4.3500 C.3   205  VAL205      0.0020
    106  N         20.1250   -1.6300    2.3400 N.am  206  PRO206     -0.2718
    107  CA        21.5180   -2.1040    2.4100 C.3   206  PRO206      0.1535
    108  C         22.0940   -1.9670    3.8070 C.2   206  PRO206      0.2599
    109  O         22.0050   -0.9040    4.4070 O.2   206  PRO206     -0.2715
    110  CB        22.2550   -1.1610    1.4650 C.3   206  PRO206      0.0310
    111  CG        21.2340   -0.7280    0.4880 C.3   206  PRO206      0.0237
    112  CD        19.9640   -0.6070    1.2920 C.3   206  PRO206      0.0939
    113  N         22.6870   -3.0250    4.3300 N.am  207  HIS207     -0.1960
    114  CA        23.3090   -2.9200    5.6590 C.3   207  HIS207      0.1787
    115  C         24.3610   -3.9940    5.9350 C.2   207  HIS207      0.2620
    116  O         24.3620   -5.0630    5.3300 O.2   207  HIS207     -0.2715
    117  CB        22.2300   -2.8930    6.7620 C.3   207  HIS207      0.0785
    118  CG        21.3650   -4.1170    6.8190 C.ar  207  HIS207      0.0821
    119  ND1       21.7360   -5.2610    7.4950 N.ar  207  HIS207     -0.2267
    120  CD2       20.1100   -4.3470    6.3570 C.ar  207  HIS207      0.1154
    121  CE1       20.7660   -6.1580    7.4060 C.ar  207  HIS207      0.1986
    122  NE2       19.7660   -5.6270    6.7280 N.ar  207  HIS207     -0.2212
    123  N         25.2810   -3.6970    6.8370 N.am  208  ALA208     -0.1977
    124  CA        26.1770   -4.7250    7.3500 C.3   208  ALA208      0.1597
    125  C         25.2950   -5.7760    8.0040 C.2   208  ALA208      0.2287
    126  O         24.2430   -5.4510    8.5600 O.2   208  ALA208     -0.2864
    127  CB        27.1510   -4.1390    8.3500 C.3   208  ALA208      0.0319
    128  N         23.4040   -5.4850   11.4100 N.3   211  GLN211     -0.1245
    129  CA        22.2270   -4.6350   11.6220 C.3   211  GLN211      0.1566
    130  C         20.9120   -5.3900   11.4010 C.2   211  GLN211      0.2260
    131  O         19.8440   -4.8880   11.7680 O.2   211  GLN211     -0.2867
    132  CB        22.2700   -3.4100   10.7080 C.3   211  GLN211      0.0367
    133  CG        23.4950   -2.5640   10.9150 C.3   211  GLN211      0.0905
    134  CD        23.5340   -1.9030   12.2990 C.2   211  GLN211      0.2608
    135  OE1       22.5510   -1.3220   12.7640 O.2   211  GLN211     -0.2717
    136  NE2       24.6800   -1.9620   12.9290 N.am  211  GLN211     -0.0878
    137  N         15.7440   -5.0560   11.2950 N.3   215  PHE215     -0.1241
    138  CA        14.9010   -5.2300   10.1160 C.3   215  PHE215      0.1605
    139  C         14.2430   -6.6190   10.0750 C.2   215  PHE215      0.2264
    140  O         13.3140   -6.8610    9.2970 O.2   215  PHE215     -0.2867
    141  CB        15.7150   -4.9160    8.8510 C.3   215  PHE215      0.0534
    142  CG        16.3680   -3.5570    8.8990 C.ar  215  PHE215     -0.0203
    143  CD1       15.5850   -2.4180    8.9880 C.ar  215  PHE215     -0.0042
    144  CD2       17.7570   -3.4120    8.9250 C.ar  215  PHE215     -0.0042
    145  CE1       16.1640   -1.1580    9.0740 C.ar  215  PHE215     -0.0003
    146  CE2       18.3330   -2.1760    8.9830 C.ar  215  PHE215     -0.0003
    147  CZ        17.5400   -1.0430    9.0670 C.ar  215  PHE215     -0.0000
@<TRIPOS>BOND
     1   111   112    1
     2   111   110    1
     3    52    51    2
     4   112   106    1
     5   110   107    1
     6    51    50    1
     7     1     2    1
     8    99   100    1
     9   106   107    1
    10   106   101   am
    11    50    49    1
    12    50    53    1
    13   107   108    1
    14    49    55    1
    15   101   100    1
    16   101   102    2
    17   100   103    1
    18     2     3    1
    19     2     5    1
    20    19    17    1
    21     3     4    2
    22     3    13   am
    23    53    54    1
    24   108   113   am
    25   108   109    2
    26    17    18    1
    27    17    14    1
    28     5     6    1
    29    13    14    1
    30    55    54    1
    31   103   105    1
    32   103   104    1
    33   113   114    1
    34    14    15    1
    35    42    41    2
    36   116   115    2
    37    41    40    1
    38     6     7   ar
    39     6     8   ar
    40   114   115    1
    41   114   117    1
    42    15    16    2
    43    15    20   am
    44   115   123   am
    45     7     9   ar
    46   120   122   ar
    47   120   118   ar
    48     8    10   ar
    49   122   121   ar
    50    40    39    1
    51    40    43    1
    52    20    21    1
    53   117   118    1
    54   118   119   ar
    55   123   124    1
    56   124   125    1
    57   124   127    1
    58   121   119   ar
    59     9    11   ar
    60    56    57    1
    61    43    44    1
    62    10    11   ar
    63    21    22    1
    64    23    22    2
    65   125   126    2
    66    11    12    1
    67    22    24   am
    68   141   142    1
    69   141   138    1
    70   142   144   ar
    71   142   143   ar
    72   144   146   ar
    73    57    60    1
    74    57    58    1
    75   146   147   ar
    76   143   145   ar
    77   147   145   ar
    78    44    46   ar
    79    44    45   ar
    80    28    29    1
    81    28    25    1
    82   140   139    2
    83    24    25    1
    84    60    61    1
    85    46    48   ar
    86    58    59    2
    87    29    30    1
    88    25    26    1
    89   139   138    1
    90   138   137    1
    91    45    47   ar
    92    30    31    1
    93   132   133    1
    94   132   129    1
    95   133   134    1
    96    31    32    2
    97    48    47   ar
    98    61    62    1
    99    93    92    2
   100   130   129    1
   101   130   131    2
   102   128   129    1
   103    26    27    2
   104    26    35   am
   105    63    62    2
   106    32    33    1
   107    32    34    1
   108    62    64   am
   109    97    96    2
   110   134   135    2
   111   134   136   am
   112    92    91    1
   113    35    36    1
   114    95    96    1
   115    95    94    1
   116    96    98   am
   117    91    94    1
   118    91    90    1
   119    65    66    1
   120    71    69    1
   121    36    37    1
   122    37    38    2
   123    66    69    1
   124    66    67    1
   125    69    70    1
   126    67    68    2
   127    79    78   ar
   128    88    89    1
   129    88    87    1
   130    78    80   ar
   131    78    77    1
   132    86    87    1
   133    86    85    1
   134    76    77    1
   135    76    73    1
   136    85    82    1
   137    72    73    1
   138    73    74    1
   139    81    82    1
   140    81    74   am
   141    82    83    1
   142    74    75    2
   143    83    84    2
