@<TRIPOS>MOLECULE
tmp/3hv3A00.pdb
 222 211 0 0 0
SMALL
GASTEIGER

@<TRIPOS>ATOM
      1  N         -9.6890   -2.3860  -28.4620 N.3    27  VAL27      -0.1231
      2  CA        -8.3020   -2.1870  -28.8810 C.3    27  VAL27       0.1692
      3  C         -7.4560   -3.4660  -28.7350 C.2    27  VAL27       0.2593
      4  O         -6.2360   -3.4200  -28.8140 O.2    27  VAL27      -0.2718
      5  CB        -7.6440   -0.9840  -28.1750 C.3    27  VAL27       0.0266
      6  CG1       -8.1390    0.3260  -28.7790 C.3    27  VAL27       0.0020
      7  CG2       -7.9390   -1.0100  -26.6980 C.3    27  VAL27       0.0020
      8  N         -8.1210   -4.6090  -28.5630 N.am   28  GLY28      -0.1942
      9  CA        -7.4400   -5.8990  -28.5900 C.3    28  GLY28       0.2014
     10  C         -7.4970   -6.6880  -27.2980 C.2    28  GLY28       0.2639
     11  O         -8.2220   -6.3260  -26.3680 O.2    28  GLY28      -0.2714
     12  N         -6.7210   -7.7720  -27.2490 N.am   29  SER29      -0.1949
     13  CA        -6.6800   -8.6610  -26.0810 C.3    29  SER29       0.1924
     14  C         -5.3780   -8.5400  -25.2670 C.2    29  SER29       0.2314
     15  O         -4.3380   -9.0970  -25.6310 O.2    29  SER29      -0.2863
     16  CB        -6.9250  -10.1170  -26.5030 C.3    29  SER29       0.2116
     17  OG        -8.2060  -10.2600  -27.0980 O.3    29  SER29      -0.2180
     18  N         -9.7590   -5.2400  -23.9560 N.3    32  VAL32      -0.1245
     19  CA        -9.6870   -3.8110  -23.6680 C.3    32  VAL32       0.1561
     20  C        -10.4990   -2.9870  -24.6860 C.2    32  VAL32       0.2260
     21  O        -10.3790   -3.2050  -25.9130 O.2    32  VAL32      -0.2867
     22  CB        -8.2070   -3.3290  -23.6890 C.3    32  VAL32       0.0252
     23  CG1       -8.0610   -1.8360  -23.3300 C.3    32  VAL32       0.0019
     24  CG2       -7.3580   -4.1730  -22.7860 C.3    32  VAL32       0.0019
     25  N         -8.6690    3.4770  -21.0710 N.3    45  ALA45      -0.1245
     26  CA        -8.7350    2.0880  -21.4550 C.3    45  ALA45       0.1562
     27  C         -9.5310    1.3420  -20.3740 C.2    45  ALA45       0.2260
     28  O         -9.2560    1.5000  -19.1760 O.2    45  ALA45      -0.2867
     29  CB        -7.3210    1.4950  -21.6080 C.3    45  ALA45       0.0290
     30  N        -10.2120   -2.3250  -19.1860 N.3    47  LYS47      -0.1245
     31  CA        -9.7940   -3.7040  -19.3140 C.3    47  LYS47       0.1561
     32  C        -10.7590   -4.6300  -18.5850 C.2    47  LYS47       0.2260
     33  O        -10.9060   -4.5440  -17.3410 O.2    47  LYS47      -0.2867
     34  CB        -8.3960   -3.8800  -18.7490 C.3    47  LYS47       0.0271
     35  CG        -7.7830   -5.2820  -18.9980 C.3    47  LYS47       0.0035
     36  CD        -6.4640   -5.3980  -18.2630 C.3    47  LYS47       0.0206
     37  CE        -5.9180   -6.8140  -18.2330 C.3    47  LYS47       0.1093
     38  NZ        -5.0030   -6.9550  -17.0380 N.3    47  LYS47      -0.1314
     39  N         -4.2540  -13.9540   -9.0430 N.3    61  ARG61      -0.1245
     40  CA        -3.7260  -12.9780  -10.0100 C.3    61  ARG61       0.1563
     41  C         -4.6020  -11.7270  -10.1300 C.2    61  ARG61       0.2260
     42  O         -4.0700  -10.6000  -10.2240 O.2    61  ARG61      -0.2867
     43  CB        -3.5210  -13.6110  -11.3960 C.3    61  ARG61       0.0307
     44  CG        -3.1410  -12.5930  -12.5100 C.3    61  ARG61       0.0489
     45  CD        -2.7230  -13.2440  -13.8050 C.3    61  ARG61       0.2205
     46  NE        -1.7080  -14.2500  -13.5200 N.pl3  61  ARG61      -0.0865
     47  CZ        -1.8320  -15.5510  -13.7600 C.cat  61  ARG61       0.5346
     48  NH1       -2.9220  -16.0350  -14.3570 N.pl3  61  ARG61       0.1354
     49  NH2       -0.8340  -16.3730  -13.4220 N.pl3  61  ARG61       0.1354
     50  N         -4.1240   -9.8620   -6.8900 N.3    64  ARG64      -0.1231
     51  CA        -2.8060   -9.2460   -6.8580 C.3    64  ARG64       0.1694
     52  C         -2.7390   -8.0090   -7.7210 C.2    64  ARG64       0.2591
     53  O         -2.1750   -6.9850   -7.3150 O.2    64  ARG64      -0.2718
     54  CB        -1.6850  -10.2120   -7.2640 C.3    64  ARG64       0.0321
     55  CG        -0.2990   -9.5670   -7.1950 C.3    64  ARG64       0.0489
     56  CD         0.8450  -10.5570   -7.5660 C.3    64  ARG64       0.2205
     57  NE         2.1250   -9.8700   -7.4170 N.pl3  64  ARG64      -0.0865
     58  CZ         2.8480   -9.3670   -8.4210 C.cat  64  ARG64       0.5346
     59  NH1        2.4410   -9.5020   -9.6890 N.pl3  64  ARG64       0.1354
     60  NH2        4.0100   -8.7440   -8.1510 N.pl3  64  ARG64       0.1354
     61  N         -3.3040   -8.1070   -8.9260 N.am   65  GLU65      -0.1979
     62  CA        -3.2580   -6.9750   -9.8500 C.3    65  GLU65       0.1602
     63  C         -4.0830   -5.8170   -9.2650 C.2    65  GLU65       0.2287
     64  O         -3.6280   -4.6780   -9.2980 O.2    65  GLU65      -0.2864
     65  CB        -3.7750   -7.3470  -11.2440 C.3    65  GLU65       0.0415
     66  CG        -3.5920   -6.1720  -12.2170 C.3    65  GLU65       0.1163
     67  CD        -3.8880   -6.4880  -13.6360 C.2    65  GLU65       0.3649
     68  OE1       -3.4070   -5.7260  -14.5060 O.co2  65  GLU65      -0.2457
     69  OE2       -4.6330   -7.4710  -13.9250 O.co2  65  GLU65      -0.2457
     70  N         -2.2160   -4.3010   -6.2160 N.3    68  LEU68      -0.1231
     71  CA        -1.0910   -3.5140   -6.6870 C.3    68  LEU68       0.1693
     72  C         -1.4470   -2.2020   -7.3530 C.2    68  LEU68       0.2591
     73  O         -0.8380   -1.1580   -7.0370 O.2    68  LEU68      -0.2718
     74  CB        -0.1840   -4.2860   -7.6450 C.3    68  LEU68       0.0284
     75  CG         1.1760   -4.7560   -7.2070 C.3    68  LEU68       0.0019
     76  CD1        1.8430   -5.3880   -8.4020 C.3    68  LEU68       0.0001
     77  CD2        1.9650   -3.5990   -6.6480 C.3    68  LEU68       0.0001
     78  N         -2.3430   -2.2480   -8.3430 N.am   69  LEU69      -0.1980
     79  CA        -2.6540   -1.0410   -9.0880 C.3    69  LEU69       0.1596
     80  C         -3.2610    0.0500   -8.1760 C.2    69  LEU69       0.2287
     81  O         -3.0450    1.2240   -8.4130 O.2    69  LEU69      -0.2864
     82  CB        -3.5750   -1.3390  -10.2870 C.3    69  LEU69       0.0297
     83  CG        -2.9420   -2.0810  -11.4870 C.3    69  LEU69       0.0022
     84  CD1       -4.0090   -2.4020  -12.5150 C.3    69  LEU69       0.0001
     85  CD2       -1.8590   -1.2790  -12.1250 C.3    69  LEU69       0.0001
     86  N         -0.2880    1.8460   -6.5750 N.3    72  MET72      -0.1245
     87  CA         0.6820    2.5530   -7.3860 C.3    72  MET72       0.1570
     88  C          0.3010    4.0160   -7.6610 C.2    72  MET72       0.2261
     89  O         -0.6460    4.2790   -8.3800 O.2    72  MET72      -0.2867
     90  CB         0.8690    1.8570   -8.7430 C.3    72  MET72       0.0387
     91  CG         1.4680    0.4400   -8.7020 C.3    72  MET72       0.0595
     92  SD         3.1680    0.4570   -8.1100 S.3    72  MET72      -0.1393
     93  CE         3.0280    0.1210   -6.3980 C.3    72  MET72       0.0692
     94  N          4.4270    5.2060  -13.4490 N.3    77  VAL77      -0.1231
     95  CA         3.8790    3.8590  -13.2190 C.3    77  VAL77       0.1692
     96  C          2.4100    3.9550  -13.5510 C.2    77  VAL77       0.2591
     97  O          1.7850    4.9620  -13.2410 O.2    77  VAL77      -0.2718
     98  CB         4.0590    3.3580  -11.7980 C.3    77  VAL77       0.0266
     99  CG1        3.5700    1.8560  -11.6720 C.3    77  VAL77       0.0020
    100  CG2        5.5420    3.4440  -11.3980 C.3    77  VAL77       0.0020
    101  N          1.8690    2.9320  -14.2230 N.am   78  ILE78      -0.1980
    102  CA         0.4330    2.8930  -14.4870 C.3    78  ILE78       0.1595
    103  C         -0.3610    3.0320  -13.1820 C.2    78  ILE78       0.2287
    104  O         -0.0360    2.3990  -12.1420 O.2    78  ILE78      -0.2864
    105  CB         0.0290    1.6000  -15.2120 C.3    78  ILE78       0.0276
    106  CG1       -1.3900    1.7070  -15.7840 C.3    78  ILE78       0.0022
    107  CG2        0.3070    0.3040  -14.3060 C.3    78  ILE78       0.0022
    108  CD1       -1.6610    0.6990  -16.8970 C.3    78  ILE78       0.0001
    109  N        -11.1050   -2.8720  -14.9060 N.3    98  LEU98      -0.1245
    110  CA       -10.1110   -1.9500  -14.4260 C.3    98  LEU98       0.1561
    111  C        -10.0950   -0.7960  -15.4330 C.2    98  LEU98       0.2260
    112  O        -10.2770   -1.0130  -16.6280 O.2    98  LEU98      -0.2867
    113  CB        -8.7370   -2.5940  -14.4000 C.3    98  LEU98       0.0270
    114  CG        -8.5500   -3.8650  -13.5580 C.3    98  LEU98       0.0019
    115  CD1       -7.0820   -4.2400  -13.6000 C.3    98  LEU98       0.0001
    116  CD2       -8.9950   -3.6600  -12.1460 C.3    98  LEU98       0.0001
    117  N         -7.8800    2.6680  -16.7000 N.3   100  THR100     -0.1203
    118  CA        -6.6580    3.4170  -16.6620 C.3   100  THR100      0.1994
    119  C         -6.6700    4.4460  -17.8250 C.2   100  THR100      0.2618
    120  O         -7.5540    4.4300  -18.7130 O.2   100  THR100     -0.2717
    121  CB        -5.3910    2.4800  -16.8410 C.3   100  THR100      0.1784
    122  OG1       -5.3420    1.9800  -18.1900 O.3   100  THR100     -0.2211
    123  CG2       -5.3830    1.2820  -15.8810 C.3   100  THR100      0.0376
    124  N         -5.6790    5.3290  -17.8040 N.am  101  HIS101     -0.1961
    125  CA        -5.4170    6.2570  -18.9100 C.3   101  HIS101      0.1787
    126  C         -5.1720    5.4600  -20.1730 C.2   101  HIS101      0.2620
    127  O         -4.4820    4.4180  -20.1360 O.2   101  HIS101     -0.2715
    128  CB        -4.1660    7.0740  -18.6090 C.3   101  HIS101      0.0785
    129  CG        -4.3570    8.1180  -17.5650 C.ar  101  HIS101      0.0821
    130  ND1       -3.6600    8.1170  -16.3750 N.ar  101  HIS101     -0.2267
    131  CD2       -5.1440    9.2190  -17.5400 C.ar  101  HIS101      0.1154
    132  CE1       -4.0230    9.1690  -15.6570 C.ar  101  HIS101      0.1986
    133  NE2       -4.9310    9.8410  -16.3350 N.ar  101  HIS101     -0.2212
    134  N         -5.7540    5.9080  -21.2830 N.am  102  LEU102     -0.1963
    135  CA        -5.5700    5.2330  -22.5530 C.3   102  LEU102      0.1728
    136  C         -4.1310    5.4340  -22.9400 C.2   102  LEU102      0.2616
    137  O         -3.5590    6.4930  -22.6960 O.2   102  LEU102     -0.2715
    138  CB        -6.5010    5.7980  -23.6470 C.3   102  LEU102      0.0311
    139  CG        -6.5360    5.1240  -25.0230 C.3   102  LEU102      0.0022
    140  CD1       -6.8370    3.6050  -24.9430 C.3   102  LEU102      0.0001
    141  CD2       -7.5740    5.8080  -25.9620 C.3   102  LEU102      0.0001
    142  N         -3.5150    4.4230  -23.5190 N.am  103  MET103     -0.1977
    143  CA        -2.1870    4.6800  -24.0100 C.3   103  MET103      0.1605
    144  C         -2.0210    4.4690  -25.5200 C.2   103  MET103      0.2287
    145  O         -2.5360    3.5330  -26.1430 O.2   103  MET103     -0.2864
    146  CB        -1.1040    4.1040  -23.0790 C.3   103  MET103      0.0413
    147  CG        -0.9950    4.9480  -21.7710 C.3   103  MET103      0.0598
    148  SD        -0.6440    4.1650  -20.1710 S.3   103  MET103     -0.1393
    149  CE        -1.5680    2.6540  -20.2440 C.3   103  MET103      0.0692
    150  N          8.8200    1.7760   -7.5840 N.3   135  ILE135     -0.1245
    151  CA         8.3520    0.3720   -7.4920 C.3   135  ILE135      0.1561
    152  C          9.2590   -0.4120   -6.5210 C.2   135  ILE135      0.2260
    153  O          8.7970   -1.1070   -5.5480 O.2   135  ILE135     -0.2867
    154  CB         8.3640   -0.2050   -8.9650 C.3   135  ILE135      0.0252
    155  CG1        7.1340    0.3530   -9.7570 C.3   135  ILE135      0.0019
    156  CG2        8.2780   -1.7290   -8.9890 C.3   135  ILE135      0.0019
    157  CD1        7.2270   -0.0320  -11.3290 C.3   135  ILE135      0.0001
    158  N          8.8830   -4.2330   -4.5500 N.3   140  ILE140     -0.1231
    159  CA         8.2470   -4.9260   -5.6680 C.3   140  ILE140      0.1692
    160  C          9.2850   -4.9590   -6.7870 C.2   140  ILE140      0.2592
    161  O          9.9260   -3.9500   -7.0610 O.2   140  ILE140     -0.2718
    162  CB         6.9830   -4.1820   -6.0950 C.3   140  ILE140      0.0266
    163  CG1        5.9260   -4.1990   -4.9510 C.3   140  ILE140      0.0019
    164  CG2        6.3810   -4.7170   -7.4830 C.3   140  ILE140      0.0020
    165  CD1        4.9130   -3.0920   -5.0500 C.3   140  ILE140      0.0001
    166  N          9.4460   -6.1350   -7.3860 N.am  141  ILE141     -0.1966
    167  CA        10.3070   -6.3500   -8.5290 C.3   141  ILE141      0.1727
    168  C          9.3710   -6.5570   -9.7320 C.2   141  ILE141      0.2616
    169  O          8.3700   -7.2760   -9.6410 O.2   141  ILE141     -0.2715
    170  CB        11.2050   -7.5740   -8.3060 C.3   141  ILE141      0.0290
    171  CG1       12.0910   -7.3500   -7.0540 C.3   141  ILE141      0.0022
    172  CG2       12.0610   -7.8250   -9.5590 C.3   141  ILE141      0.0023
    173  CD1       12.8590   -8.5860   -6.5860 C.3   141  ILE141      0.0001
    174  N          9.6440   -5.8670  -10.8260 N.am  142  HIS142     -0.1973
    175  CA         8.7650   -5.9650  -11.9970 C.3   142  HIS142      0.1656
    176  C          8.9580   -7.3680  -12.6570 C.2   142  HIS142      0.2291
    177  O          8.0080   -8.0740  -12.8560 O.2   142  HIS142     -0.2864
    178  CB         9.0910   -4.8420  -13.0110 C.3   142  HIS142      0.0771
    179  CG         8.1880   -4.8420  -14.1970 C.ar  142  HIS142      0.0820
    180  ND1        7.2660   -3.8490  -14.4430 N.ar  142  HIS142     -0.2267
    181  CD2        8.0220   -5.7640  -15.1720 C.ar  142  HIS142      0.1154
    182  CE1        6.5810   -4.1490  -15.5360 C.ar  142  HIS142      0.1986
    183  NE2        7.0250   -5.3130  -15.9890 N.ar  142  HIS142     -0.2212
    184  N          5.5000    2.7730  -16.7330 N.3   160  ILE160     -0.1231
    185  CA         5.7450    1.3330  -16.6000 C.3   160  ILE160      0.1692
    186  C          4.4270    0.6280  -16.3530 C.2   160  ILE160      0.2592
    187  O          3.6110    1.0190  -15.4920 O.2   160  ILE160     -0.2718
    188  CB         6.7160    1.0680  -15.4450 C.3   160  ILE160      0.0266
    189  CG1        8.0320    1.8370  -15.6750 C.3   160  ILE160      0.0019
    190  CG2        6.9800   -0.4340  -15.2990 C.3   160  ILE160      0.0020
    191  CD1        8.9090    1.8650  -14.4480 C.3   160  ILE160      0.0001
    192  N          4.1940   -0.4400  -17.1020 N.am  161  LEU161     -0.1966
    193  CA         3.0020   -1.2520  -16.8520 C.3   161  LEU161      0.1728
    194  C          3.3810   -2.7600  -16.9670 C.2   161  LEU161      0.2616
    195  O          4.5390   -3.0850  -17.1470 O.2   161  LEU161     -0.2715
    196  CB         1.8340   -0.8120  -17.7930 C.3   161  LEU161      0.0311
    197  CG         2.1080   -0.7450  -19.2940 C.3   161  LEU161      0.0022
    198  CD1        2.3160   -2.1500  -19.7080 C.3   161  LEU161      0.0001
    199  CD2        0.8980   -0.2580  -20.0600 C.3   161  LEU161      0.0001
    200  N          2.4220   -3.6600  -16.8590 N.am  162  ASP162     -0.1957
    201  CA         2.7190   -5.0920  -17.0500 C.3   162  ASP162      0.1840
    202  C          1.4920   -5.6180  -17.8430 C.2   162  ASP162      0.2622
    203  O          0.4350   -5.8310  -17.3180 O.2   162  ASP162     -0.2715
    204  CB         2.9350   -5.7790  -15.7030 C.3   162  ASP162      0.1450
    205  CG         3.8190   -7.0560  -15.7750 C.2   162  ASP162      0.3671
    206  OD1        4.2330   -7.5400  -14.7000 O.co2 162  ASP162     -0.2456
    207  OD2        4.0570   -7.6260  -16.8580 O.co2 162  ASP162     -0.2456
    208  N          1.6680   -5.7500  -19.1390 N.am  163  PHE163     -0.1960
    209  CA         0.6160   -6.2090  -20.0450 C.3   163  PHE163      0.1771
    210  C          0.1970   -7.6140  -19.7640 C.2   163  PHE163      0.2620
    211  O         -0.8340   -8.0570  -20.2470 O.2   163  PHE163     -0.2715
    212  CB         1.0810   -6.1030  -21.4750 C.3   163  PHE163      0.0574
    213  CG         0.4680   -4.9790  -22.1950 C.ar  163  PHE163     -0.0200
    214  CD1       -0.8730   -5.0340  -22.5530 C.ar  163  PHE163     -0.0042
    215  CD2        1.2110   -3.8470  -22.5040 C.ar  163  PHE163     -0.0042
    216  CE1       -1.4560   -3.9830  -23.2070 C.ar  163  PHE163     -0.0003
    217  CE2        0.6280   -2.7790  -23.1630 C.ar  163  PHE163     -0.0003
    218  CZ        -0.7000   -2.8450  -23.5140 C.ar  163  PHE163     -0.0000
    219  N          0.9960   -8.3070  -18.9620 N.am  164  GLY164     -0.1954
    220  CA         0.6990   -9.6510  -18.5470 C.3   164  GLY164      0.1869
    221  C          1.6490  -10.0000  -17.4270 C.2   164  GLY164      0.2309
    222  O          1.6600   -9.3230  -16.3920 O.2   164  GLY164     -0.2863
@<TRIPOS>BOND
     1     2     3    1
     2     2     1    1
     3     2     5    1
     4     4     3    2
     5     6     5    1
     6     3     8   am
     7     9     8    1
     8     9    10    1
     9     5     7    1
    10    10    12   am
    11    10    11    2
    12    12    13    1
    13    17    16    1
    14    16    13    1
    15   145   144    2
    16    13    14    1
    17   141   139    1
    18    21    20    2
    19    15    14    2
    20   144   143    1
    21   139   140    1
    22   139   138    1
    23    20    19    1
    24   143   142    1
    25   143   146    1
    26    18    19    1
    27    22    19    1
    28    22    23    1
    29    22    24    1
    30   138   135    1
    31   142   136   am
    32   218   216   ar
    33   218   217   ar
    34   216   214   ar
    35   217   215   ar
    36   146   147    1
    37   136   137    2
    38   136   135    1
    39   135   134    1
    40   214   213   ar
    41   215   213   ar
    42   213   212    1
    43   147   148    1
    44    29    26    1
    45   212   209    1
    46    26    25    1
    47    26    27    1
    48   134   126   am
    49    27    28    2
    50   211   210    2
    51   149   148    1
    52   126   127    2
    53   126   125    1
    54   199   197    1
    55   209   210    1
    56   209   208    1
    57   210   219   am
    58   198   197    1
    59    31    30    1
    60    31    34    1
    61    31    32    1
    62   197   196    1
    63   208   202   am
    64    35    34    1
    65    35    36    1
    66   219   220    1
    67   125   128    1
    68   125   124    1
    69   120   119    2
    70   128   129    1
    71    32    33    2
    72   220   221    1
    73    36    37    1
    74    37    38    1
    75   122   121    1
    76   202   203    2
    77   202   201    1
    78   119   124   am
    79   119   118    1
    80   196   193    1
    81   129   131   ar
    82   129   130   ar
    83   131   133   ar
    84   221   222    2
    85   195   194    2
    86   192   193    1
    87   192   186   am
    88   201   200    1
    89   201   204    1
    90   194   200   am
    91   194   193    1
    92   108   106    1
    93   207   205   ar
    94   121   118    1
    95   121   123    1
    96   184   185    1
    97   117   118    1
    98   112   111    2
    99   185   186    1
   100   185   188    1
   101   130   132   ar
   102   186   187    2
   103   133   132   ar
   104   183   182   ar
   105   183   181   ar
   106   106   105    1
   107   205   204    1
   108   205   206   ar
   109   189   188    1
   110   189   191    1
   111   182   180   ar
   112   188   190    1
   113   111   110    1
   114   105   102    1
   115   105   107    1
   116   181   179   ar
   117   109   110    1
   118    68    67   ar
   119   102   101    1
   120   102   103    1
   121   180   179   ar
   122   110   113    1
   123   113   114    1
   124    48    47    1
   125   101    96   am
   126   179   178    1
   127    69    67   ar
   128    45    46    1
   129    45    44    1
   130    47    46    2
   131    47    49    1
   132    67    66    1
   133   115   114    1
   134   114   116    1
   135    96    97    2
   136    96    95    1
   137    94    95    1
   138    95    98    1
   139   103   104    2
   140   178   175    1
   141   177   176    2
   142   176   175    1
   143    84    83    1
   144    44    43    1
   145    66    65    1
   146    85    83    1
   147   175   174    1
   148    98    99    1
   149    98   100    1
   150    83    82    1
   151    43    40    1
   152   157   155    1
   153    65    62    1
   154   174   168   am
   155    82    79    1
   156    42    41    2
   157    41    40    1
   158    40    39    1
   159    62    63    1
   160    62    61    1
   161   155   154    1
   162   168   169    2
   163   168   167    1
   164    59    58    1
   165   172   170    1
   166    64    63    2
   167    79    78    1
   168    79    80    1
   169   156   154    1
   170   154   151    1
   171    61    52   am
   172    90    91    1
   173    90    87    1
   174    91    92    1
   175   167   170    1
   176   167   166    1
   177    58    60    1
   178    58    57    2
   179    81    80    2
   180    76    75    1
   181    89    88    2
   182    78    72   am
   183   170   171    1
   184    92    93    1
   185    52    53    2
   186    52    51    1
   187    88    87    1
   188    74    75    1
   189    74    71    1
   190   150   151    1
   191    56    57    1
   192    56    55    1
   193   151   152    1
   194   164   162    1
   195   166   160   am
   196    87    86    1
   197    72    73    2
   198    72    71    1
   199    54    55    1
   200    54    51    1
   201    75    77    1
   202   161   160    2
   203   171   173    1
   204    50    51    1
   205   160   159    1
   206    71    70    1
   207   152   153    2
   208   162   159    1
   209   162   163    1
   210   159   158    1
   211   165   163    1
