@<TRIPOS>MOLECULE
tmp/3hv4B01.pdb
 236 225 0 0 0
SMALL
GASTEIGER

@<TRIPOS>ATOM
      1  N         22.2730   -5.8340   37.2260 N.3    26  VAL26      -0.1231
      2  CA        20.9310   -6.3810   37.4290 C.3    26  VAL26       0.1692
      3  C         20.0100   -6.1480   36.2360 C.2    26  VAL26       0.2592
      4  O         18.8270   -6.5210   36.2920 O.2    26  VAL26      -0.2718
      5  CB        20.2370   -5.7970   38.6700 C.3    26  VAL26       0.0266
      6  CG1       20.9000   -6.2770   39.9550 C.3    26  VAL26       0.0020
      7  CG2       20.1850   -4.2800   38.5820 C.3    26  VAL26       0.0020
      8  N         20.5490   -5.5290   35.1780 N.am   27  GLY27      -0.1957
      9  CA        19.7870   -5.1950   33.9710 C.3    27  GLY27       0.1869
     10  C         20.5980   -4.4460   32.9280 C.2    27  GLY27       0.2309
     11  O         21.5480   -3.7380   33.2380 O.2    27  GLY27      -0.2863
     12  N         18.8240    1.4980   26.5660 N.3    31  TYR31      -0.1241
     13  CA        18.6600    2.7720   27.2740 C.3    31  TYR31       0.1605
     14  C         19.6760    2.9360   28.3870 C.2    31  TYR31       0.2264
     15  O         19.9780    4.0580   28.8080 O.2    31  TYR31      -0.2867
     16  CB        17.2390    2.9600   27.8040 C.3    31  TYR31       0.0534
     17  CG        16.1650    2.9410   26.7330 C.ar   31  TYR31      -0.0201
     18  CD1       15.2620    4.0020   26.5980 C.ar   31  TYR31      -0.0009
     19  CD2       16.0400    1.8500   25.8570 C.ar   31  TYR31      -0.0009
     20  CE1       14.2450    3.9700   25.6120 C.ar   31  TYR31       0.0417
     21  CE2       15.0470    1.8110   24.8710 C.ar   31  TYR31       0.0417
     22  CZ        14.1520    2.8670   24.7500 C.ar   31  TYR31       0.1957
     23  OH        13.1790    2.8070   23.7710 O.3    31  TYR31      -0.2866
     24  N         22.1140   -1.1740   34.6320 N.3    34  VAL34      -0.1245
     25  CA        22.0110   -0.8980   36.0410 C.3    34  VAL34       0.1561
     26  C         22.7980   -1.9280   36.8270 C.2    34  VAL34       0.2260
     27  O         22.6070   -3.1380   36.6540 O.2    34  VAL34      -0.2867
     28  CB        20.5350   -0.8870   36.5250 C.3    34  VAL34       0.0252
     29  CG1       20.4270   -0.3860   37.9610 C.3    34  VAL34       0.0019
     30  CG2       19.6920   -0.0360   35.6320 C.3    34  VAL34       0.0019
     31  N         20.9520    1.6600   43.3980 N.3    47  ALA47      -0.1245
     32  CA        20.9460    1.3320   41.9770 C.3    47  ALA47       0.1562
     33  C         21.6350    2.4520   41.2110 C.2    47  ALA47       0.2260
     34  O         21.2830    3.6210   41.3400 O.2    47  ALA47      -0.2867
     35  CB        19.5450    1.1550   41.4920 C.3    47  ALA47       0.0290
     36  N         22.5300    3.7150   37.4960 N.3    49  LYS49      -0.1245
     37  CA        22.2150    3.5350   36.0640 C.3    49  LYS49       0.1561
     38  C         23.1580    4.3350   35.2010 C.2    49  LYS49       0.2260
     39  O         23.3010    5.5270   35.3840 O.2    49  LYS49      -0.2867
     40  CB        20.7830    3.9560   35.7590 C.3    49  LYS49       0.0271
     41  CG        20.3770    3.8380   34.3030 C.3    49  LYS49       0.0035
     42  CD        18.8790    4.0280   34.1350 C.3    49  LYS49       0.0206
     43  CE        18.5490    4.8320   32.8890 C.3    49  LYS49       0.1093
     44  NZ        17.0920    4.9140   32.7440 N.3    49  LYS49      -0.1314
     45  N         16.5900   12.3630   25.4210 N.3    63  ARG63      -0.1245
     46  CA        16.3200   11.4220   26.4920 C.3    63  ARG63       0.1563
     47  C         17.1690   11.6830   27.7220 C.2    63  ARG63       0.2260
     48  O         16.6780   11.6320   28.8410 O.2    63  ARG63      -0.2867
     49  CB        16.5580    9.9860   26.0140 C.3    63  ARG63       0.0307
     50  CG        15.4260    9.4360   25.1670 C.3    63  ARG63       0.0489
     51  CD        15.6990    8.0100   24.7360 C.3    63  ARG63       0.2205
     52  NE        14.9090    7.6720   23.5570 N.pl3  63  ARG63      -0.0865
     53  CZ        14.9280    6.5030   22.9040 C.cat  63  ARG63       0.5346
     54  NH1       15.7180    5.4970   23.2970 N.pl3  63  ARG63       0.1354
     55  NH2       14.1400    6.3470   21.8360 N.pl3  63  ARG63       0.1354
     56  N         16.2680   14.9560   29.4700 N.3    66  ARG66      -0.1231
     57  CA        14.9160   14.8040   29.9960 C.3    66  ARG66       0.1694
     58  C         14.9450   14.0740   31.3240 C.2    66  ARG66       0.2591
     59  O         14.5250   14.6420   32.3270 O.2    66  ARG66      -0.2718
     60  CB        14.0150   14.0590   29.0140 C.3    66  ARG66       0.0321
     61  CG        12.6350   14.6590   28.9420 C.3    66  ARG66       0.0489
     62  CD        11.5610   13.6430   28.5900 C.3    66  ARG66       0.2205
     63  NE        11.7620   13.1050   27.2570 N.pl3  66  ARG66      -0.0865
     64  CZ        11.5280   11.8370   26.9460 C.cat  66  ARG66       0.5346
     65  NH1       11.0960   11.0140   27.8970 N.pl3  66  ARG66       0.1354
     66  NH2       11.7440   11.3900   25.7070 N.pl3  66  ARG66       0.1354
     67  N         15.4850   12.8490   31.3280 N.am   67  GLU67      -0.1979
     68  CA        15.4830   12.0160   32.5140 C.3    67  GLU67       0.1602
     69  C         16.1940   12.6940   33.6780 C.2    67  GLU67       0.2287
     70  O         15.7120   12.6260   34.8180 O.2    67  GLU67      -0.2864
     71  CB        16.0870   10.6090   32.2630 C.3    67  GLU67       0.0415
     72  CG        15.8710    9.6170   33.4570 C.3    67  GLU67       0.1163
     73  CD        16.3910    8.2000   33.2080 C.2    67  GLU67       0.3649
     74  OE1       15.9980    7.2300   33.9080 O.co2  67  GLU67      -0.2457
     75  OE2       17.2250    8.0320   32.3100 O.co2  67  GLU67      -0.2457
     76  N         14.2120   15.6620   34.8170 N.3    70  LEU70      -0.1231
     77  CA        12.9770   15.2500   35.4070 C.3    70  LEU70       0.1693
     78  C         13.2880   14.7230   36.7910 C.2    70  LEU70       0.2591
     79  O         12.7520   15.2400   37.7730 O.2    70  LEU70      -0.2718
     80  CB        12.2080   14.2640   34.5230 C.3    70  LEU70       0.0284
     81  CG        10.9740   13.6200   35.1680 C.3    70  LEU70       0.0019
     82  CD1        9.9810   14.7030   35.6300 C.3    70  LEU70       0.0001
     83  CD2       10.3080   12.6110   34.2290 C.3    70  LEU70       0.0001
     84  N         14.1890   13.7520   36.8940 N.am   71  LEU71      -0.1980
     85  CA        14.3870   13.0740   38.1770 C.3    71  LEU71       0.1596
     86  C         14.9180   14.0070   39.2610 C.2    71  LEU71       0.2287
     87  O         14.6310   13.8200   40.4270 O.2    71  LEU71      -0.2864
     88  CB        15.2630   11.8050   38.0470 C.3    71  LEU71       0.0297
     89  CG        14.6610   10.6400   37.2550 C.3    71  LEU71       0.0022
     90  CD1       15.5450    9.3790   37.2350 C.3    71  LEU71       0.0001
     91  CD2       13.2650   10.2980   37.6960 C.3    71  LEU71       0.0001
     92  N         11.8030   15.1470   40.9830 N.3    74  MET74      -0.1245
     93  CA        10.8430   14.2360   41.5980 C.3    74  MET74       0.1570
     94  C         11.1890   14.0720   43.0640 C.2    74  MET74       0.2261
     95  O         12.2400   13.5000   43.4030 O.2    74  MET74      -0.2867
     96  CB        10.8160   12.8780   40.9130 C.3    74  MET74       0.0387
     97  CG        10.3390   12.8620   39.4310 C.3    74  MET74       0.0595
     98  SD         8.6890   13.5410   39.1180 S.3    74  MET74      -0.1393
     99  CE         9.0370   15.3000   38.9140 C.3    74  MET74       0.0692
    100  N          7.2570    8.2950   44.4020 N.3    79  VAL79      -0.1231
    101  CA         7.9400    8.4260   43.1290 C.3    79  VAL79       0.1692
    102  C          9.4400    8.3230   43.3930 C.2    79  VAL79       0.2591
    103  O          9.9470    8.8340   44.3670 O.2    79  VAL79      -0.2718
    104  CB         7.6130    9.8040   42.4340 C.3    79  VAL79       0.0266
    105  CG1        8.3590    9.9510   41.1280 C.3    79  VAL79       0.0020
    106  CG2        6.1140    9.9520   42.2180 C.3    79  VAL79       0.0020
    107  N         10.1460    7.6320   42.5160 N.am   80  ILE80      -0.1980
    108  CA        11.5810    7.4540   42.6230 C.3    80  ILE80       0.1595
    109  C         12.2610    8.8270   42.6620 C.2    80  ILE80       0.2287
    110  O         11.9010    9.7190   41.8750 O.2    80  ILE80      -0.2864
    111  CB        12.0820    6.5670   41.4580 C.3    80  ILE80       0.0276
    112  CG1       13.5080    6.0740   41.7020 C.3    80  ILE80       0.0022
    113  CG2       11.9440    7.2710   40.0970 C.3    80  ILE80       0.0022
    114  CD1       13.6280    5.0690   42.8290 C.3    80  ILE80       0.0001
    115  N         23.2770    7.7120   36.9320 N.3   100  LEU100     -0.1245
    116  CA        22.1740    8.0970   37.8360 C.3   100  LEU100      0.1561
    117  C         22.0500    7.1260   38.9980 C.2   100  LEU100      0.2260
    118  O         22.0940    5.9040   38.7740 O.2   100  LEU100     -0.2867
    119  CB        20.8570    8.1270   37.0720 C.3   100  LEU100      0.0270
    120  CG        20.7540    9.1000   35.8920 C.3   100  LEU100      0.0019
    121  CD1       19.4470    8.8690   35.1200 C.3   100  LEU100      0.0001
    122  CD2       20.8460   10.5140   36.3440 C.3   100  LEU100      0.0001
    123  N         19.9580    5.8200   42.6250 N.3   102  THR102     -0.1203
    124  CA        18.7410    5.8080   43.4360 C.3   102  THR102      0.1994
    125  C         18.8590    4.7190   44.5080 C.2   102  THR102      0.2618
    126  O         19.7670    3.8930   44.4320 O.2   102  THR102     -0.2717
    127  CB        17.4540    5.5730   42.5660 C.3   102  THR102      0.1784
    128  OG1       17.3870    4.2060   42.1120 O.3   102  THR102     -0.2211
    129  CG2       17.4190    6.5010   41.3660 C.3   102  THR102      0.0376
    130  N         17.9610    4.7290   45.5020 N.am  103  HIS103     -0.1961
    131  CA        17.8130    3.5980   46.4260 C.3   103  HIS103      0.1787
    132  C         17.6410    2.3350   45.6080 C.2   103  HIS103      0.2620
    133  O         16.8590    2.3280   44.6740 O.2   103  HIS103     -0.2715
    134  CB        16.5570    3.7430   47.2880 C.3   103  HIS103      0.0785
    135  CG        16.6300    4.8310   48.3080 C.ar  103  HIS103      0.0821
    136  ND1       17.2700    4.6710   49.5180 N.ar  103  HIS103     -0.2267
    137  CD2       16.1160    6.0870   48.3160 C.ar  103  HIS103      0.1154
    138  CE1       17.1640    5.7890   50.2220 C.ar  103  HIS103      0.1986
    139  NE2       16.4700    6.6640   49.5150 N.ar  103  HIS103     -0.2212
    140  N         18.3500    1.2650   45.9380 N.am  104  LEU104     -0.1963
    141  CA        18.0670   -0.0140   45.2820 C.3   104  LEU104      0.1728
    142  C         16.6830   -0.3800   45.6750 C.2   104  LEU104      0.2616
    143  O         16.2580   -0.1450   46.8060 O.2   104  LEU104     -0.2715
    144  CB        19.0150   -1.1410   45.6980 C.3   104  LEU104      0.0311
    145  CG        18.9560   -2.4210   44.8320 C.3   104  LEU104      0.0022
    146  CD1       19.2580   -2.1920   43.3320 C.3   104  LEU104      0.0001
    147  CD2       19.8780   -3.5090   45.4060 C.3   104  LEU104      0.0001
    148  N         15.9590   -0.9310   44.7300 N.am  105  MET105     -0.1977
    149  CA        14.6280   -1.4020   45.0320 C.3   105  MET105      0.1605
    150  C         14.6500   -2.8990   44.7530 C.2   105  MET105      0.2287
    151  O         15.0620   -3.3350   43.6660 O.2   105  MET105     -0.2864
    152  CB        13.5730   -0.6680   44.1820 C.3   105  MET105      0.0413
    153  CG        13.8360    0.8520   43.9830 C.3   105  MET105      0.0598
    154  SD        12.8580    2.0510   44.9320 S.3   105  MET105     -0.1393
    155  CE        12.4950    1.1410   46.4620 C.3   105  MET105      0.0692
    156  N          3.1990   13.1940   39.4190 N.3   137  ILE137     -0.1245
    157  CA         3.6850   13.0980   38.0210 C.3   137  ILE137      0.1561
    158  C          2.8270   13.9230   37.0340 C.2   137  ILE137      0.2260
    159  O          3.3510   14.7570   36.2840 O.2   137  ILE137     -0.2867
    160  CB         3.7800   11.5990   37.6120 C.3   137  ILE137      0.0252
    161  CG1        4.8430   10.8930   38.4710 C.3   137  ILE137      0.0019
    162  CG2        4.0170   11.4040   36.1200 C.3   137  ILE137      0.0019
    163  CD1        5.0180    9.4770   38.1530 C.3   137  ILE137      0.0001
    164  N          3.4990   15.2900   32.8920 N.3   142  ILE142     -0.1231
    165  CA         4.2310   14.1290   32.4620 C.3   142  ILE142      0.1692
    166  C          3.2290   12.9900   32.4270 C.2   142  ILE142      0.2592
    167  O          2.3820   12.8570   33.3430 O.2   142  ILE142     -0.2718
    168  CB         5.4060   13.8340   33.4550 C.3   142  ILE142      0.0266
    169  CG1        6.6420   14.6190   33.0340 C.3   142  ILE142      0.0019
    170  CG2        5.8010   12.3980   33.4990 C.3   142  ILE142      0.0020
    171  CD1        7.4310   15.0440   34.2500 C.3   142  ILE142      0.0001
    172  N          3.3240   12.1820   31.3690 N.am  143  ILE143     -0.1966
    173  CA         2.5870   10.9310   31.2790 C.3   143  ILE143      0.1727
    174  C          3.5490    9.7960   31.5260 C.2   143  ILE143      0.2616
    175  O          4.6080    9.7350   30.9480 O.2   143  ILE143     -0.2715
    176  CB         1.9040   10.7950   29.9170 C.3   143  ILE143      0.0290
    177  CG1        1.1140   12.0810   29.6410 C.3   143  ILE143      0.0022
    178  CG2        1.0270    9.5160   29.8810 C.3   143  ILE143      0.0023
    179  CD1        0.5830   12.2100   28.2810 C.3   143  ILE143      0.0001
    180  N          3.2210    8.9030   32.4250 N.am  144  HIS144     -0.1973
    181  CA         4.1200    7.7850   32.5960 C.3   144  HIS144      0.1656
    182  C          4.1780    6.9060   31.3330 C.2   144  HIS144      0.2291
    183  O          5.2680    6.5700   30.9040 O.2   144  HIS144     -0.2864
    184  CB         3.7700    6.9550   33.8310 C.3   144  HIS144      0.0771
    185  CG         4.7520    5.8680   34.1020 C.ar  144  HIS144      0.0820
    186  ND1        5.6330    5.9110   35.1590 N.ar  144  HIS144     -0.2267
    187  CD2        5.0460    4.7460   33.4110 C.ar  144  HIS144      0.1154
    188  CE1        6.4000    4.8410   35.1350 C.ar  144  HIS144      0.1986
    189  NE2        6.0650    4.1200   34.0810 N.ar  144  HIS144     -0.2212
    190  N          6.6100    4.7650   42.3290 N.3   162  ILE162     -0.1231
    191  CA         6.5370    4.6320   40.8790 C.3   162  ILE162      0.1692
    192  C          7.9050    4.9010   40.2520 C.2   162  ILE162      0.2592
    193  O          8.5770    5.8730   40.6140 O.2   162  ILE162     -0.2718
    194  CB         5.5040    5.6240   40.2890 C.3   162  ILE162      0.0266
    195  CG1        4.1730    5.5010   41.0380 C.3   162  ILE162      0.0019
    196  CG2        5.3610    5.4680   38.7130 C.3   162  ILE162      0.0020
    197  CD1        3.1350    6.4570   40.6160 C.3   162  ILE162      0.0001
    198  N          8.3110    4.0490   39.3110 N.am  163  LEU163     -0.1966
    199  CA         9.4890    4.3190   38.4760 C.3   163  LEU163      0.1728
    200  C          9.4100    3.8260   37.0380 C.2   163  LEU163      0.2616
    201  O          8.3770    3.3470   36.5920 O.2   163  LEU163     -0.2715
    202  CB        10.7750    3.8210   39.1300 C.3   163  LEU163      0.0311
    203  CG        10.9810    2.3250   39.2510 C.3   163  LEU163      0.0022
    204  CD1       12.4460    2.0150   38.9680 C.3   163  LEU163      0.0001
    205  CD2       10.5540    1.8830   40.6400 C.3   163  LEU163      0.0001
    206  N         10.5120    3.9800   36.3100 N.am  164  ASP164     -0.1957
    207  CA        10.6430    3.3730   34.9900 C.3   164  ASP164      0.1840
    208  C         11.8420    2.4090   34.9020 C.2   164  ASP164      0.2622
    209  O         12.9190    2.7930   34.5010 O.2   164  ASP164     -0.2715
    210  CB        10.6700    4.4460   33.9030 C.3   164  ASP164      0.1450
    211  CG        10.1000    3.9480   32.5670 C.2   164  ASP164      0.3671
    212  OD1       10.5760    2.9200   32.0590 O.co2 164  ASP164     -0.2456
    213  OD2        9.1870    4.5910   32.0130 O.co2 164  ASP164     -0.2456
    214  N         11.6300    1.1620   35.3370 N.am  165  PHE165     -0.1960
    215  CA        12.5690    0.0040   35.1860 C.3   165  PHE165      0.1771
    216  C         13.0290   -0.1780   33.7510 C.2   165  PHE165      0.2620
    217  O         14.0270   -0.8390   33.5110 O.2   165  PHE165     -0.2715
    218  CB        11.8860   -1.3260   35.5970 C.3   165  PHE165      0.0574
    219  CG        12.1180   -1.7390   37.0270 C.ar  165  PHE165     -0.0200
    220  CD1       13.0200   -2.7650   37.3320 C.ar  165  PHE165     -0.0042
    221  CD2       11.4140   -1.1290   38.0790 C.ar  165  PHE165     -0.0042
    222  CE1       13.2380   -3.1700   38.6900 C.ar  165  PHE165     -0.0003
    223  CE2       11.6150   -1.5110   39.4370 C.ar  165  PHE165     -0.0003
    224  CZ        12.5280   -2.5300   39.7450 C.ar  165  PHE165     -0.0000
    225  N         12.2720    0.3910   32.8160 N.am  166  GLY166     -0.1940
    226  CA        12.4530    0.1630   31.3990 C.3   166  GLY166      0.2014
    227  C         13.8550    0.4940   30.9570 C.2   166  GLY166      0.2638
    228  O         14.3280    1.6060   31.2160 O.2   166  GLY166     -0.2714
    229  N         14.5210   -0.4880   30.3220 N.am  167  LEU167     -0.1977
    230  CA        15.8960   -0.3330   29.7780 C.3   167  LEU167      0.1596
    231  C         16.0020   -0.7870   28.3060 C.2   167  LEU167      0.2287
    232  O         17.0800   -0.7140   27.6800 O.2   167  LEU167     -0.2864
    233  CB        16.9130   -1.0890   30.6610 C.3   167  LEU167      0.0297
    234  CG        17.0570   -0.6130   32.1240 C.3   167  LEU167      0.0022
    235  CD1       17.4640   -1.7590   33.0720 C.3   167  LEU167      0.0001
    236  CD2       17.9750    0.6250   32.2670 C.3   167  LEU167      0.0001
@<TRIPOS>BOND
     1    55    53    1
     2    53    54    1
     3    53    52    2
     4    52    51    1
     5    23    22    1
     6    51    50    1
     7    22    21   ar
     8    22    20   ar
     9    21    19   ar
    10    50    49    1
    11    45    46    1
    12    20    18   ar
    13    66    64    1
    14    19    17   ar
    15    49    46    1
    16    46    47    1
    17    12    13    1
    18    18    17   ar
    19    17    16    1
    20    64    63    2
    21    64    65    1
    22    63    62    1
    23    13    16    1
    24    13    14    1
    25   232   231    2
    26    47    48    2
    27   179   177    1
    28   231   230    1
    29    14    15    2
    30    62    61    1
    31    61    60    1
    32    60    57    1
    33    56    57    1
    34   177   176    1
    35   230   229    1
    36   230   233    1
    37   178   176    1
    38   176   173    1
    39    57    58    1
    40   229   227   am
    41   233   234    1
    42   183   182    2
    43   175   174    2
    44   227   228    2
    45   227   226    1
    46   173   172    1
    47   173   174    1
    48    58    67   am
    49    58    59    2
    50    67    68    1
    51   182   181    1
    52   172   166   am
    53   226   225    1
    54   174   180   am
    55   213   211   ar
    56   212   211   ar
    57   234   236    1
    58   234   235    1
    59    71    68    1
    60    71    72    1
    61    75    73   ar
    62   180   181    1
    63   166   165    1
    64   166   167    2
    65   165   164    1
    66   165   168    1
    67    68    69    1
    68   211   210    1
    69   181   184    1
    70    44    43    1
    71   225   216   am
    72    43    42    1
    73    10    11    2
    74    10     9    1
    75   169   168    1
    76   169   171    1
    77    73    72    1
    78    73    74   ar
    79   187   189   ar
    80   187   185   ar
    81   168   170    1
    82   217   216    2
    83    69    70    2
    84   216   215    1
    85   184   185    1
    86   210   207    1
    87     9     8    1
    88   189   188   ar
    89   185   186   ar
    90    42    41    1
    91    83    81    1
    92    41    40    1
    93   209   208    2
    94    80    81    1
    95    80    77    1
    96    24    25    1
    97    76    77    1
    98   208   207    1
    99   208   214   am
   100   207   206    1
   101   121   120    1
   102   188   186   ar
   103    81    82    1
   104     8     3   am
   105   215   214    1
   106   215   218    1
   107    38    39    2
   108    38    37    1
   109    77    78    1
   110   218   219    1
   111    30    28    1
   112    40    37    1
   113   120   122    1
   114   120   119    1
   115    25    28    1
   116    25    26    1
   117    37    36    1
   118   162   160    1
   119     3     4    2
   120     3     2    1
   121   159   158    2
   122   206   200   am
   123    28    29    1
   124   201   200    2
   125    27    26    2
   126    78    84   am
   127    78    79    2
   128    84    85    1
   129   115   116    1
   130   219   220   ar
   131   219   221   ar
   132   158   157    1
   133   200   199    1
   134   119   116    1
   135     1     2    1
   136    90    89    1
   137    89    91    1
   138    89    88    1
   139   220   222   ar
   140     2     5    1
   141   160   157    1
   142   160   161    1
   143   116   117    1
   144   157   156    1
   145    88    85    1
   146   221   223   ar
   147   163   161    1
   148    85    86    1
   149   199   202    1
   150   199   198    1
   151     7     5    1
   152     5     6    1
   153   222   224   ar
   154   196   194    1
   155   118   117    2
   156    99    98    1
   157   204   203    1
   158    98    97    1
   159   202   203    1
   160   203   205    1
   161    86    87    2
   162   198   192   am
   163    97    96    1
   164   223   224   ar
   165   113   111    1
   166   192   193    2
   167   192   191    1
   168   194   191    1
   169   194   195    1
   170   197   195    1
   171   191   190    1
   172    96    93    1
   173    92    93    1
   174   105   104    1
   175    33    34    2
   176    33    32    1
   177   129   127    1
   178   111   112    1
   179   111   108    1
   180    35    32    1
   181    93    94    1
   182   112   114    1
   183   110   109    2
   184    32    31    1
   185   128   127    1
   186   106   104    1
   187   104   101    1
   188   107   108    1
   189   107   102   am
   190   127   124    1
   191   108   109    1
   192   123   124    1
   193    94    95    2
   194   101   102    1
   195   101   100    1
   196   146   145    1
   197   102   103    2
   198   124   125    1
   199   151   150    2
   200   153   152    1
   201   153   154    1
   202   152   149    1
   203   126   125    2
   204   125   130   am
   205   133   132    2
   206   148   149    1
   207   148   142   am
   208   150   149    1
   209   145   147    1
   210   145   144    1
   211   154   155    1
   212   141   142    1
   213   141   144    1
   214   141   140    1
   215   130   131    1
   216   132   140   am
   217   132   131    1
   218   142   143    2
   219   131   134    1
   220   134   135    1
   221   135   137   ar
   222   135   136   ar
   223   137   139   ar
   224   139   138   ar
   225   136   138   ar
