@<TRIPOS>MOLECULE
tmp/3hv6A02.pdb
 91 91 0 0 0
SMALL
GASTEIGER

@<TRIPOS>ATOM
      1  N         18.6440  -18.7930  -15.7650 N.3   174  LEU174     -0.1231
      2  CA        19.2990  -19.8960  -15.0410 C.3   174  LEU174      0.1693
      3  C         18.3970  -20.3720  -13.8940 C.2   174  LEU174      0.2592
      4  O         18.8490  -21.0710  -12.9850 O.2   174  LEU174     -0.2718
      5  CB        20.6720  -19.5010  -14.4770 C.3   174  LEU174      0.0284
      6  CG        21.8180  -18.7550  -15.1720 C.3   174  LEU174      0.0019
      7  CD1       23.1150  -19.1610  -14.4860 C.3   174  LEU174      0.0001
      8  CD2       21.9240  -19.0200  -16.6560 C.3   174  LEU174      0.0001
      9  N         17.1280  -19.9830  -13.9440 N.am  175  ASN175     -0.1960
     10  CA        16.1480  -20.3450  -12.9250 C.3   175  ASN175      0.1819
     11  C         16.6260  -20.0510  -11.4880 C.2   175  ASN175      0.2621
     12  O         16.2610  -20.7490  -10.5480 O.2   175  ASN175     -0.2715
     13  CB        15.7390  -21.8200  -13.0930 C.3   175  ASN175      0.1195
     14  CG        14.5200  -22.1920  -12.2610 C.2   175  ASN175      0.2630
     15  OD1       13.5980  -21.3830  -12.0720 O.2   175  ASN175     -0.2716
     16  ND2       14.5140  -23.4150  -11.7550 N.am  175  ASN175     -0.0877
     17  N         17.4290  -19.0000  -11.3230 N.am  176  TRP176     -0.1960
     18  CA        18.0420  -18.7000  -10.0320 C.3   176  TRP176      0.1771
     19  C         16.9770  -18.7020   -8.9340 C.2   176  TRP176      0.2620
     20  O         15.8980  -18.1330   -9.1050 O.2   176  TRP176     -0.2715
     21  CB        18.7170  -17.3410  -10.1040 C.3   176  TRP176      0.0590
     22  CG        20.0070  -17.2060   -9.3540 C.ar  176  TRP176      0.0006
     23  CD1       20.1600  -16.9310   -8.0250 C.ar  176  TRP176      0.0946
     24  CD2       21.3240  -17.2920   -9.8990 C.ar  176  TRP176      0.0152
     25  NE1       21.4890  -16.8530   -7.7070 N.ar  176  TRP176     -0.2442
     26  CE2       22.2290  -17.0760   -8.8390 C.ar  176  TRP176      0.0810
     27  CE3       21.8300  -17.5450  -11.1780 C.ar  176  TRP176      0.0012
     28  CZ2       23.6160  -17.0880   -9.0180 C.ar  176  TRP176      0.0191
     29  CZ3       23.2100  -17.5580  -11.3570 C.ar  176  TRP176      0.0001
     30  CH2       24.0840  -17.3250  -10.2830 C.ar  176  TRP176      0.0015
     31  N         17.2790  -19.3390   -7.8080 N.am  177  MET177     -0.1963
     32  CA        16.2860  -19.5210   -6.7350 C.3   177  MET177      0.1736
     33  C         15.6960  -18.1720   -6.2960 C.2   177  MET177      0.2616
     34  O         14.4770  -17.9480   -6.3590 O.2   177  MET177     -0.2715
     35  CB        16.9060  -20.2990   -5.5530 C.3   177  MET177      0.0427
     36  CG        15.9760  -20.5320   -4.3480 C.3   177  MET177      0.0599
     37  SD        14.6580  -21.7160   -4.6890 S.3   177  MET177     -0.1393
     38  CE        14.2360  -22.2830   -3.0280 C.3   177  MET177      0.0692
     39  N         16.5870  -17.2790   -5.8870 N.am  178  HIS178     -0.1973
     40  CA        16.2530  -15.9280   -5.4980 C.3   178  HIS178      0.1656
     41  C         16.7770  -15.0390   -6.6140 C.2   178  HIS178      0.2291
     42  O         17.6780  -15.4190   -7.3580 O.2   178  HIS178     -0.2864
     43  CB        16.9950  -15.5530   -4.2110 C.3   178  HIS178      0.0771
     44  CG        17.3300  -16.7240   -3.3340 C.ar  178  HIS178      0.0820
     45  ND1       16.6950  -16.9630   -2.1320 N.ar  178  HIS178     -0.2267
     46  CD2       18.2350  -17.7240   -3.4850 C.ar  178  HIS178      0.1154
     47  CE1       17.1920  -18.0580   -1.5810 C.ar  178  HIS178      0.1986
     48  NE2       18.1290  -18.5390   -2.3800 N.ar  178  HIS178     -0.2212
     49  N         28.0260  -18.8570   -6.7830 N.3   229  ILE229     -0.1231
     50  CA        27.1290  -19.7850   -7.4680 C.3   229  ILE229      0.1692
     51  C         27.0230  -21.1140   -6.6850 C.2   229  ILE229      0.2593
     52  O         27.9780  -21.9110   -6.6460 O.2   229  ILE229     -0.2718
     53  CB        27.5240  -20.0120   -8.9350 C.3   229  ILE229      0.0266
     54  CG1       27.5640  -18.6730   -9.7030 C.3   229  ILE229      0.0019
     55  CG2       26.5500  -21.0190   -9.6510 C.3   229  ILE229      0.0020
     56  CD1       28.1050  -18.7940  -11.1280 C.3   229  ILE229      0.0001
     57  N         25.8660  -21.3190   -6.0630 N.am  230  SER230     -0.1938
     58  CA        25.5970  -22.5250   -5.2610 C.3   230  SER230      0.2055
     59  C         25.3470  -23.7750   -6.0920 C.2   230  SER230      0.2643
     60  O         25.5920  -24.8810   -5.6020 O.2   230  SER230     -0.2714
     61  CB        24.4490  -22.3060   -4.2780 C.3   230  SER230      0.2130
     62  OG        23.2960  -21.7970   -4.9350 O.3   230  SER230     -0.2179
     63  N         24.8590  -23.6210   -7.3260 N.am  231  SER231     -0.1949
     64  CA        24.5920  -24.7790   -8.1930 C.3   231  SER231      0.1924
     65  C         25.8440  -25.4810   -8.7170 C.2   231  SER231      0.2314
     66  O         26.5890  -24.9330   -9.5360 O.2   231  SER231     -0.2863
     67  CB        23.6490  -24.4100   -9.3510 C.3   231  SER231      0.2116
     68  OG        23.5830  -25.4620  -10.3120 O.3   231  SER231     -0.2180
     69  N         25.8250  -27.9660  -10.8670 N.3   233  SER233     -0.1202
     70  CA        25.6260  -28.1610  -12.3110 C.3   233  SER233      0.2020
     71  C         25.9250  -26.9270  -13.1440 C.2   233  SER233      0.2618
     72  O         26.6140  -27.0130  -14.1620 O.2   233  SER233     -0.2717
     73  CB        24.2230  -28.7180  -12.6430 C.3   233  SER233      0.2103
     74  OG        23.1860  -28.0350  -11.9370 O.3   233  SER233     -0.2182
     75  N         25.4070  -25.7860  -12.7080 N.am  234  ALA234     -0.1979
     76  CA        25.6950  -24.5120  -13.3600 C.3   234  ALA234      0.1597
     77  C         27.1810  -24.1480  -13.2870 C.2   234  ALA234      0.2287
     78  O         27.7600  -23.7410  -14.2920 O.2   234  ALA234     -0.2864
     79  CB        24.8610  -23.4190  -12.7360 C.3   234  ALA234      0.0319
     80  N         29.1430  -26.3290  -15.7040 N.3   237  TYR237     -0.1241
     81  CA        28.9030  -25.9330  -17.0770 C.3   237  TYR237      0.1605
     82  C         29.5920  -24.6130  -17.4340 C.2   237  TYR237      0.2264
     83  O         30.3100  -24.5310  -18.4370 O.2   237  TYR237     -0.2867
     84  CB        27.3980  -25.8730  -17.3910 C.3   237  TYR237      0.0534
     85  CG        27.1500  -25.6870  -18.8640 C.ar  237  TYR237     -0.0201
     86  CD1       27.3450  -26.7450  -19.7610 C.ar  237  TYR237     -0.0009
     87  CD2       26.7380  -24.4510  -19.3720 C.ar  237  TYR237     -0.0009
     88  CE1       27.1470  -26.5710  -21.1250 C.ar  237  TYR237      0.0417
     89  CE2       26.5330  -24.2660  -20.7290 C.ar  237  TYR237      0.0417
     90  CZ        26.7380  -25.3300  -21.6010 C.ar  237  TYR237      0.1957
     91  OH        26.5260  -25.1640  -22.9520 O.3   237  TYR237     -0.2866
@<TRIPOS>BOND
     1    91    90    1
     2    90    88   ar
     3    90    89   ar
     4    88    86   ar
     5    89    87   ar
     6    86    85   ar
     7    87    85   ar
     8    85    84    1
     9    83    82    2
    10    82    81    1
    11    84    81    1
    12    81    80    1
    13     8     6    1
    14     1     2    1
    15     6     7    1
    16     6     5    1
    17     2     5    1
    18     2     3    1
    19    78    77    2
    20    72    71    2
    21     9     3   am
    22     9    10    1
    23     3     4    2
    24    76    77    1
    25    76    79    1
    26    76    75    1
    27    71    75   am
    28    71    70    1
    29    13    10    1
    30    13    14    1
    31    10    11    1
    32    73    70    1
    33    73    74    1
    34    70    69    1
    35    14    15    2
    36    14    16   am
    37    11    17   am
    38    11    12    2
    39    29    27   ar
    40    29    30   ar
    41    17    18    1
    42    27    24   ar
    43    56    54    1
    44    68    67    1
    45    30    28   ar
    46    21    18    1
    47    21    22    1
    48    18    19    1
    49    24    22   ar
    50    24    26   ar
    51    54    53    1
    52    55    53    1
    53    66    65    2
    54    22    23   ar
    55    67    64    1
    56    20    19    2
    57    28    26   ar
    58    53    50    1
    59    19    31   am
    60    26    25   ar
    61    65    64    1
    62    64    63    1
    63    23    25   ar
    64    31    32    1
    65    50    49    1
    66    50    51    1
    67    42    41    2
    68    63    59   am
    69    32    33    1
    70    32    35    1
    71    51    52    2
    72    51    57   am
    73    41    40    1
    74    34    33    2
    75    33    39   am
    76    59    60    2
    77    59    58    1
    78    57    58    1
    79    39    40    1
    80    35    36    1
    81    40    43    1
    82    58    61    1
    83    62    61    1
    84    37    36    1
    85    37    38    1
    86    43    44    1
    87    46    44   ar
    88    46    48   ar
    89    44    45   ar
    90    48    47   ar
    91    45    47   ar
