@<TRIPOS>MOLECULE
tmp/3hv6A01.pdb
 222 209 0 0 0
SMALL
GASTEIGER

@<TRIPOS>ATOM
      1  N         -8.6030   -1.9350  -28.1990 N.3    27  VAL27      -0.1245
      2  CA        -7.2140   -1.7120  -28.5560 C.3    27  VAL27       0.1561
      3  C         -6.4270   -3.0330  -28.5650 C.2    27  VAL27       0.2260
      4  O         -5.8330   -3.3870  -29.5890 O.2    27  VAL27      -0.2867
      5  CB        -6.5320   -0.5970  -27.6890 C.3    27  VAL27       0.0252
      6  CG1       -6.9500    0.7960  -28.1610 C.3    27  VAL27       0.0019
      7  CG2       -6.8660   -0.7500  -26.2250 C.3    27  VAL27       0.0019
      8  N         -8.8460   -4.7430  -23.5470 N.3    31  VAL31      -0.1245
      9  CA        -8.7810   -3.3100  -23.2670 C.3    31  VAL31       0.1561
     10  C         -9.5090   -2.5100  -24.3360 C.2    31  VAL31       0.2260
     11  O         -9.3540   -2.7920  -25.5360 O.2    31  VAL31      -0.2867
     12  CB        -7.2980   -2.8290  -23.1620 C.3    31  VAL31       0.0252
     13  CG1       -7.2070   -1.3160  -22.8960 C.3    31  VAL31       0.0019
     14  CG2       -6.5570   -3.5840  -22.0880 C.3    31  VAL31       0.0019
     15  N         -8.0920    4.2140  -20.7550 N.3    44  ALA44      -0.1245
     16  CA        -8.0720    2.8330  -21.1760 C.3    44  ALA44       0.1562
     17  C         -8.8570    2.0620  -20.1140 C.2    44  ALA44       0.2260
     18  O         -8.6560    2.2830  -18.9070 O.2    44  ALA44      -0.2867
     19  CB        -6.6210    2.3290  -21.2640 C.3    44  ALA44       0.0290
     20  N         -9.6660   -1.7850  -18.8860 N.3    46  LYS46      -0.1245
     21  CA        -9.2780   -3.1950  -19.0470 C.3    46  LYS46       0.1561
     22  C        -10.2760   -4.0880  -18.3220 C.2    46  LYS46       0.2260
     23  O        -10.4700   -3.9580  -17.0980 O.2    46  LYS46      -0.2867
     24  CB        -7.8550   -3.4530  -18.5150 C.3    46  LYS46       0.0271
     25  CG        -7.4490   -4.9550  -18.4680 C.3    46  LYS46       0.0035
     26  CD        -6.1600   -5.1870  -17.6300 C.3    46  LYS46       0.0206
     27  CE        -5.5800   -6.5500  -17.9940 C.3    46  LYS46       0.1093
     28  NZ        -4.8760   -6.4910  -19.2900 N.3    46  LYS46      -0.1314
     29  N         -4.3440  -13.6980   -8.6590 N.3    60  ARG60      -0.1245
     30  CA        -3.7300  -12.8460   -9.6830 C.3    60  ARG60       0.1563
     31  C         -4.5020  -11.5370   -9.8540 C.2    60  ARG60       0.2260
     32  O         -3.9110  -10.4360  -10.0120 O.2    60  ARG60      -0.2867
     33  CB        -3.7190  -13.6150  -11.0120 C.3    60  ARG60       0.0307
     34  CG        -3.2060  -12.8280  -12.1890 C.3    60  ARG60       0.0489
     35  CD        -3.1250  -13.7470  -13.4290 C.3    60  ARG60       0.2205
     36  NE        -2.2700  -14.8910  -13.1320 N.pl3  60  ARG60      -0.0865
     37  CZ        -2.3720  -16.1060  -13.6750 C.cat  60  ARG60       0.5346
     38  NH1       -3.3180  -16.3920  -14.5750 N.pl3  60  ARG60       0.1354
     39  NH2       -1.5120  -17.0500  -13.3000 N.pl3  60  ARG60       0.1354
     40  N         -3.8290   -9.5190   -6.7250 N.3    63  ARG63      -0.1231
     41  CA        -2.4230   -9.0550   -6.8400 C.3    63  ARG63       0.1694
     42  C         -2.3740   -7.8200   -7.7180 C.2    63  ARG63       0.2591
     43  O         -1.7150   -6.8160   -7.3860 O.2    63  ARG63      -0.2718
     44  CB        -1.5480  -10.1300   -7.4940 C.3    63  ARG63       0.0321
     45  CG        -0.0380   -9.6830   -7.7580 C.3    63  ARG63       0.0489
     46  CD         0.7440  -10.7920   -8.4950 C.3    63  ARG63       0.2205
     47  NE         0.7380  -11.9670   -7.6260 N.pl3  63  ARG63      -0.0865
     48  CZ         0.3270  -13.1940   -7.9480 C.cat  63  ARG63       0.5346
     49  NH1       -0.0520  -13.4960   -9.1840 N.pl3  63  ARG63       0.1354
     50  NH2        0.3440  -14.1420   -7.0030 N.pl3  63  ARG63       0.1354
     51  N         -3.0750   -7.8880   -8.8390 N.am   64  GLU64      -0.1979
     52  CA        -3.0190   -6.7840   -9.8080 C.3    64  GLU64       0.1602
     53  C         -3.7490   -5.5490   -9.2940 C.2    64  GLU64       0.2287
     54  O         -3.2400   -4.3950   -9.3760 O.2    64  GLU64      -0.2864
     55  CB        -3.5590   -7.2050  -11.1960 C.3    64  GLU64       0.0415
     56  CG        -3.3690   -6.0130  -12.1910 C.3    64  GLU64       0.1163
     57  CD        -3.5500   -6.3990  -13.6250 C.2    64  GLU64       0.3649
     58  OE1       -3.0480   -5.6400  -14.4740 O.co2  64  GLU64      -0.2457
     59  OE2       -4.1770   -7.4500  -13.9140 O.co2  64  GLU64      -0.2457
     60  N         -1.7010   -3.9250   -6.3590 N.3    67  LEU67      -0.1231
     61  CA        -0.5010   -3.2420   -6.8750 C.3    67  LEU67       0.1693
     62  C         -0.8640   -1.9170   -7.5750 C.2    67  LEU67       0.2591
     63  O         -0.2830   -0.8420   -7.2770 O.2    67  LEU67      -0.2718
     64  CB         0.2270   -4.1820   -7.8300 C.3    67  LEU67       0.0284
     65  CG         1.7390   -4.2850   -8.0570 C.3    67  LEU67       0.0019
     66  CD1        2.5510   -3.9490   -6.8220 C.3    67  LEU67       0.0001
     67  CD2        2.0340   -5.7260   -8.5430 C.3    67  LEU67       0.0001
     68  N         -1.8100   -1.9740   -8.5010 N.am   68  LEU68      -0.1980
     69  CA        -2.2630   -0.7750   -9.2110 C.3    68  LEU68       0.1596
     70  C         -2.8210    0.2830   -8.2760 C.2    68  LEU68       0.2287
     71  O         -2.5950    1.4930   -8.4930 O.2    68  LEU68      -0.2864
     72  CB        -3.2880   -1.1270  -10.2960 C.3    68  LEU68       0.0297
     73  CG        -2.7290   -1.8160  -11.5550 C.3    68  LEU68       0.0022
     74  CD1       -3.8570   -2.1010  -12.4730 C.3    68  LEU68       0.0001
     75  CD2       -1.7200   -0.9250  -12.3000 C.3    68  LEU68       0.0001
     76  N          0.1690    2.3050   -6.8800 N.3    71  MET71      -0.1245
     77  CA         1.1030    3.1140   -7.7160 C.3    71  MET71       0.1570
     78  C          0.6860    4.5650   -7.9070 C.2    71  MET71       0.2261
     79  O         -0.3610    4.8300   -8.4940 O.2    71  MET71      -0.2867
     80  CB         1.3250    2.4570   -9.0810 C.3    71  MET71       0.0387
     81  CG         1.8780    1.0600   -8.9810 C.3    71  MET71       0.0595
     82  SD         3.5780    0.9770   -8.3610 S.3    71  MET71      -0.1393
     83  CE         3.4130    0.6760   -6.6170 C.3    71  MET71       0.0692
     84  N          4.7560    5.6600  -13.7000 N.3    76  VAL76      -0.1231
     85  CA         4.2010    4.3260  -13.5070 C.3    76  VAL76       0.1692
     86  C          2.7120    4.4410  -13.7500 C.2    76  VAL76       0.2591
     87  O          2.0680    5.4240  -13.3580 O.2    76  VAL76      -0.2718
     88  CB         4.4550    3.7600  -12.0910 C.3    76  VAL76       0.0266
     89  CG1        3.9020    2.2800  -11.9670 C.3    76  VAL76       0.0020
     90  CG2        5.9640    3.8800  -11.7000 C.3    76  VAL76       0.0020
     91  N          2.1720    3.4400  -14.4360 N.am   77  ILE77      -0.1980
     92  CA         0.7420    3.4100  -14.6410 C.3    77  ILE77       0.1595
     93  C         -0.0070    3.6150  -13.3110 C.2    77  ILE77       0.2287
     94  O          0.4010    3.1120  -12.2820 O.2    77  ILE77      -0.2864
     95  CB         0.3050    2.0900  -15.3440 C.3    77  ILE77       0.0276
     96  CG1       -1.1290    2.2500  -15.8310 C.3    77  ILE77       0.0022
     97  CG2        0.6040    0.7940  -14.4730 C.3    77  ILE77       0.0022
     98  CD1       -1.1070    3.1570  -17.1080 C.3    77  ILE77       0.0001
     99  N        -10.6590   -2.1800  -14.8360 N.3    97  LEU97      -0.1245
    100  CA        -9.6350   -1.2390  -14.3610 C.3    97  LEU97       0.1561
    101  C         -9.5680   -0.0640  -15.3250 C.2    97  LEU97       0.2260
    102  O         -9.5170   -0.2650  -16.5060 O.2    97  LEU97      -0.2867
    103  CB        -8.2740   -1.9320  -14.3410 C.3    97  LEU97       0.0270
    104  CG        -8.1670   -3.2330  -13.5350 C.3    97  LEU97       0.0019
    105  CD1       -6.7820   -3.8620  -13.7580 C.3    97  LEU97       0.0001
    106  CD2       -8.4430   -2.9950  -12.0540 C.3    97  LEU97       0.0001
    107  N         -7.3610    3.3360  -16.5340 N.3    99  THR99      -0.1203
    108  CA        -6.0560    4.0320  -16.4800 C.3    99  THR99       0.1994
    109  C         -6.0070    5.1150  -17.5720 C.2    99  THR99       0.2618
    110  O         -6.8560    5.1280  -18.4570 O.2    99  THR99      -0.2717
    111  CB        -4.8520    3.0230  -16.6740 C.3    99  THR99       0.1784
    112  OG1       -4.8580    2.4830  -18.0100 O.3    99  THR99      -0.2211
    113  CG2       -4.9440    1.8530  -15.6990 C.3    99  THR99       0.0376
    114  N         -5.0150    6.0110  -17.5300 N.am  100  HIS100     -0.1961
    115  CA        -4.8090    6.9920  -18.6200 C.3   100  HIS100      0.1787
    116  C         -4.4930    6.2920  -19.9210 C.2   100  HIS100      0.2620
    117  O         -3.7620    5.3260  -19.9170 O.2   100  HIS100     -0.2715
    118  CB        -3.6190    7.9120  -18.3300 C.3   100  HIS100      0.0785
    119  CG        -3.8870    8.9560  -17.2980 C.ar  100  HIS100      0.0821
    120  ND1       -3.4040    8.8640  -16.0070 N.ar  100  HIS100     -0.2267
    121  CD2       -4.5500   10.1320  -17.3730 C.ar  100  HIS100      0.1154
    122  CE1       -3.7770    9.9330  -15.3270 C.ar  100  HIS100      0.1986
    123  NE2       -4.4740   10.7160  -16.1330 N.ar  100  HIS100     -0.2212
    124  N         -5.0650    6.7670  -21.0270 N.am  101  LEU101     -0.1963
    125  CA        -4.7220    6.2510  -22.3350 C.3   101  LEU101      0.1728
    126  C         -3.4410    6.9680  -22.7860 C.2   101  LEU101      0.2616
    127  O         -3.4080    8.1930  -22.8340 O.2   101  LEU101     -0.2715
    128  CB        -5.8660    6.5210  -23.3180 C.3   101  LEU101      0.0311
    129  CG        -5.8250    5.8430  -24.6860 C.3   101  LEU101      0.0022
    130  CD1       -6.0370    4.3280  -24.5720 C.3   101  LEU101      0.0001
    131  CD2       -6.8680    6.4640  -25.5740 C.3   101  LEU101      0.0001
    132  N         -2.3890    6.2070  -23.0810 N.am  102  MET102     -0.1977
    133  CA        -1.1680    6.7620  -23.6660 C.3   102  MET102      0.1605
    134  C         -1.1710    6.5570  -25.1730 C.2   102  MET102      0.2287
    135  O         -1.9200    5.7210  -25.6930 O.2   102  MET102     -0.2864
    136  CB         0.0800    6.1380  -23.0400 C.3   102  MET102      0.0413
    137  CG         0.0990    6.1550  -21.5080 C.3   102  MET102      0.0598
    138  SD         0.4290    7.7430  -20.7540 S.3   102  MET102     -0.1393
    139  CE         2.2060    7.9190  -21.0310 C.3   102  MET102      0.0692
    140  N          1.1620    5.4400  -27.4850 N.3   104  ALA104     -0.1245
    141  CA         1.7080    4.2070  -28.0460 C.3   104  ALA104      0.1562
    142  C          2.6420    3.5260  -27.0430 C.2   104  ALA104      0.2260
    143  O          2.7490    3.9630  -25.9040 O.2   104  ALA104     -0.2867
    144  CB         2.4590    4.4920  -29.3440 C.3   104  ALA104      0.0290
    145  N          9.2240    2.1170   -7.8830 N.3   132  ILE132     -0.1245
    146  CA         8.7520    0.7280   -7.7400 C.3   132  ILE132      0.1561
    147  C          9.6820   -0.0640   -6.7990 C.2   132  ILE132      0.2260
    148  O          9.2030   -0.7390   -5.8690 O.2   132  ILE132     -0.2867
    149  CB         8.6430    0.0850   -9.1650 C.3   132  ILE132      0.0252
    150  CG1        7.4670    0.7290   -9.9650 C.3   132  ILE132      0.0019
    151  CG2        8.4130   -1.4140   -9.1020 C.3   132  ILE132      0.0019
    152  CD1        7.5110    0.3350  -11.4990 C.3   132  ILE132      0.0001
    153  N          9.1390   -3.8660   -4.9200 N.3   137  ILE137     -0.1231
    154  CA         8.3990   -4.4760   -6.0220 C.3   137  ILE137      0.1692
    155  C          9.4180   -4.6360   -7.1150 C.2   137  ILE137      0.2592
    156  O         10.2150   -3.7080   -7.3370 O.2   137  ILE137     -0.2718
    157  CB         7.2300   -3.5690   -6.4740 C.3   137  ILE137      0.0266
    158  CG1        6.1780   -3.5050   -5.3700 C.3   137  ILE137      0.0019
    159  CG2        6.6320   -4.0400   -7.8020 C.3   137  ILE137      0.0020
    160  CD1        5.2800   -2.3220   -5.4230 C.3   137  ILE137      0.0001
    161  N          9.4210   -5.7930   -7.7680 N.am  138  ILE138     -0.1966
    162  CA        10.3200   -6.0430   -8.8910 C.3   138  ILE138      0.1727
    163  C          9.4400   -6.1980  -10.1140 C.2   138  ILE138      0.2616
    164  O          8.4650   -6.9680  -10.1030 O.2   138  ILE138     -0.2715
    165  CB        11.1540   -7.3380   -8.6920 C.3   138  ILE138      0.0290
    166  CG1       11.9920   -7.2420   -7.3990 C.3   138  ILE138      0.0022
    167  CG2       12.0580   -7.6050   -9.9260 C.3   138  ILE138      0.0023
    168  CD1       12.6660   -8.6500   -7.0010 C.3   138  ILE138      0.0001
    169  N          9.7710   -5.4930  -11.1970 N.am  139  HIS139     -0.1973
    170  CA         8.9390   -5.6630  -12.4150 C.3   139  HIS139      0.1656
    171  C          9.0410   -7.0780  -13.0280 C.2   139  HIS139      0.2291
    172  O          8.0130   -7.7990  -13.1830 O.2   139  HIS139     -0.2864
    173  CB         9.2420   -4.5670  -13.4780 C.3   139  HIS139      0.0771
    174  CG         8.2720   -4.5740  -14.6280 C.ar  139  HIS139      0.0820
    175  ND1        7.3590   -3.5630  -14.8520 N.ar  139  HIS139     -0.2267
    176  CD2        8.0650   -5.4840  -15.6050 C.ar  139  HIS139      0.1154
    177  CE1        6.6470   -3.8420  -15.9340 C.ar  139  HIS139      0.1986
    178  NE2        7.0300   -5.0220  -16.3820 N.ar  139  HIS139     -0.2212
    179  N          4.6830    2.7660  -22.0480 N.3   148  ALA148     -0.1245
    180  CA         3.6550    3.4900  -22.8090 C.3   148  ALA148      0.1562
    181  C          4.1580    4.9070  -22.8650 C.2   148  ALA148      0.2260
    182  O          4.5910    5.4400  -21.8270 O.2   148  ALA148     -0.2867
    183  CB         2.3300    3.4380  -22.0380 C.3   148  ALA148      0.0290
    184  N          5.6400    3.1680  -17.0560 N.3   157  ILE157     -0.1231
    185  CA         5.8330    1.7560  -16.8990 C.3   157  ILE157      0.1692
    186  C          4.4840    1.0850  -16.5840 C.2   157  ILE157      0.2592
    187  O          3.8010    1.4370  -15.6100 O.2   157  ILE157     -0.2718
    188  CB         6.8360    1.4650  -15.7050 C.3   157  ILE157      0.0266
    189  CG1        8.1930    2.1370  -15.9510 C.3   157  ILE157      0.0019
    190  CG2        7.0550   -0.0650  -15.5440 C.3   157  ILE157      0.0020
    191  CD1        9.1390    2.0160  -14.7910 C.3   157  ILE157      0.0001
    192  N          4.1860    0.0320  -17.3360 N.am  158  LEU158     -0.1966
    193  CA         3.0580   -0.8340  -17.0320 C.3   158  LEU158      0.1728
    194  C          3.4270   -2.3250  -17.1920 C.2   158  LEU158      0.2616
    195  O          4.5730   -2.6760  -17.3740 O.2   158  LEU158     -0.2715
    196  CB         1.8290   -0.4250  -17.8770 C.3   158  LEU158      0.0311
    197  CG         1.9890   -0.2140  -19.3730 C.3   158  LEU158      0.0022
    198  CD1        2.0890   -1.5340  -20.0400 C.3   158  LEU158      0.0001
    199  CD2        0.7220    0.5310  -19.8700 C.3   158  LEU158      0.0001
    200  N          2.4540   -3.2130  -17.1080 N.am  159  ASP159     -0.1957
    201  CA         2.7380   -4.6410  -17.3160 C.3   159  ASP159      0.1840
    202  C          1.4740   -5.1860  -17.9390 C.2   159  ASP159      0.2622
    203  O          0.4440   -5.3010  -17.2880 O.2   159  ASP159     -0.2715
    204  CB         3.1050   -5.3440  -16.0090 C.3   159  ASP159      0.1450
    205  CG         3.5270   -6.8050  -16.2190 C.2   159  ASP159      0.3671
    206  OD1        4.0450   -7.4130  -15.2820 O.co2 159  ASP159     -0.2456
    207  OD2        3.3130   -7.3530  -17.3140 O.co2 159  ASP159     -0.2456
    208  N          1.5310   -5.3930  -19.2450 N.am  160  PHE160     -0.1960
    209  CA         0.4360   -6.0390  -19.9620 C.3   160  PHE160      0.1771
    210  C          0.1780   -7.4650  -19.5090 C.2   160  PHE160      0.2620
    211  O         -0.9450   -7.9690  -19.6710 O.2   160  PHE160     -0.2715
    212  CB         0.7410   -6.0770  -21.4390 C.3   160  PHE160      0.0574
    213  CG        -0.0090   -5.0730  -22.2100 C.ar  160  PHE160     -0.0200
    214  CD1       -1.2760   -5.3760  -22.6910 C.ar  160  PHE160     -0.0042
    215  CD2        0.5410   -3.8320  -22.4690 C.ar  160  PHE160     -0.0042
    216  CE1       -1.9920   -4.4520  -23.4230 C.ar  160  PHE160     -0.0003
    217  CE2       -0.1650   -2.8950  -23.2090 C.ar  160  PHE160     -0.0003
    218  CZ        -1.4220   -3.2070  -23.6920 C.ar  160  PHE160     -0.0000
    219  N          1.2170   -8.1180  -18.9900 N.am  161  GLY161     -0.1954
    220  CA         1.1060   -9.4480  -18.3820 C.3   161  GLY161      0.1869
    221  C          1.1370  -10.6070  -19.3700 C.2   161  GLY161      0.2309
    222  O          0.6150  -10.5070  -20.4970 O.2   161  GLY161     -0.2863
@<TRIPOS>BOND
     1     4     3    2
     2   144   141    1
     3     3     2    1
     4     2     1    1
     5     2     5    1
     6     6     5    1
     7   141   140    1
     8   141   142    1
     9     5     7    1
    10   142   143    2
    11   135   134    2
    12   131   129    1
    13    11    10    2
    14   134   133    1
    15   129   130    1
    16   129   128    1
    17    10     9    1
    18   218   216   ar
    19   218   217   ar
    20   133   132    1
    21   133   136    1
    22     8     9    1
    23   216   214   ar
    24   128   125    1
    25     9    12    1
    26   217   215   ar
    27    12    13    1
    28    12    14    1
    29   132   126   am
    30   136   137    1
    31   181   180    1
    32   181   182    2
    33   127   126    2
    34   180   179    1
    35   180   183    1
    36   126   125    1
    37   214   213   ar
    38   215   213   ar
    39   125   124    1
    40   213   212    1
    41   137   138    1
    42   212   209    1
    43    19    16    1
    44    16    15    1
    45    16    17    1
    46   139   138    1
    47   124   116   am
    48   222   221    2
    49    17    18    2
    50   198   197    1
    51   209   210    1
    52   209   208    1
    53   116   117    2
    54   116   115    1
    55   199   197    1
    56   211   210    2
    57   210   219   am
    58   197   196    1
    59   221   220    1
    60    28    27    1
    61   208   202   am
    62    21    20    1
    63    21    24    1
    64    21    22    1
    65   219   220    1
    66   115   118    1
    67   115   114    1
    68    24    25    1
    69    25    26    1
    70   110   109    2
    71   118   119    1
    72    22    23    2
    73   112   111    1
    74    27    26    1
    75   202   201    1
    76   202   203    2
    77   196   193    1
    78   109   114   am
    79   109   108    1
    80   195   194    2
    81   121   119   ar
    82   121   123   ar
    83   192   193    1
    84   192   186   am
    85   201   200    1
    86   201   204    1
    87   207   205   ar
    88   119   120   ar
    89   194   200   am
    90   194   193    1
    91    98    96    1
    92   184   185    1
    93   185   186    1
    94   185   188    1
    95   111   108    1
    96   111   113    1
    97   186   187    2
    98   107   108    1
    99   102   101    2
   100   178   177   ar
   101   178   176   ar
   102   205   204    1
   103   205   206   ar
   104   123   122   ar
   105   120   122   ar
   106   189   188    1
   107   189   191    1
   108   177   175   ar
   109    96    95    1
   110   188   190    1
   111   176   174   ar
   112    95    92    1
   113    95    97    1
   114   101   100    1
   115   175   174   ar
   116    99   100    1
   117    92    91    1
   118    92    93    1
   119   174   173    1
   120    38    37    1
   121    58    57   ar
   122    91    86   am
   123   100   103    1
   124   103   104    1
   125    59    57   ar
   126   105   104    1
   127    86    85    1
   128    86    87    2
   129    84    85    1
   130    37    39    1
   131    37    36    2
   132    57    56    1
   133   104   106    1
   134    85    88    1
   135   173   170    1
   136    35    36    1
   137    35    34    1
   138    93    94    2
   139   172   171    2
   140   171   170    1
   141    74    73    1
   142   170   169    1
   143    75    73    1
   144    56    55    1
   145    34    33    1
   146    88    89    1
   147    88    90    1
   148    73    72    1
   149   152   150    1
   150   169   163   am
   151    55    52    1
   152    33    30    1
   153    72    69    1
   154   163   164    2
   155   163   162    1
   156    32    31    2
   157   150   149    1
   158   167   165    1
   159    31    30    1
   160    52    53    1
   161    52    51    1
   162    30    29    1
   163    54    53    2
   164    69    68    1
   165    69    70    1
   166    49    48    1
   167   149   151    1
   168   149   146    1
   169    80    81    1
   170    80    77    1
   171    81    82    1
   172   162   165    1
   173   162   161    1
   174    51    42   am
   175   165   166    1
   176    67    65    1
   177    68    62   am
   178    46    45    1
   179    46    47    1
   180    79    78    2
   181    71    70    2
   182    82    83    1
   183    65    64    1
   184    65    66    1
   185    48    47    2
   186    48    50    1
   187    78    77    1
   188   145   146    1
   189    64    61    1
   190   159   157    1
   191   161   155   am
   192    45    44    1
   193   146   147    1
   194    42    43    2
   195    42    41    1
   196    77    76    1
   197    62    63    2
   198    62    61    1
   199    44    41    1
   200   166   168    1
   201   156   155    2
   202   155   154    1
   203    61    60    1
   204    41    40    1
   205   147   148    2
   206   157   154    1
   207   157   158    1
   208   154   153    1
   209   160   158    1
