@<TRIPOS>MOLECULE
tmp/3hv6A00.pdb
 174 169 0 0 0
SMALL
GASTEIGER

@<TRIPOS>ATOM
      1  N         20.1430  -12.6060  -17.0420 N.3   170  PRO170     -0.2102
      2  CA        20.6130  -13.9640  -17.2380 C.3   170  PRO170      0.1504
      3  C         20.2490  -14.8710  -16.0570 C.2   170  PRO170      0.2575
      4  O         19.8910  -16.0290  -16.2840 O.2   170  PRO170     -0.2718
      5  CB        22.1300  -13.7920  -17.4110 C.3   170  PRO170      0.0282
      6  CG        22.4510  -12.5020  -16.8040 C.3   170  PRO170      0.0208
      7  CD        21.2540  -11.6390  -17.0910 C.3   170  PRO170      0.0893
      8  N         20.2870  -14.3460  -14.8270 N.am  171  GLU171     -0.1980
      9  CA        19.9080  -15.1410  -13.6400 C.3   171  GLU171      0.1602
     10  C         18.4780  -15.6850  -13.7010 C.2   171  GLU171      0.2287
     11  O         18.1970  -16.7540  -13.1430 O.2   171  GLU171     -0.2864
     12  CB        20.1850  -14.4010  -12.3150 C.3   171  GLU171      0.0415
     13  CG        19.3960  -13.0800  -12.0910 C.3   171  GLU171      0.1163
     14  CD        20.1550  -11.8300  -12.5790 C.2   171  GLU171      0.3649
     15  OE1       20.0290  -10.7400  -11.9400 O.co2 171  GLU171     -0.2457
     16  OE2       20.8830  -11.9520  -13.5860 O.co2 171  GLU171     -0.2457
     17  N         18.6440  -18.7930  -15.7650 N.3   174  LEU174     -0.1245
     18  CA        19.2990  -19.8960  -15.0410 C.3   174  LEU174      0.1561
     19  C         18.3970  -20.3720  -13.8940 C.2   174  LEU174      0.2260
     20  O         18.8490  -21.0710  -12.9850 O.2   174  LEU174     -0.2867
     21  CB        20.6720  -19.5010  -14.4770 C.3   174  LEU174      0.0270
     22  CG        21.8180  -18.7550  -15.1720 C.3   174  LEU174      0.0019
     23  CD1       23.1150  -19.1610  -14.4860 C.3   174  LEU174      0.0001
     24  CD2       21.9240  -19.0200  -16.6560 C.3   174  LEU174      0.0001
     25  N         17.4290  -19.0000  -11.3230 N.3   176  TRP176     -0.1241
     26  CA        18.0420  -18.7000  -10.0320 C.3   176  TRP176      0.1605
     27  C         16.9770  -18.7020   -8.9340 C.2   176  TRP176      0.2264
     28  O         15.8980  -18.1330   -9.1050 O.2   176  TRP176     -0.2867
     29  CB        18.7170  -17.3410  -10.1040 C.3   176  TRP176      0.0550
     30  CG        20.0070  -17.2060   -9.3540 C.ar  176  TRP176      0.0003
     31  CD1       20.1600  -16.9310   -8.0250 C.ar  176  TRP176      0.0946
     32  CD2       21.3240  -17.2920   -9.8990 C.ar  176  TRP176      0.0152
     33  NE1       21.4890  -16.8530   -7.7070 N.ar  176  TRP176     -0.2442
     34  CE2       22.2290  -17.0760   -8.8390 C.ar  176  TRP176      0.0810
     35  CE3       21.8300  -17.5450  -11.1780 C.ar  176  TRP176      0.0012
     36  CZ2       23.6160  -17.0880   -9.0180 C.ar  176  TRP176      0.0191
     37  CZ3       23.2100  -17.5580  -11.3570 C.ar  176  TRP176      0.0001
     38  CH2       24.0840  -17.3250  -10.2830 C.ar  176  TRP176      0.0015
     39  N         16.5870  -17.2790   -5.8870 N.3   178  HIS178     -0.1226
     40  CA        16.2530  -15.9280   -5.4980 C.3   178  HIS178      0.1752
     41  C         16.7770  -15.0390   -6.6140 C.2   178  HIS178      0.2596
     42  O         17.6780  -15.4190   -7.3580 O.2   178  HIS178     -0.2718
     43  CB        16.9950  -15.5530   -4.2110 C.3   178  HIS178      0.0759
     44  CG        17.3300  -16.7240   -3.3340 C.ar  178  HIS178      0.0818
     45  ND1       16.6950  -16.9630   -2.1320 N.ar  178  HIS178     -0.2268
     46  CD2       18.2350  -17.7240   -3.4850 C.ar  178  HIS178      0.1154
     47  CE1       17.1920  -18.0580   -1.5810 C.ar  178  HIS178      0.1986
     48  NE2       18.1290  -18.5390   -2.3800 N.ar  178  HIS178     -0.2212
     49  N         16.1890  -13.8710   -6.7610 N.am  179  TYR179     -0.1962
     50  CA        16.8260  -12.8200   -7.5220 C.3   179  TYR179      0.1771
     51  C         16.2530  -11.5450   -6.9850 C.2   179  TYR179      0.2619
     52  O         15.2000  -11.5700   -6.3470 O.2   179  TYR179     -0.2715
     53  CB        16.6390  -12.9730   -9.0410 C.3   179  TYR179      0.0574
     54  CG        15.2150  -13.1050   -9.4840 C.ar  179  TYR179     -0.0198
     55  CD1       14.6750  -14.3500   -9.7470 C.ar  179  TYR179     -0.0009
     56  CD2       14.4020  -11.9900   -9.6030 C.ar  179  TYR179     -0.0009
     57  CE1       13.3570  -14.4960  -10.1470 C.ar  179  TYR179      0.0417
     58  CE2       13.0850  -12.1120  -10.0170 C.ar  179  TYR179      0.0417
     59  CZ        12.5680  -13.3750  -10.2890 C.ar  179  TYR179      0.1957
     60  OH        11.2570  -13.5160  -10.7030 O.3   179  TYR179     -0.2866
     61  N         16.9730  -10.4590   -7.2180 N.am  180  ASN180     -0.1972
     62  CA        16.7000   -9.1690   -6.6360 C.3   180  ASN180      0.1688
     63  C         16.1720   -8.1680   -7.6960 C.2   180  ASN180      0.2292
     64  O         16.0260   -8.5070   -8.8820 O.2   180  ASN180     -0.2864
     65  CB        17.9980   -8.5980   -6.0420 C.3   180  ASN180      0.1181
     66  CG        18.9590   -8.1420   -7.1040 C.2   180  ASN180      0.2629
     67  OD1       19.0560   -8.7690   -8.1450 O.2   180  ASN180     -0.2716
     68  ND2       19.6710   -7.0280   -6.8650 N.am  180  ASN180     -0.0877
     69  N         21.8510  -16.7080  -23.4720 N.3   211  LEU211     -0.1245
     70  CA        23.0510  -16.6130  -22.6660 C.3   211  LEU211      0.1561
     71  C         24.3160  -16.5790  -23.5190 C.2   211  LEU211      0.2260
     72  O         25.2620  -15.8770  -23.1970 O.2   211  LEU211     -0.2867
     73  CB        23.1160  -17.7580  -21.6460 C.3   211  LEU211      0.0270
     74  CG        22.0280  -17.6460  -20.5650 C.3   211  LEU211      0.0019
     75  CD1       21.8500  -18.9390  -19.8560 C.3   211  LEU211      0.0001
     76  CD2       22.3960  -16.5270  -19.5900 C.3   211  LEU211      0.0001
     77  N         26.9250  -13.6990  -23.0810 N.3   215  LEU215     -0.1245
     78  CA        28.3290  -13.9150  -22.6330 C.3   215  LEU215      0.1561
     79  C         29.3150  -13.3490  -23.6540 C.2   215  LEU215      0.2260
     80  O         30.3970  -12.8770  -23.3010 O.2   215  LEU215     -0.2867
     81  CB        28.6210  -15.3940  -22.4040 C.3   215  LEU215      0.0270
     82  CG        27.8750  -16.1400  -21.2980 C.3   215  LEU215      0.0019
     83  CD1       28.1100  -17.6260  -21.4840 C.3   215  LEU215      0.0001
     84  CD2       28.2960  -15.7130  -19.9130 C.3   215  LEU215      0.0001
     85  N         31.7630  -15.5700  -16.6250 N.3   221  PRO221     -0.2116
     86  CA        31.9330  -15.1280  -15.2170 C.3   221  PRO221      0.1372
     87  C         33.3710  -15.2470  -14.7050 C.2   221  PRO221      0.2244
     88  O         34.0870  -16.1870  -15.0810 O.2   221  PRO221     -0.2868
     89  CB        31.0390  -16.0780  -14.4230 C.3   221  PRO221      0.0268
     90  CG        30.0700  -16.6400  -15.3840 C.3   221  PRO221      0.0207
     91  CD        30.6930  -16.5690  -16.7720 C.3   221  PRO221      0.0892
     92  N         32.4280  -13.8280   -9.1270 N.3   225  LEU225     -0.1245
     93  CA        31.0440  -14.2640   -9.3800 C.3   225  LEU225      0.1561
     94  C         30.8450  -15.7690   -9.1300 C.2   225  LEU225      0.2260
     95  O         29.8420  -16.1750   -8.5500 O.2   225  LEU225     -0.2867
     96  CB        30.6120  -13.9540  -10.8220 C.3   225  LEU225      0.0270
     97  CG        29.1590  -14.3260  -11.1900 C.3   225  LEU225      0.0019
     98  CD1       28.1780  -13.7780  -10.1570 C.3   225  LEU225      0.0001
     99  CD2       28.7790  -13.8330  -12.5920 C.3   225  LEU225      0.0001
    100  N         29.9440  -17.2130   -5.7730 N.3   228  LYS228     -0.1231
    101  CA        28.5600  -16.9880   -5.3120 C.3   228  LYS228      0.1693
    102  C         27.5500  -17.9040   -5.9850 C.2   228  LYS228      0.2591
    103  O         26.3570  -17.7520   -5.7760 O.2   228  LYS228     -0.2718
    104  CB        28.1530  -15.5120   -5.5220 C.3   228  LYS228      0.0285
    105  CG        29.1430  -14.5320   -4.8410 C.3   228  LYS228      0.0035
    106  CD        28.6840  -13.0780   -4.8760 C.3   228  LYS228      0.0206
    107  CE        29.0290  -12.4400   -6.1930 C.3   228  LYS228      0.1093
    108  NZ        28.9790  -10.9610   -6.0920 N.3   228  LYS228     -0.1314
    109  N         28.0260  -18.8570   -6.7830 N.am  229  ILE229     -0.1980
    110  CA        27.1290  -19.7850   -7.4680 C.3   229  ILE229      0.1595
    111  C         27.0230  -21.1140   -6.6850 C.2   229  ILE229      0.2287
    112  O         27.9780  -21.9110   -6.6460 O.2   229  ILE229     -0.2864
    113  CB        27.5240  -20.0120   -8.9350 C.3   229  ILE229      0.0276
    114  CG1       27.5640  -18.6730   -9.7030 C.3   229  ILE229      0.0022
    115  CG2       26.5500  -21.0190   -9.6510 C.3   229  ILE229      0.0022
    116  CD1       28.1050  -18.7940  -11.1280 C.3   229  ILE229      0.0001
    117  N         29.1430  -26.3290  -15.7040 N.3   237  TYR237     -0.1227
    118  CA        28.9030  -25.9330  -17.0770 C.3   237  TYR237      0.1736
    119  C         29.5920  -24.6130  -17.4340 C.2   237  TYR237      0.2595
    120  O         30.3100  -24.5310  -18.4370 O.2   237  TYR237     -0.2718
    121  CB        27.3980  -25.8730  -17.3910 C.3   237  TYR237      0.0548
    122  CG        27.1500  -25.6870  -18.8640 C.ar  237  TYR237     -0.0200
    123  CD1       27.3450  -26.7450  -19.7610 C.ar  237  TYR237     -0.0009
    124  CD2       26.7380  -24.4510  -19.3720 C.ar  237  TYR237     -0.0009
    125  CE1       27.1470  -26.5710  -21.1250 C.ar  237  TYR237      0.0417
    126  CE2       26.5330  -24.2660  -20.7290 C.ar  237  TYR237      0.0417
    127  CZ        26.7380  -25.3300  -21.6010 C.ar  237  TYR237      0.1957
    128  OH        26.5260  -25.1640  -22.9520 O.3   237  TYR237     -0.2866
    129  N         29.3680  -23.5900  -16.6100 N.am  238  ILE238     -0.1980
    130  CA        29.9960  -22.2820  -16.7820 C.3   238  ILE238      0.1595
    131  C         31.5320  -22.3980  -16.8690 C.2   238  ILE238      0.2287
    132  O         32.1530  -21.8700  -17.7900 O.2   238  ILE238     -0.2864
    133  CB        29.5860  -21.2960  -15.6520 C.3   238  ILE238      0.0276
    134  CG1       28.0990  -20.9320  -15.7700 C.3   238  ILE238      0.0022
    135  CG2       30.4210  -20.0440  -15.7020 C.3   238  ILE238      0.0022
    136  CD1       27.4940  -20.2810  -14.5080 C.3   238  ILE238      0.0001
    137  N         33.0240  -23.7680  -20.1910 N.3   241  LEU241     -0.1245
    138  CA        32.9240  -22.9610  -21.3960 C.3   241  LEU241      0.1561
    139  C         34.3130  -22.5010  -21.8130 C.2   241  LEU241      0.2260
    140  O         35.2180  -22.4700  -20.9810 O.2   241  LEU241     -0.2867
    141  CB        32.0270  -21.7440  -21.1510 C.3   241  LEU241      0.0270
    142  CG        30.5200  -21.9850  -20.9550 C.3   241  LEU241      0.0019
    143  CD1       29.8180  -20.6910  -20.5740 C.3   241  LEU241      0.0001
    144  CD2       29.8870  -22.6160  -22.1740 C.3   241  LEU241      0.0001
    145  N         27.1590   -9.0500  -15.5390 N.3   270  LEU270     -0.1231
    146  CA        26.5690  -10.3650  -15.2450 C.3   270  LEU270      0.1693
    147  C         26.2250  -10.5230  -13.7520 C.2   270  LEU270      0.2592
    148  O         25.1190  -10.9460  -13.3900 O.2   270  LEU270     -0.2718
    149  CB        27.5260  -11.4580  -15.7400 C.3   270  LEU270      0.0284
    150  CG        26.9470  -12.7390  -16.2990 C.3   270  LEU270      0.0019
    151  CD1       25.9660  -12.5010  -17.5180 C.3   270  LEU270      0.0001
    152  CD2       28.1290  -13.6300  -16.6810 C.3   270  LEU270      0.0001
    153  N         27.1730  -10.1640  -12.8890 N.am  271  ASP271     -0.1960
    154  CA        26.9780  -10.2290  -11.4410 C.3   271  ASP271      0.1840
    155  C         26.0110   -9.1390  -10.9870 C.2   271  ASP271      0.2623
    156  O         26.3470   -7.9660  -10.9970 O.2   271  ASP271     -0.2715
    157  CB        28.3150  -10.0610  -10.7300 C.3   271  ASP271      0.1450
    158  CG        28.2190  -10.2700   -9.2430 C.2   271  ASP271      0.3671
    159  OD1       27.0930  -10.2930   -8.6960 O.co2 271  ASP271     -0.2456
    160  OD2       29.2850  -10.4150   -8.6130 O.co2 271  ASP271     -0.2456
    161  N         24.8070   -9.5410  -10.5770 N.am  272  SER272     -0.1936
    162  CA        23.7450   -8.5900  -10.2740 C.3   272  SER272      0.2055
    163  C         24.0770   -7.6530   -9.1260 C.2   272  SER272      0.2643
    164  O         23.5680   -6.5310   -9.0750 O.2   272  SER272     -0.2714
    165  CB        22.4160   -9.3120  -10.0030 C.3   272  SER272      0.2130
    166  OG        22.4250   -9.9450   -8.7390 O.3   272  SER272     -0.2179
    167  N         24.8920   -8.1330   -8.1790 N.am  273  ASP273     -0.1971
    168  CA        25.3430   -7.3070   -7.0430 C.3   273  ASP273      0.1709
    169  C         26.1810   -6.0960   -7.5040 C.2   273  ASP273      0.2293
    170  O         26.3580   -5.1430   -6.7540 O.2   273  ASP273     -0.2864
    171  CB        26.2080   -8.1440   -6.0770 C.3   273  ASP273      0.1436
    172  CG        25.4610   -9.3130   -5.4580 C.2   273  ASP273      0.3671
    173  OD1       26.1110  -10.3630   -5.2380 O.co2 273  ASP273     -0.2456
    174  OD2       24.2470   -9.1800   -5.1730 O.co2 273  ASP273     -0.2456
@<TRIPOS>BOND
     1    79    80    2
     2    79    78    1
     3    71    72    2
     4    71    70    1
     5    69    70    1
     6    77    78    1
     7   128   127    1
     8    70    73    1
     9    78    81    1
    10    81    82    1
    11   144   142    1
    12   139   138    1
    13   139   140    2
    14    73    74    1
    15   127   125   ar
    16   127   126   ar
    17    83    82    1
    18   138   141    1
    19   138   137    1
    20    82    84    1
    21   141   142    1
    22   125   123   ar
    23   142   143    1
    24   126   124   ar
    25    74    75    1
    26    74    76    1
    27   123   122   ar
    28   124   122   ar
    29   122   121    1
    30   120   119    2
    31   132   131    2
    32   151   150    1
    33   119   118    1
    34   119   129   am
    35     5     2    1
    36     5     6    1
    37   121   118    1
    38     2     1    1
    39     2     3    1
    40     7     1    1
    41     7     6    1
    42   118   117    1
    43   131   130    1
    44   130   129    1
    45   130   133    1
    46    91    85    1
    47    91    90    1
    48   152   150    1
    49    24    22    1
    50    85    86    1
    51   150   149    1
    52     4     3    2
    53     3     8   am
    54   134   133    1
    55   134   136    1
    56    17    18    1
    57   149   146    1
    58   135   133    1
    59   145   146    1
    60    90    89    1
    61   146   147    1
    62    86    87    1
    63    86    89    1
    64    22    23    1
    65    22    21    1
    66    88    87    2
    67    18    21    1
    68    18    19    1
    69     8     9    1
    70    19    20    2
    71   147   148    2
    72   147   153   am
    73    10     9    1
    74    10    11    2
    75     9    12    1
    76    16    14   ar
    77   153   154    1
    78    99    97    1
    79    14    13    1
    80    14    15   ar
    81    12    13    1
    82   154   155    1
    83   154   157    1
    84    37    35   ar
    85    37    38   ar
    86    25    26    1
    87    97    96    1
    88    97    98    1
    89    35    32   ar
    90   116   114    1
    91   156   155    2
    92   155   161   am
    93    96    93    1
    94   157   158    1
    95    60    59    1
    96   161   162    1
    97    59    57   ar
    98    59    58   ar
    99    38    36   ar
   100   162   165    1
   101   162   163    1
   102    57    55   ar
   103    29    26    1
   104    29    30    1
   105    26    27    1
   106    58    56   ar
   107   165   166    1
   108    32    30   ar
   109    32    34   ar
   110    55    54   ar
   111   114   113    1
   112   115   113    1
   113    56    54   ar
   114    54    53    1
   115    93    94    1
   116    93    92    1
   117    30    31   ar
   118   158   159   ar
   119   158   160   ar
   120    94    95    2
   121   163   164    2
   122   163   167   am
   123    28    27    2
   124    53    50    1
   125    36    34   ar
   126   113   110    1
   127    64    63    2
   128    34    33   ar
   129   167   168    1
   130    67    66    2
   131    31    33   ar
   132    63    62    1
   133    50    51    1
   134    50    49    1
   135   169   168    1
   136   169   170    2
   137   110   109    1
   138   110   111    1
   139    42    41    2
   140    61    51   am
   141    61    62    1
   142    66    68   am
   143    66    65    1
   144   168   171    1
   145    51    52    2
   146   109   102   am
   147    49    41   am
   148   111   112    2
   149    62    65    1
   150    41    40    1
   151   107   108    1
   152   107   106    1
   153   171   172    1
   154   102   103    2
   155   102   101    1
   156    39    40    1
   157   100   101    1
   158   104   101    1
   159   104   105    1
   160    40    43    1
   161   172   173   ar
   162   172   174   ar
   163   106   105    1
   164    43    44    1
   165    46    44   ar
   166    46    48   ar
   167    44    45   ar
   168    48    47   ar
   169    45    47   ar
