@<TRIPOS>MOLECULE
tmp/3hv7A00.pdb
 187 175 0 0 0
SMALL
GASTEIGER

@<TRIPOS>ATOM
      1  N         -8.4760   -4.9840  -23.3140 N.3    31  VAL31      -0.1245
      2  CA        -8.2250   -3.5750  -23.0540 C.3    31  VAL31       0.1561
      3  C         -8.8990   -2.7740  -24.1340 C.2    31  VAL31       0.2260
      4  O         -8.8730   -3.1640  -25.2910 O.2    31  VAL31      -0.2867
      5  CB        -6.7090   -3.2470  -22.9710 C.3    31  VAL31       0.0252
      6  CG1       -6.4640   -1.7770  -22.5970 C.3    31  VAL31       0.0019
      7  CG2       -6.0370   -4.1400  -21.9810 C.3    31  VAL31       0.0019
      8  N         -7.7190    4.0670  -20.8650 N.3    44  ALA44      -0.1245
      9  CA        -7.6830    2.6430  -21.1250 C.3    44  ALA44       0.1562
     10  C         -8.4280    1.9300  -19.9850 C.2    44  ALA44       0.2260
     11  O         -8.3220    2.2870  -18.8000 O.2    44  ALA44      -0.2867
     12  CB        -6.2310    2.1590  -21.2390 C.3    44  ALA44       0.0290
     13  N         -9.2590   -1.9550  -18.7200 N.3    46  LYS46      -0.1245
     14  CA        -8.9020   -3.3580  -18.8200 C.3    46  LYS46       0.1561
     15  C         -9.9380   -4.2100  -18.1340 C.2    46  LYS46       0.2260
     16  O        -10.0880   -4.1390  -16.9130 O.2    46  LYS46      -0.2867
     17  CB        -7.5350   -3.6400  -18.1700 C.3    46  LYS46       0.0271
     18  CG        -6.9140   -4.9690  -18.5580 C.3    46  LYS46       0.0035
     19  CD        -5.9670   -5.4550  -17.4880 C.3    46  LYS46       0.0206
     20  CE        -5.2340   -6.6860  -17.9550 C.3    46  LYS46       0.1093
     21  NZ        -4.7990   -7.5580  -16.7820 N.3    46  LYS46      -0.1314
     22  N         -4.1510  -13.5990   -8.5250 N.3    60  ARG60      -0.1245
     23  CA        -3.5610  -12.7250   -9.5390 C.3    60  ARG60       0.1563
     24  C         -4.4190  -11.4770   -9.7530 C.2    60  ARG60       0.2260
     25  O         -3.8940  -10.3890  -10.0440 O.2    60  ARG60      -0.2867
     26  CB        -3.5140  -13.5110  -10.8340 C.3    60  ARG60       0.0307
     27  CG        -2.8560  -12.8670  -12.0370 C.3    60  ARG60       0.0489
     28  CD        -2.8920  -13.9030  -13.2110 C.3    60  ARG60       0.2205
     29  NE        -1.9650  -15.0400  -13.0190 N.pl3  60  ARG60      -0.0865
     30  CZ        -2.0420  -16.2300  -13.6360 C.cat  60  ARG60       0.5346
     31  NH1       -3.0420  -16.5130  -14.4780 N.pl3  60  ARG60       0.1354
     32  NH2       -1.1150  -17.1520  -13.3930 N.pl3  60  ARG60       0.1354
     33  N         -3.7640   -9.4770   -6.6850 N.3    63  ARG63      -0.1231
     34  CA        -2.4200   -8.9760   -6.8010 C.3    63  ARG63       0.1694
     35  C         -2.3350   -7.7050   -7.6300 C.2    63  ARG63       0.2591
     36  O         -1.6160   -6.7760   -7.2820 O.2    63  ARG63      -0.2718
     37  CB        -1.5150  -10.0460   -7.4290 C.3    63  ARG63       0.0321
     38  CG        -0.1110   -9.5520   -7.8190 C.3    63  ARG63       0.0489
     39  CD         0.7610  -10.6480   -8.4270 C.3    63  ARG63       0.2205
     40  NE         0.8860  -11.8150   -7.5430 N.pl3  63  ARG63      -0.0865
     41  CZ         0.5740  -13.0770   -7.8680 C.cat  63  ARG63       0.5346
     42  NH1        0.1190  -13.3780   -9.0850 N.pl3  63  ARG63       0.1354
     43  NH2        0.7650  -14.0500   -6.9720 N.pl3  63  ARG63       0.1354
     44  N         -3.0450   -7.6720   -8.7370 N.am   64  GLU64      -0.1979
     45  CA        -2.9270   -6.5460   -9.6520 C.3    64  GLU64       0.1602
     46  C         -3.7530   -5.3870   -9.1430 C.2    64  GLU64       0.2287
     47  O         -3.3200   -4.2580   -9.2120 O.2    64  GLU64      -0.2864
     48  CB        -3.3400   -6.9320  -11.0860 C.3    64  GLU64       0.0415
     49  CG        -3.2680   -5.7720  -12.0730 C.3    64  GLU64       0.1163
     50  CD        -3.5950   -6.1790  -13.4930 C.2    64  GLU64       0.3649
     51  OE1       -3.0970   -5.4940  -14.4020 O.co2  64  GLU64      -0.2457
     52  OE2       -4.3320   -7.1830  -13.7150 O.co2  64  GLU64      -0.2457
     53  N         -1.7650   -3.8230   -6.1090 N.3    67  LEU67      -0.1231
     54  CA        -0.6060   -3.1820   -6.6370 C.3    67  LEU67       0.1693
     55  C         -0.9240   -1.8800   -7.3790 C.2    67  LEU67       0.2591
     56  O         -0.3300   -0.8370   -7.0770 O.2    67  LEU67      -0.2718
     57  CB         0.0870   -4.1690   -7.5750 C.3    67  LEU67       0.0284
     58  CG         1.5610   -4.0440   -7.9150 C.3    67  LEU67       0.0019
     59  CD1        2.3610   -3.2290   -6.8310 C.3    67  LEU67       0.0001
     60  CD2        2.1800   -5.4760   -8.1490 C.3    67  LEU67       0.0001
     61  N         -1.8400   -1.9290   -8.3450 N.am   68  LEU68      -0.1980
     62  CA        -2.2100   -0.7310   -9.1190 C.3    68  LEU68       0.1596
     63  C         -2.7970    0.3740   -8.2190 C.2    68  LEU68       0.2287
     64  O         -2.6210    1.5620   -8.4850 O.2    68  LEU68      -0.2864
     65  CB        -3.1500   -1.0860  -10.2760 C.3    68  LEU68       0.0297
     66  CG        -2.5760   -1.9240  -11.4350 C.3    68  LEU68       0.0022
     67  CD1       -3.6200   -2.1820  -12.4300 C.3    68  LEU68       0.0001
     68  CD2       -1.4570   -1.2500  -12.1320 C.3    68  LEU68       0.0001
     69  N          0.2240    2.2560   -6.7520 N.3    71  MET71      -0.1245
     70  CA         1.0860    3.0140   -7.6830 C.3    71  MET71       0.1570
     71  C          0.6340    4.4390   -7.9150 C.2    71  MET71       0.2261
     72  O         -0.4130    4.6930   -8.5440 O.2    71  MET71      -0.2867
     73  CB         1.2500    2.2980   -9.0180 C.3    71  MET71       0.0387
     74  CG         1.8580    0.9200   -8.9190 C.3    71  MET71       0.0595
     75  SD         3.5960    0.7730   -8.3860 S.3    71  MET71      -0.1393
     76  CE         3.5490    0.5520   -6.6600 C.3    71  MET71       0.0692
     77  N          4.8660    5.5130  -13.7670 N.3    76  VAL76      -0.1231
     78  CA         4.2490    4.2120  -13.5270 C.3    76  VAL76       0.1692
     79  C          2.7090    4.3270  -13.6880 C.2    76  VAL76       0.2591
     80  O          2.0840    5.2950  -13.2390 O.2    76  VAL76      -0.2718
     81  CB         4.5890    3.6260  -12.0950 C.3    76  VAL76       0.0266
     82  CG1        4.1470    2.1760  -11.9610 C.3    76  VAL76       0.0020
     83  CG2        6.0750    3.7530  -11.7610 C.3    76  VAL76       0.0020
     84  N          2.1160    3.3360  -14.3710 N.am   77  ILE77      -0.1980
     85  CA         0.6730    3.2660  -14.5440 C.3    77  ILE77       0.1595
     86  C         -0.0390    3.3680  -13.1950 C.2    77  ILE77       0.2287
     87  O          0.3550    2.7100  -12.1890 O.2    77  ILE77      -0.2864
     88  CB         0.2500    1.9280  -15.2890 C.3    77  ILE77       0.0276
     89  CG1       -1.2270    1.9580  -15.7030 C.3    77  ILE77       0.0022
     90  CG2        0.6180    0.6830  -14.4330 C.3    77  ILE77       0.0022
     91  CD1       -1.6650    0.8020  -16.5050 C.3    77  ILE77       0.0001
     92  N         -4.1960    4.0910  -11.1910 N.3    79  LEU79      -0.1245
     93  CA        -5.6050    3.7600  -11.3630 C.3    79  LEU79       0.1561
     94  C         -6.5140    4.9750  -11.2680 C.2    79  LEU79       0.2260
     95  O         -6.4880    5.7230  -10.2570 O.2    79  LEU79      -0.2867
     96  CB        -6.0580    2.7690  -10.2670 C.3    79  LEU79       0.0270
     97  CG        -5.9570    1.3070  -10.5650 C.3    79  LEU79       0.0019
     98  CD1       -6.6930    0.6270   -9.4410 C.3    79  LEU79       0.0001
     99  CD2       -6.5270    0.9380  -11.9410 C.3    79  LEU79       0.0001
    100  N        -10.5350   -2.1930  -14.6330 N.3    97  LEU97      -0.1245
    101  CA        -9.5510   -1.2510  -14.1160 C.3    97  LEU97       0.1561
    102  C         -9.4310   -0.1100  -15.1170 C.2    97  LEU97       0.2260
    103  O         -9.3770   -0.3820  -16.3170 O.2    97  LEU97      -0.2867
    104  CB        -8.2030   -1.9690  -14.0170 C.3    97  LEU97       0.0270
    105  CG        -8.0850   -3.2910  -13.2640 C.3    97  LEU97       0.0019
    106  CD1       -6.6810   -3.7800  -13.4040 C.3    97  LEU97       0.0001
    107  CD2       -8.3960   -3.0800  -11.7870 C.3    97  LEU97       0.0001
    108  N         -7.3030    3.4430  -16.4530 N.3    99  THR99      -0.1218
    109  CA        -6.1160    4.2950  -16.3970 C.3    99  THR99       0.1862
    110  C         -6.0450    5.3720  -17.5330 C.2    99  THR99       0.2287
    111  O         -6.6280    5.1760  -18.5980 O.2    99  THR99      -0.2866
    112  CB        -4.8150    3.4420  -16.3220 C.3    99  THR99       0.1770
    113  OG1       -3.7050    4.2860  -16.0140 O.3    99  THR99      -0.2211
    114  CG2       -4.5430    2.7180  -17.6420 C.3    99  THR99       0.0375
    115  N          9.2860    2.0480   -7.9260 N.3   130  ILE130     -0.1245
    116  CA         8.8350    0.6460   -7.7980 C.3   130  ILE130      0.1561
    117  C          9.7830   -0.1810   -6.9160 C.2   130  ILE130      0.2260
    118  O          9.3440   -0.9010   -6.0180 O.2   130  ILE130     -0.2867
    119  CB         8.6770    0.0280   -9.2010 C.3   130  ILE130      0.0252
    120  CG1        7.4390    0.6220   -9.9310 C.3   130  ILE130      0.0019
    121  CG2        8.7140   -1.5140   -9.1730 C.3   130  ILE130      0.0019
    122  CD1        7.4970    0.4180  -11.5150 C.3   130  ILE130      0.0001
    123  N          9.1990   -4.0480   -5.1740 N.3   135  ILE135     -0.1231
    124  CA         8.5040   -4.7090   -6.2540 C.3   135  ILE135      0.1692
    125  C          9.5720   -4.8240   -7.2980 C.2   135  ILE135      0.2592
    126  O         10.3760   -3.9070   -7.4600 O.2   135  ILE135     -0.2718
    127  CB         7.2660   -3.8680   -6.7390 C.3   135  ILE135      0.0266
    128  CG1        6.2130   -3.7530   -5.6210 C.3   135  ILE135      0.0019
    129  CG2        6.6490   -4.4350   -7.9940 C.3   135  ILE135      0.0020
    130  CD1        5.5680   -2.3640   -5.5690 C.3   135  ILE135      0.0001
    131  N          9.6310   -5.9890   -7.9400 N.am  136  ILE136     -0.1966
    132  CA        10.5310   -6.2220   -9.0520 C.3   136  ILE136      0.1727
    133  C          9.5780   -6.3230  -10.2400 C.2   136  ILE136      0.2616
    134  O          8.5060   -6.8900  -10.1220 O.2   136  ILE136     -0.2715
    135  CB        11.3210   -7.5250   -8.8990 C.3   136  ILE136      0.0290
    136  CG1       12.0490   -7.5720   -7.5350 C.3   136  ILE136      0.0022
    137  CG2       12.2720   -7.6400  -10.0390 C.3   136  ILE136      0.0023
    138  CD1       12.5670   -8.9900   -7.0790 C.3   136  ILE136      0.0001
    139  N          9.9350   -5.7440  -11.3790 N.am  137  HIS137     -0.1973
    140  CA         8.9850   -5.7480  -12.4800 C.3   137  HIS137      0.1656
    141  C          9.0110   -7.0990  -13.1660 C.2   137  HIS137      0.2291
    142  O          7.9640   -7.7280  -13.3790 O.2   137  HIS137     -0.2864
    143  CB         9.2580   -4.6110  -13.4570 C.3   137  HIS137      0.0771
    144  CG         8.3420   -4.6150  -14.6280 C.ar  137  HIS137      0.0820
    145  ND1        7.4020   -3.6280  -14.8410 N.ar  137  HIS137     -0.2267
    146  CD2        8.1900   -5.5120  -15.6330 C.ar  137  HIS137      0.1154
    147  CE1        6.7220   -3.9070  -15.9440 C.ar  137  HIS137      0.1986
    148  NE2        7.1780   -5.0500  -16.4360 N.ar  137  HIS137     -0.2212
    149  N          5.6120    3.1570  -17.0770 N.3   155  ILE155     -0.1231
    150  CA         5.8310    1.7190  -16.9040 C.3   155  ILE155      0.1692
    151  C          4.5270    0.9570  -16.5930 C.2   155  ILE155      0.2592
    152  O          3.8340    1.2570  -15.6340 O.2   155  ILE155     -0.2718
    153  CB         6.8920    1.3930  -15.7590 C.3   155  ILE155      0.0266
    154  CG1        8.2840    1.9960  -16.0550 C.3   155  ILE155      0.0019
    155  CG2        6.9640   -0.1550  -15.4780 C.3   155  ILE155      0.0020
    156  CD1        9.2000    1.9250  -14.8980 C.3   155  ILE155      0.0001
    157  N          4.2220   -0.0530  -17.3950 N.am  156  LEU156     -0.1966
    158  CA         3.0770   -0.9350  -17.1450 C.3   156  LEU156      0.1728
    159  C          3.4170   -2.4390  -17.3490 C.2   156  LEU156      0.2616
    160  O          4.5840   -2.8130  -17.5010 O.2   156  LEU156     -0.2715
    161  CB         1.8870   -0.4910  -18.0090 C.3   156  LEU156      0.0311
    162  CG         2.0440   -0.2210  -19.5090 C.3   156  LEU156      0.0022
    163  CD1        2.1540   -1.5000  -20.2600 C.3   156  LEU156      0.0001
    164  CD2        0.8010    0.4770  -19.9800 C.3   156  LEU156      0.0001
    165  N          2.4130   -3.3020  -17.2900 N.am  157  ASP157     -0.1957
    166  CA         2.6100   -4.7130  -17.5390 C.3   157  ASP157      0.1840
    167  C          1.3530   -5.3230  -18.1570 C.2   157  ASP157      0.2622
    168  O          0.3650   -5.5940  -17.4520 O.2   157  ASP157     -0.2715
    169  CB         3.0100   -5.4330  -16.2530 C.3   157  ASP157      0.1450
    170  CG         3.5440   -6.8620  -16.4930 C.2   157  ASP157      0.3671
    171  OD1        3.4150   -7.4120  -17.6050 O.co2 157  ASP157     -0.2456
    172  OD2        4.0770   -7.4570  -15.5390 O.co2 157  ASP157     -0.2456
    173  N          1.3770   -5.5260  -19.4800 N.am  158  PHE158     -0.1960
    174  CA         0.2840   -6.2580  -20.1420 C.3   158  PHE158      0.1771
    175  C          0.1450   -7.7130  -19.6630 C.2   158  PHE158      0.2620
    176  O         -0.9850   -8.1790  -19.4150 O.2   158  PHE158     -0.2715
    177  CB         0.3790   -6.2240  -21.6690 C.3   158  PHE158      0.0574
    178  CG        -0.1130   -4.9450  -22.2800 C.ar  158  PHE158     -0.0200
    179  CD1        0.7790   -3.9950  -22.7420 C.ar  158  PHE158     -0.0042
    180  CD2       -1.4730   -4.6880  -22.3960 C.ar  158  PHE158     -0.0042
    181  CE1        0.3120   -2.7900  -23.3110 C.ar  158  PHE158     -0.0003
    182  CE2       -1.9400   -3.5070  -22.9630 C.ar  158  PHE158     -0.0003
    183  CZ        -1.0530   -2.5570  -23.4190 C.ar  158  PHE158     -0.0000
    184  N          1.2710   -8.4150  -19.4860 N.am  159  GLY159     -0.1954
    185  CA         1.2170   -9.8790  -19.3960 C.3   159  GLY159      0.1869
    186  C          0.4270  -10.3250  -20.6300 C.2   159  GLY159      0.2309
    187  O         -0.8140  -10.4230  -20.5960 O.2   159  GLY159     -0.2863
@<TRIPOS>BOND
     1     4     3    2
     2     3     2    1
     3   183   181   ar
     4   183   182   ar
     5     1     2    1
     6   181   179   ar
     7     2     5    1
     8     5     6    1
     9     5     7    1
    10   182   180   ar
    11   179   178   ar
    12   180   178   ar
    13   178   177    1
    14   177   174    1
    15    12     9    1
    16     9     8    1
    17     9    10    1
    18   186   187    2
    19   186   185    1
    20   163   162    1
    21   174   175    1
    22   174   173    1
    23    10    11    2
    24   164   162    1
    25   175   184   am
    26   175   176    2
    27   162   161    1
    28   184   185    1
    29   173   167   am
    30    14    13    1
    31    14    17    1
    32    14    15    1
    33   111   110    2
    34    18    17    1
    35    18    19    1
    36   167   166    1
    37   167   168    2
    38    15    16    2
    39   161   158    1
    40    20    19    1
    41    20    21    1
    42   114   112    1
    43   171   170   ar
    44   166   165    1
    45   166   169    1
    46   110   109    1
    47   160   159    2
    48   157   158    1
    49   157   151   am
    50   159   165   am
    51   159   158    1
    52   149   150    1
    53   150   151    1
    54   150   153    1
    55   151   152    2
    56    91    89    1
    57   170   169    1
    58   170   172   ar
    59   108   109    1
    60   148   147   ar
    61   148   146   ar
    62   109   112    1
    63   112   113    1
    64   103   102    2
    65   154   153    1
    66   154   156    1
    67   147   145   ar
    68   153   155    1
    69    89    88    1
    70   146   144   ar
    71    88    85    1
    72    88    90    1
    73   102   101    1
    74   145   144   ar
    75   100   101    1
    76   144   143    1
    77    85    84    1
    78    85    86    1
    79    31    30    1
    80    51    50   ar
    81    84    79   am
    82   101   104    1
    83   104   105    1
    84    77    78    1
    85    52    50   ar
    86    79    78    1
    87    79    80    2
    88    30    32    1
    89    30    29    2
    90    78    81    1
    91    50    49    1
    92   143   140    1
    93   106   105    1
    94   142   141    2
    95   105   107    1
    96    28    29    1
    97    28    27    1
    98    86    87    2
    99   141   140    1
   100   140   139    1
   101    67    66    1
   102    68    66    1
   103    81    82    1
   104    81    83    1
   105    49    48    1
   106    27    26    1
   107    99    97    1
   108   122   120    1
   109    66    65    1
   110   139   133   am
   111    93    94    1
   112    93    92    1
   113    93    96    1
   114    94    95    2
   115    48    45    1
   116    26    23    1
   117    97    96    1
   118    97    98    1
   119    65    62    1
   120   133   134    2
   121   133   132    1
   122    25    24    2
   123   137   135    1
   124   120   119    1
   125    24    23    1
   126    45    46    1
   127    45    44    1
   128    23    22    1
   129    47    46    2
   130   119   121    1
   131   119   116    1
   132    62    61    1
   133    62    63    1
   134    42    41    1
   135   132   135    1
   136   132   131    1
   137    73    74    1
   138    73    70    1
   139    74    75    1
   140   135   136    1
   141    44    35   am
   142    72    71    2
   143    64    63    2
   144    39    38    1
   145    39    40    1
   146    75    76    1
   147    61    55   am
   148    60    58    1
   149   129   127    1
   150   131   125   am
   151   115   116    1
   152    58    57    1
   153    58    59    1
   154    71    70    1
   155    41    40    2
   156    41    43    1
   157    38    37    1
   158   116   117    1
   159    70    69    1
   160    35    36    2
   161    35    34    1
   162    57    54    1
   163   136   138    1
   164   126   125    2
   165    37    34    1
   166    55    56    2
   167    55    54    1
   168   125   124    1
   169   117   118    2
   170    34    33    1
   171   127   124    1
   172   127   128    1
   173    54    53    1
   174   124   123    1
   175   128   130    1
