@<TRIPOS>MOLECULE
tmp/3hv8A00.pdb
 209 203 0 0 0
SMALL
GASTEIGER

@<TRIPOS>ATOM
      1  N        -17.8070    1.3300  -10.3780 N.3    21  GLN21      -0.1245
      2  CA       -17.9230    2.5330  -11.1910 C.3    21  GLN21       0.1566
      3  C        -18.3310    3.7030  -10.3170 C.2    21  GLN21       0.2260
      4  O        -19.4020    3.6870   -9.7110 O.2    21  GLN21      -0.2867
      5  CB       -18.9160    2.3410  -12.3430 C.3    21  GLN21       0.0367
      6  CG       -18.9790    3.5740  -13.2450 C.3    21  GLN21       0.0905
      7  CD       -19.8630    3.3990  -14.4510 C.2    21  GLN21       0.2608
      8  OE1      -20.7520    2.5420  -14.4830 O.2    21  GLN21      -0.2717
      9  NE2      -19.6230    4.2170  -15.4740 N.am   21  GLN21      -0.0878
     10  N        -20.7350    2.2010   -7.6650 N.3    35  GLU35      -0.1231
     11  CA       -21.6280    1.1020   -8.0040 C.3    35  GLU35       0.1699
     12  C        -20.8240   -0.1560   -8.2440 C.2    35  GLU35       0.2592
     13  O        -19.7890   -0.1300   -8.9220 O.2    35  GLU35      -0.2718
     14  CB       -22.4360    1.4380   -9.2590 C.3    35  GLU35       0.0402
     15  CG       -23.4180    0.3500   -9.6440 C.3    35  GLU35       0.1161
     16  CD       -24.1740    0.6760  -10.9090 C.2    35  GLU35       0.3649
     17  OE1      -23.7590    1.5960  -11.6560 O.co2  35  GLU35      -0.2457
     18  OE2      -25.2160    0.0290  -11.1490 O.co2  35  GLU35      -0.2457
     19  N        -21.3000   -1.2540   -7.6750 N.am   36  VAL36      -0.1966
     20  CA       -20.7250   -2.5770   -7.8840 C.3    36  VAL36       0.1727
     21  C        -21.3870   -3.2520   -9.1000 C.2    36  VAL36       0.2616
     22  O        -22.6150   -3.2770   -9.2220 O.2    36  VAL36      -0.2715
     23  CB       -20.9310   -3.4500   -6.6360 C.3    36  VAL36       0.0290
     24  CG1      -20.4160   -4.8600   -6.8640 C.3    36  VAL36       0.0023
     25  CG2      -20.2380   -2.8030   -5.4150 C.3    36  VAL36       0.0023
     26  N        -20.5640   -3.7630  -10.0080 N.am   37  LEU37      -0.1963
     27  CA       -21.0400   -4.4630  -11.2000 C.3    37  LEU37       0.1728
     28  C        -20.3610   -5.8140  -11.3020 C.2    37  LEU37       0.2616
     29  O        -19.1450   -5.9300  -11.0930 O.2    37  LEU37      -0.2715
     30  CB       -20.7710   -3.6400  -12.4590 C.3    37  LEU37       0.0311
     31  CG       -21.4890   -2.2870  -12.5020 C.3    37  LEU37       0.0022
     32  CD1      -20.8890   -1.3680  -13.5530 C.3    37  LEU37       0.0001
     33  CD2      -22.9860   -2.4510  -12.7230 C.3    37  LEU37       0.0001
     34  N        -21.1390   -6.8370  -11.6200 N.am   38  LEU38      -0.1963
     35  CA       -20.6610   -8.2230  -11.5740 C.3    38  LEU38       0.1728
     36  C        -20.1770   -8.7570  -12.9200 C.2    38  LEU38       0.2616
     37  O        -20.8100   -8.5300  -13.9400 O.2    38  LEU38      -0.2715
     38  CB       -21.7970   -9.1260  -11.1040 C.3    38  LEU38       0.0311
     39  CG       -21.4360  -10.6080  -10.9930 C.3    38  LEU38       0.0022
     40  CD1      -20.3690  -10.8170   -9.9270 C.3    38  LEU38       0.0001
     41  CD2      -22.6760  -11.4100  -10.6740 C.3    38  LEU38       0.0001
     42  N        -19.0590   -9.4720  -12.9230 N.am   39  ARG39      -0.1977
     43  CA       -18.6480  -10.2090  -14.1100 C.3    39  ARG39       0.1597
     44  C        -18.4080  -11.6570  -13.7180 C.2    39  ARG39       0.2287
     45  O        -17.8420  -11.9370  -12.6650 O.2    39  ARG39      -0.2864
     46  CB       -17.3600   -9.6380  -14.7040 C.3    39  ARG39       0.0334
     47  CG       -17.4330   -8.1740  -15.0960 C.3    39  ARG39       0.0492
     48  CD       -18.3830   -7.9890  -16.2790 C.3    39  ARG39       0.2205
     49  NE       -18.4650   -6.6000  -16.7240 N.pl3  39  ARG39      -0.0865
     50  CZ       -19.4390   -5.7580  -16.3820 C.cat  39  ARG39       0.5346
     51  NH1      -20.4070   -6.1630  -15.5610 N.pl3  39  ARG39       0.1354
     52  NH2      -19.4280   -4.5090  -16.8430 N.pl3  39  ARG39       0.1354
     53  N        -20.2270  -10.6460  -19.1980 N.3    49  PRO49      -0.2103
     54  CA       -21.2090   -9.6860  -18.6800 C.3    49  PRO49       0.1489
     55  C        -22.5070  -10.3330  -18.2300 C.2    49  PRO49       0.2418
     56  O        -22.8580  -11.4200  -18.7090 O.2    49  PRO49      -0.2734
     57  CB       -21.4890   -8.7890  -19.8880 C.3    49  PRO49       0.0282
     58  CG       -21.2140   -9.6350  -21.0670 C.3    49  PRO49       0.0208
     59  CD       -20.1640  -10.6450  -20.6710 C.3    49  PRO49       0.0893
     60  N        -23.2270   -9.6630  -17.3160 N.am   50  PRO50      -0.2718
     61  CA       -24.4930  -10.1480  -16.7450 C.3    50  PRO50       0.1535
     62  C        -25.5090  -10.5800  -17.7930 C.2    50  PRO50       0.2598
     63  O        -26.2690  -11.5280  -17.5600 O.2    50  PRO50      -0.2715
     64  CB       -25.0230   -8.9300  -15.9920 C.3    50  PRO50       0.0310
     65  CG       -23.7800   -8.1870  -15.5940 C.3    50  PRO50       0.0237
     66  CD       -22.7780   -8.4070  -16.6800 C.3    50  PRO50       0.0939
     67  N        -25.5140   -9.8980  -18.9290 N.am   51  ALA51      -0.1978
     68  CA       -26.4310  -10.2290  -20.0140 C.3    51  ALA51       0.1597
     69  C        -26.3840  -11.7100  -20.3920 C.2    51  ALA51       0.2287
     70  O        -27.4070  -12.2840  -20.7620 O.2    51  ALA51      -0.2864
     71  CB       -26.1020   -9.3900  -21.2270 C.3    51  ALA51       0.0319
     72  N        -27.1930  -13.8710  -16.0590 N.3    54  LEU54      -0.1245
     73  CA       -28.1350  -13.5970  -14.9660 C.3    54  LEU54       0.1561
     74  C        -29.5270  -14.1620  -15.2060 C.2    54  LEU54       0.2260
     75  O        -30.1650  -14.6930  -14.2770 O.2    54  LEU54      -0.2867
     76  CB       -28.2280  -12.0950  -14.6430 C.3    54  LEU54       0.0270
     77  CG       -27.0790  -11.5060  -13.8320 C.3    54  LEU54       0.0019
     78  CD1      -27.3920  -10.0390  -13.5420 C.3    54  LEU54       0.0001
     79  CD2      -26.8940  -12.2860  -12.5370 C.3    54  LEU54       0.0001
     80  N        -26.0980  -15.9330   -6.2350 N.3    66  ILE66      -0.1231
     81  CA       -25.2440  -14.9360   -6.8620 C.3    66  ILE66       0.1692
     82  C        -25.2980  -13.6100   -6.1040 C.2    66  ILE66       0.2592
     83  O        -24.2600  -13.0020   -5.8180 O.2    66  ILE66      -0.2718
     84  CB       -25.6250  -14.7290   -8.3510 C.3    66  ILE66       0.0266
     85  CG1      -25.2090  -15.9590   -9.1670 C.3    66  ILE66       0.0019
     86  CG2      -25.0100  -13.4480   -8.8920 C.3    66  ILE66       0.0020
     87  CD1      -25.6660  -15.9200  -10.6230 C.3    66  ILE66       0.0001
     88  N        -26.5000  -13.1740   -5.7440 N.am   67  ASP67      -0.1974
     89  CA       -26.6270  -11.9390   -4.9790 C.3    67  ASP67       0.1709
     90  C        -25.9030  -12.0330   -3.6260 C.2    67  ASP67       0.2293
     91  O        -25.2470  -11.0810   -3.2150 O.2    67  ASP67      -0.2864
     92  CB       -28.1060  -11.5680   -4.7700 C.3    67  ASP67       0.1436
     93  CG       -28.7600  -10.9900   -6.0210 C.2    67  ASP67       0.3671
     94  OD1      -28.0470  -10.6160   -6.9850 O.co2  67  ASP67      -0.2456
     95  OD2      -30.0010  -10.9200   -6.0260 O.co2  67  ASP67      -0.2456
     96  N        -22.2240  -11.5270   -4.2030 N.3    70  VAL70      -0.1245
     97  CA       -21.9000  -10.1370   -4.4550 C.3    70  VAL70       0.1561
     98  C        -21.9340   -9.3280   -3.1740 C.2    70  VAL70       0.2260
     99  O        -21.0200   -8.5570   -2.9020 O.2    70  VAL70      -0.2867
    100  CB       -22.8690   -9.5220   -5.4840 C.3    70  VAL70       0.0252
    101  CG1      -22.6670   -8.0000   -5.5640 C.3    70  VAL70       0.0019
    102  CG2      -22.6910  -10.1840   -6.8700 C.3    70  VAL70       0.0019
    103  N        -26.6340   -4.1490   -6.6340 N.3    88  HIS88      -0.1226
    104  CA       -27.8550   -4.6200   -7.2690 C.3    88  HIS88       0.1752
    105  C        -28.4720   -5.8100   -6.5470 C.2    88  HIS88       0.2596
    106  O        -27.7540   -6.6670   -6.0010 O.2    88  HIS88      -0.2718
    107  CB       -27.5540   -5.0630   -8.7000 C.3    88  HIS88       0.0759
    108  CG       -27.2580   -3.9420   -9.6420 C.ar   88  HIS88       0.0818
    109  ND1      -28.2430   -3.1200  -10.1530 N.ar   88  HIS88      -0.2268
    110  CD2      -26.0950   -3.5180  -10.1860 C.ar   88  HIS88       0.1154
    111  CE1      -27.6930   -2.2410  -10.9710 C.ar   88  HIS88       0.1986
    112  NE2      -26.3900   -2.4570  -11.0050 N.ar   88  HIS88      -0.2212
    113  N        -29.8030   -5.8650   -6.5590 N.am   89  LEU89      -0.1966
    114  CA       -30.5410   -7.0560   -6.1460 C.3    89  LEU89       0.1728
    115  C        -31.3820   -7.5710   -7.3070 C.2    89  LEU89       0.2616
    116  O        -32.0960   -6.7940   -7.9660 O.2    89  LEU89      -0.2715
    117  CB       -31.4590   -6.7440   -4.9650 C.3    89  LEU89       0.0311
    118  CG       -30.7430   -6.3920   -3.6700 C.3    89  LEU89       0.0022
    119  CD1      -31.7940   -6.0620   -2.6030 C.3    89  LEU89       0.0001
    120  CD2      -29.7940   -7.5110   -3.1940 C.3    89  LEU89       0.0001
    121  N        -31.3360   -8.8730   -7.5540 N.am   90  SER90      -0.1950
    122  CA       -32.2460   -9.4780   -8.5260 C.3    90  SER90       0.1924
    123  C        -33.6560   -9.6030   -7.9450 C.2    90  SER90       0.2314
    124  O        -33.8560   -9.5040   -6.7310 O.2    90  SER90      -0.2863
    125  CB       -31.7550  -10.8750   -8.9300 C.3    90  SER90       0.2116
    126  OG       -31.9070  -11.7750   -7.8480 O.3    90  SER90      -0.2180
    127  N        -33.3860    1.9970   -9.6860 N.3   150  SER150     -0.1202
    128  CA       -32.6690    2.3190  -10.9090 C.3   150  SER150      0.2020
    129  C        -33.5670    2.1480  -12.1270 C.2   150  SER150      0.2618
    130  O        -34.6850    1.6250  -12.0250 O.2   150  SER150     -0.2717
    131  CB       -31.4350    1.4440  -11.0510 C.3   150  SER150      0.2103
    132  OG       -31.7870    0.0760  -11.1270 O.3   150  SER150     -0.2182
    133  N        -33.0800    2.5970  -13.2740 N.am  151  GLN151     -0.1979
    134  CA       -33.8530    2.5990  -14.5130 C.3   151  GLN151      0.1601
    135  C        -35.1890    3.3110  -14.3470 C.2   151  GLN151      0.2287
    136  O        -36.1740    2.9670  -14.9660 O.2   151  GLN151     -0.2864
    137  CB       -34.0090    1.1740  -15.0620 C.3   151  GLN151      0.0394
    138  CG       -32.6590    0.5630  -15.4660 C.3   151  GLN151      0.0908
    139  CD       -32.7110   -0.9390  -15.7240 C.2   151  GLN151      0.2608
    140  OE1      -33.7760   -1.5510  -15.7160 O.2   151  GLN151     -0.2717
    141  NE2      -31.5490   -1.5380  -15.9430 N.am  151  GLN151     -0.0878
    142  N        -32.2120    6.5510   -9.5530 N.3   171  LYS171     -0.1245
    143  CA       -31.2810    6.5870  -10.6630 C.3   171  LYS171      0.1561
    144  C        -32.1270    6.4700  -11.9050 C.2   171  LYS171      0.2260
    145  O        -32.7990    5.4580  -12.1270 O.2   171  LYS171     -0.2867
    146  CB       -30.2850    5.4410  -10.5520 C.3   171  LYS171      0.0271
    147  CG       -29.1850    5.4500  -11.6020 C.3   171  LYS171      0.0035
    148  CD       -28.1750    4.3570  -11.2860 C.3   171  LYS171      0.0206
    149  CE       -26.9450    4.5390  -12.1250 C.3   171  LYS171      0.1093
    150  NZ       -26.0040    3.4030  -11.9010 N.3   171  LYS171     -0.1314
    151  N        -27.2000    8.5460  -14.9760 N.3   206  PRO206     -0.2102
    152  CA       -26.0950    7.7770  -15.5310 C.3   206  PRO206      0.1504
    153  C        -25.9190    8.0010  -17.0350 C.2   206  PRO206      0.2575
    154  O        -26.5970    8.8440  -17.6360 O.2   206  PRO206     -0.2718
    155  CB       -26.5600    6.3400  -15.2790 C.3   206  PRO206      0.0282
    156  CG       -28.0340    6.4200  -15.5360 C.3   206  PRO206      0.0208
    157  CD       -28.4670    7.7920  -15.0210 C.3   206  PRO206      0.0893
    158  N        -25.0170    7.2200  -17.6190 N.am  207  PHE207     -0.1977
    159  CA       -24.7340    7.2490  -19.0640 C.3   207  PHE207      0.1639
    160  C        -24.1780    8.5930  -19.5420 C.2   207  PHE207      0.2290
    161  O        -24.3790    8.9870  -20.6930 O.2   207  PHE207     -0.2864
    162  CB       -25.9690    6.8370  -19.8800 C.3   207  PHE207      0.0560
    163  CG       -26.2080    5.3430  -19.9100 C.ar  207  PHE207     -0.0200
    164  CD1      -26.0990    4.6340  -21.0970 C.ar  207  PHE207     -0.0042
    165  CD2      -26.5260    4.6520  -18.7550 C.ar  207  PHE207     -0.0042
    166  CE1      -26.3110    3.2620  -21.1340 C.ar  207  PHE207     -0.0003
    167  CE2      -26.7410    3.2680  -18.7820 C.ar  207  PHE207     -0.0003
    168  CZ       -26.6300    2.5820  -19.9740 C.ar  207  PHE207     -0.0000
    169  N        -21.6460   10.5180  -21.1960 N.3   209  GLU209     -0.1245
    170  CA       -20.5310   10.2050  -22.0900 C.3   209  GLU209      0.1567
    171  C        -19.9560   11.4320  -22.7820 C.2   209  GLU209      0.2260
    172  O        -19.0840   11.2890  -23.6410 O.2   209  GLU209     -0.2867
    173  CB       -20.9550    9.1870  -23.1470 C.3   209  GLU209      0.0388
    174  CG       -21.5050    7.8830  -22.5410 C.3   209  GLU209      0.1160
    175  CD       -21.6000    6.7610  -23.5540 C.2   209  GLU209      0.3649
    176  OE1      -22.4930    5.9010  -23.4060 O.co2 209  GLU209     -0.2457
    177  OE2      -20.7870    6.7410  -24.5020 O.co2 209  GLU209     -0.2457
    178  N        -22.9960    9.7000  -13.3230 N.3   226  GLN226     -0.1231
    179  CA       -22.1760    8.5320  -13.5500 C.3   226  GLN226      0.1698
    180  C        -22.0750    8.3310  -15.0600 C.2   226  GLN226      0.2593
    181  O        -23.0040    8.6810  -15.8020 O.2   226  GLN226     -0.2718
    182  CB       -22.8440    7.3070  -12.9140 C.3   226  GLN226      0.0381
    183  CG       -21.9590    6.0810  -12.8490 C.3   226  GLN226      0.0905
    184  CD       -22.7600    4.8310  -12.5550 C.2   226  GLN226      0.2608
    185  OE1      -23.8010    4.5960  -13.1610 O.2   226  GLN226     -0.2717
    186  NE2      -22.2690    4.0230  -11.6370 N.am  226  GLN226     -0.0878
    187  N        -20.9580    7.7640  -15.5060 N.am  227  GLY227     -0.1942
    188  CA       -20.8190    7.4400  -16.9150 C.3   227  GLY227      0.2014
    189  C        -19.3880    7.2300  -17.3340 C.2   227  GLY227      0.2638
    190  O        -18.4560    7.5220  -16.5840 O.2   227  GLY227     -0.2714
    191  N        -19.2200    6.6880  -18.5350 N.am  228  TYR228     -0.1973
    192  CA       -17.8930    6.4960  -19.1030 C.3   228  TYR228      0.1639
    193  C        -17.0710    7.7910  -19.1270 C.2   228  TYR228      0.2290
    194  O        -15.8490    7.7520  -18.9950 O.2   228  TYR228     -0.2864
    195  CB       -17.9960    5.9180  -20.5230 C.3   228  TYR228      0.0560
    196  CG       -18.4980    4.4950  -20.6190 C.ar  228  TYR228     -0.0198
    197  CD1      -19.1670    4.0540  -21.7570 C.ar  228  TYR228     -0.0009
    198  CD2      -18.3020    3.5850  -19.5840 C.ar  228  TYR228     -0.0009
    199  CE1      -19.6310    2.7470  -21.8560 C.ar  228  TYR228      0.0417
    200  CE2      -18.7620    2.2800  -19.6790 C.ar  228  TYR228      0.0417
    201  CZ       -19.4200    1.8650  -20.8160 C.ar  228  TYR228      0.1957
    202  OH       -19.8800    0.5660  -20.9090 O.3   228  TYR228     -0.2866
    203  N        -16.4520    1.2480  -15.4120 N.3   233  PRO233     -0.2116
    204  CA       -16.2260    0.2370  -14.3720 C.3   233  PRO233      0.1372
    205  C        -14.7730   -0.2210  -14.3470 C.2   233  PRO233      0.2244
    206  O        -14.2010   -0.4050  -15.4210 O.2   233  PRO233     -0.2868
    207  CB       -17.1450   -0.9120  -14.8010 C.3   233  PRO233      0.0268
    208  CG       -18.2170   -0.2550  -15.6330 C.3   233  PRO233      0.0207
    209  CD       -17.5030    0.8430  -16.3650 C.3   233  PRO233      0.0892
@<TRIPOS>BOND
     1   177   175   ar
     2   172   171    2
     3   175   176   ar
     4   175   174    1
     5   173   174    1
     6   173   170    1
     7   171   170    1
     8   170   169    1
     9   199   197   ar
    10   199   201   ar
    11   197   196   ar
    12    71    68    1
    13   166   164   ar
    14   166   168   ar
    15   164   163   ar
    16    58    59    1
    17    58    57    1
    18   202   201    1
    19   201   200   ar
    20    70    69    2
    21   161   160    2
    22    59    53    1
    23   196   195    1
    24   196   198   ar
    25   195   192    1
    26    69    68    1
    27    68    67    1
    28   168   167   ar
    29   163   162    1
    30   163   165   ar
    31    57    54    1
    32   162   159    1
    33   200   198   ar
    34   160   159    1
    35    53    54    1
    36   193   192    1
    37   193   194    2
    38   192   191    1
    39   159   158    1
    40    67    62   am
    41   167   165   ar
    42    56    55    2
    43    54    55    1
    44   191   189   am
    45    55    60   am
    46    62    63    2
    47    62    61    1
    48   154   153    2
    49   158   153   am
    50   189   188    1
    51   189   190    2
    52    60    61    1
    53    60    66    1
    54   153   152    1
    55   188   187    1
    56    52    50    1
    57    61    64    1
    58    49    50    2
    59    49    48    1
    60    66    65    1
    61    50    51    1
    62   209   208    1
    63   209   203    1
    64    48    47    1
    65    72    73    1
    66    64    65    1
    67   141   139   am
    68   181   180    2
    69   139   140    2
    70   139   138    1
    71   208   207    1
    72   156   155    1
    73   156   157    1
    74   152   155    1
    75   152   151    1
    76   187   180   am
    77     9     7   am
    78   138   137    1
    79   206   205    2
    80   203   204    1
    81    74    73    1
    82    74    75    2
    83    47    46    1
    84   137   134    1
    85   180   179    1
    86   157   151    1
    87   136   135    2
    88    73    76    1
    89   207   204    1
    90    46    43    1
    91    76    77    1
    92   134   135    1
    93   134   133    1
    94     8     7    2
    95     7     6    1
    96   204   205    1
    97    43    44    1
    98    43    42    1
    99    37    36    2
   100    77    78    1
   101    77    79    1
   102    44    45    2
   103    32    31    1
   104   179   178    1
   105   179   182    1
   106   133   129   am
   107     6     5    1
   108   185   184    2
   109    42    36   am
   110    36    35    1
   111   182   183    1
   112   183   184    1
   113    33    31    1
   114   184   186   am
   115    31    30    1
   116    30    27    1
   117     5     2    1
   118   145   144    2
   119   129   130    2
   120   129   128    1
   121   149   150    1
   122   149   148    1
   123   144   143    1
   124    17    16   ar
   125    34    35    1
   126    34    28   am
   127   147   148    1
   128   147   146    1
   129    35    38    1
   130    28    27    1
   131    28    29    2
   132    27    26    1
   133     2     1    1
   134     2     3    1
   135    18    16   ar
   136   132   131    1
   137    38    39    1
   138   131   128    1
   139   112   111   ar
   140   112   110   ar
   141    39    41    1
   142    39    40    1
   143   111   109   ar
   144   128   127    1
   145    16    15    1
   146   143   146    1
   147   143   142    1
   148    87    85    1
   149     3     4    2
   150   110   108   ar
   151   109   108   ar
   152    26    21   am
   153    15    14    1
   154   108   107    1
   155    14    11    1
   156    22    21    2
   157    85    84    1
   158    21    20    1
   159   125   122    1
   160   125   126    1
   161    13    12    2
   162    86    84    1
   163   107   104    1
   164   122   123    1
   165   122   121    1
   166    84    81    1
   167    12    11    1
   168    12    19   am
   169    11    10    1
   170   116   115    2
   171   123   124    2
   172    20    19    1
   173    20    23    1
   174   121   115   am
   175   115   114    1
   176   104   103    1
   177   104   105    1
   178    94    93   ar
   179   102   100    1
   180    24    23    1
   181    81    80    1
   182    81    82    1
   183    23    25    1
   184   113   105   am
   185   113   114    1
   186   105   106    2
   187   114   117    1
   188    82    83    2
   189    82    88   am
   190    95    93   ar
   191    93    92    1
   192    88    89    1
   193   101   100    1
   194   100    97    1
   195    89    92    1
   196    89    90    1
   197   117   118    1
   198    97    96    1
   199    97    98    1
   200   118   120    1
   201   118   119    1
   202    90    91    2
   203    98    99    2
