@<TRIPOS>MOLECULE
tmp/3hvcA00.pdb
 140 130 0 0 0
SMALL
GASTEIGER

@<TRIPOS>ATOM
      1  N         -7.8280   36.1100   10.4610 N.3    26  VAL26      -0.1245
      2  CA        -6.4970   36.6560   10.2560 C.3    26  VAL26       0.1561
      3  C         -5.4660   35.5370   10.3790 C.2    26  VAL26       0.2260
      4  O         -4.3740   35.6250    9.8210 O.2    26  VAL26      -0.2867
      5  CB        -6.1920   37.7860   11.2740 C.3    26  VAL26       0.0252
      6  CG1       -6.5000   37.3250   12.6770 C.3    26  VAL26       0.0019
      7  CG2       -4.7420   38.2040   11.1670 C.3    26  VAL26       0.0019
      8  N         -4.4210   31.4990   12.7270 N.3    28  SER28      -0.1217
      9  CA        -4.7020   30.4760   13.7290 C.3    28  SER28       0.1889
     10  C         -3.8720   30.7090   14.9890 C.2    28  SER28       0.2288
     11  O         -3.2220   31.7720   15.0860 O.2    28  SER28      -0.2866
     12  CB        -4.3950   29.0850   13.1690 C.3    28  SER28       0.2089
     13  OG        -5.2410   28.7830   12.0750 O.3    28  SER28      -0.2183
     14  N         -8.0680   33.1330   15.2530 N.3    31  VAL31      -0.1245
     15  CA        -8.0430   34.5600   15.5380 C.3    31  VAL31       0.1561
     16  C         -8.7680   35.3720   14.4730 C.2    31  VAL31       0.2260
     17  O         -8.5810   35.1520   13.2730 O.2    31  VAL31      -0.2867
     18  CB        -6.5910   35.0930   15.6200 C.3    31  VAL31       0.0252
     19  CG1       -6.6080   36.5880   15.8450 C.3    31  VAL31       0.0019
     20  CG2       -5.8270   34.3960   16.7420 C.3    31  VAL31       0.0019
     21  N         -8.0650   41.9660   18.2860 N.3    44  ALA44      -0.1245
     22  CA        -7.8960   40.6200   17.7780 C.3    44  ALA44       0.1562
     23  C         -8.6100   39.6930   18.7640 C.2    44  ALA44       0.2260
     24  O         -8.3680   39.7480   19.9750 O.2    44  ALA44      -0.2867
     25  CB        -6.4110   40.2700   17.6900 C.3    44  ALA44       0.0290
     26  N         -9.3360   35.8200   19.8000 N.3    46  LYS46      -0.1245
     27  CA        -8.8900   34.4500   19.6580 C.3    46  LYS46       0.1561
     28  C         -9.8480   33.5050   20.3650 C.2    46  LYS46       0.2260
     29  O        -10.1950   33.7120   21.5340 O.2    46  LYS46      -0.2867
     30  CB        -7.4900   34.2900   20.2550 C.3    46  LYS46       0.0271
     31  CG        -7.0130   32.8480   20.3830 C.3    46  LYS46       0.0035
     32  CD        -5.6790   32.8080   21.1250 C.3    46  LYS46       0.0206
     33  CE        -5.1030   31.4140   21.2010 C.3    46  LYS46       0.1093
     34  NZ        -3.8030   31.4290   21.9310 N.3    46  LYS46      -0.1314
     35  N         -2.7920   29.6090   29.8570 N.3    64  GLU64      -0.1245
     36  CA        -2.7930   30.7550   28.9520 C.3    64  GLU64       0.1567
     37  C         -3.5890   31.9250   29.5440 C.2    64  GLU64       0.2260
     38  O         -3.1110   33.0570   29.5680 O.2    64  GLU64      -0.2867
     39  CB        -3.3580   30.3640   27.5780 C.3    64  GLU64       0.0388
     40  CG        -3.5940   31.5710   26.6470 C.3    64  GLU64       0.1160
     41  CD        -3.6510   31.2050   25.1660 C.2    64  GLU64       0.3649
     42  OE1       -4.1230   30.1010   24.8220 O.co2  64  GLU64      -0.2457
     43  OE2       -3.2360   32.0360   24.3370 O.co2  64  GLU64      -0.2457
     44  N         -1.9750   35.5830   30.2980 N.3    68  LEU68      -0.1245
     45  CA        -2.4670   36.7890   29.6350 C.3    68  LEU68       0.1561
     46  C         -3.0170   37.8260   30.6040 C.2    68  LEU68       0.2260
     47  O         -2.8110   39.0140   30.4150 O.2    68  LEU68      -0.2867
     48  CB        -3.5490   36.4450   28.6120 C.3    68  LEU68       0.0270
     49  CG        -3.0990   35.8750   27.2670 C.3    68  LEU68       0.0019
     50  CD1       -2.2670   34.6360   27.4720 C.3    68  LEU68       0.0001
     51  CD2       -4.3210   35.5530   26.4320 C.3    68  LEU68       0.0001
     52  N          1.7890   40.9570   24.7540 N.3    77  ILE77      -0.1231
     53  CA         0.3620   40.8460   24.5120 C.3    77  ILE77       0.1692
     54  C         -0.3480   40.8680   25.8550 C.2    77  ILE77       0.2593
     55  O          0.0420   40.1530   26.7840 O.2    77  ILE77      -0.2718
     56  CB         0.0290   39.5440   23.7750 C.3    77  ILE77       0.0266
     57  CG1        0.7120   39.5560   22.4050 C.3    77  ILE77       0.0019
     58  CG2       -1.4690   39.4000   23.5990 C.3    77  ILE77       0.0020
     59  CD1        0.2870   40.7110   21.5170 C.3    77  ILE77       0.0001
     60  N         -1.3680   41.7160   25.9530 N.am   78  GLY78      -0.1942
     61  CA        -2.1380   41.8360   27.1760 C.3    78  GLY78       0.2014
     62  C         -3.6080   41.5830   26.8980 C.2    78  GLY78       0.2638
     63  O         -4.0200   41.5200   25.7390 O.2    78  GLY78      -0.2714
     64  N         -4.4060   41.4420   27.9500 N.am   79  LEU79      -0.1977
     65  CA        -5.8300   41.1790   27.7730 C.3    79  LEU79       0.1596
     66  C         -6.7250   42.3950   27.8650 C.2    79  LEU79       0.2287
     67  O         -6.7390   43.0790   28.8800 O.2    79  LEU79      -0.2864
     68  CB        -6.3230   40.1490   28.7960 C.3    79  LEU79       0.0297
     69  CG        -6.2420   38.6600   28.4500 C.3    79  LEU79       0.0022
     70  CD1       -6.8760   37.8640   29.5810 C.3    79  LEU79       0.0001
     71  CD2       -6.9670   38.3770   27.1380 C.3    79  LEU79       0.0001
     72  N        -10.4540   35.1940   23.8550 N.3    97  LEU97      -0.1231
     73  CA        -9.4810   36.1520   24.3590 C.3    97  LEU97       0.1693
     74  C         -9.3840   37.3550   23.4190 C.2    97  LEU97       0.2592
     75  O         -9.3050   37.1960   22.1910 O.2    97  LEU97      -0.2718
     76  CB        -8.1230   35.4780   24.4720 C.3    97  LEU97       0.0284
     77  CG        -8.1200   34.2080   25.3220 C.3    97  LEU97       0.0019
     78  CD1       -6.7570   33.5440   25.2450 C.3    97  LEU97       0.0001
     79  CD2       -8.4870   34.5630   26.7620 C.3    97  LEU97       0.0001
     80  N         -9.3690   38.5530   23.9990 N.am   98  VAL98      -0.1966
     81  CA        -9.3030   39.7740   23.2110 C.3    98  VAL98       0.1727
     82  C         -8.0910   40.6420   23.5300 C.2    98  VAL98       0.2617
     83  O         -7.7740   40.8710   24.6920 O.2    98  VAL98      -0.2715
     84  CB       -10.5670   40.6370   23.4280 C.3    98  VAL98       0.0290
     85  CG1      -10.6070   41.7740   22.4010 C.3    98  VAL98       0.0023
     86  CG2      -11.8130   39.7740   23.3190 C.3    98  VAL98       0.0023
     87  N         -7.4220   41.1320   22.4900 N.am   99  THR99      -0.1937
     88  CA        -6.2580   42.0040   22.6600 C.3    99  THR99       0.2028
     89  C         -6.2010   43.0320   21.5230 C.2    99  THR99       0.2642
     90  O         -6.9580   42.9250   20.5500 O.2    99  THR99      -0.2714
     91  CB        -4.9410   41.1880   22.6780 C.3    99  THR99       0.1808
     92  OG1       -3.8750   42.0250   23.1440 O.3    99  THR99      -0.2208
     93  CG2       -4.5960   40.6690   21.2840 C.3    99  THR99       0.0379
     94  N         -5.3100   44.0200   21.6400 N.am  100  HIS100     -0.1959
     95  CA        -5.1860   45.0490   20.6080 C.3   100  HIS100      0.1787
     96  C         -4.7590   44.3880   19.3160 C.2   100  HIS100      0.2620
     97  O         -3.8920   43.5210   19.3170 O.2   100  HIS100     -0.2715
     98  CB        -4.1320   46.0990   20.9740 C.3   100  HIS100      0.0785
     99  CG        -4.4150   46.8430   22.2400 C.ar  100  HIS100      0.0821
    100  ND1       -4.1670   46.3130   23.4870 N.ar  100  HIS100     -0.2267
    101  CD2       -4.9150   48.0830   22.4510 C.ar  100  HIS100      0.1154
    102  CE1       -4.4990   47.1960   24.4120 C.ar  100  HIS100      0.1986
    103  NE2       -4.9560   48.2780   23.8090 N.ar  100  HIS100     -0.2212
    104  N         -5.3490   44.8030   18.2070 N.am  101  LEU101     -0.1963
    105  CA        -4.9960   44.2080   16.9330 C.3   101  LEU101      0.1728
    106  C         -3.6160   44.6570   16.4570 C.2   101  LEU101      0.2616
    107  O         -3.3200   45.8430   16.4090 O.2   101  LEU101     -0.2715
    108  CB        -6.0510   44.5580   15.8830 C.3   101  LEU101      0.0311
    109  CG        -5.7940   44.0890   14.4480 C.3   101  LEU101      0.0022
    110  CD1       -5.5700   42.5860   14.4110 C.3   101  LEU101      0.0001
    111  CD2       -6.9910   44.4680   13.5870 C.3   101  LEU101      0.0001
    112  N         -2.7710   43.6940   16.1180 N.am  102  MET102     -0.1977
    113  CA        -1.4350   43.9920   15.6260 C.3   102  MET102      0.1605
    114  C         -1.4060   43.6050   14.1510 C.2   102  MET102      0.2287
    115  O         -1.7260   42.4730   13.7880 O.2   102  MET102     -0.2864
    116  CB        -0.3860   43.2020   16.4100 C.3   102  MET102      0.0413
    117  CG        -0.3710   43.5010   17.9080 C.3   102  MET102      0.0598
    118  SD         0.0620   45.2060   18.2950 S.3   102  MET102     -0.1393
    119  CE         1.8430   45.1560   17.9760 C.3   102  MET102      0.0692
    120  N          4.5860   40.1120   17.1900 N.3   146  ALA146     -0.1245
    121  CA         3.6260   40.9620   16.4860 C.3   146  ALA146      0.1562
    122  C          4.1010   42.4090   16.3910 C.2   146  ALA146      0.2260
    123  O          4.6600   42.9590   17.3470 O.2   146  ALA146     -0.2867
    124  CB         2.2700   40.9160   17.1870 C.3   146  ALA146      0.0290
    125  N          4.2140   37.4600   21.6760 N.3   156  LEU156     -0.1231
    126  CA         3.0490   36.5720   21.6810 C.3   156  LEU156      0.1693
    127  C          3.3980   35.1250   22.0210 C.2   156  LEU156      0.2592
    128  O          4.5470   34.7010   21.9000 O.2   156  LEU156     -0.2718
    129  CB         2.4020   36.5500   20.2910 C.3   156  LEU156      0.0284
    130  CG         1.2560   37.4670   19.8850 C.3   156  LEU156      0.0019
    131  CD1        1.0940   37.4220   18.3790 C.3   156  LEU156      0.0001
    132  CD2       -0.0250   37.0220   20.5640 C.3   156  LEU156      0.0001
    133  N          2.3620   34.3800   22.3960 N.am  157  ASP157     -0.1974
    134  CA         2.4220   32.9530   22.7140 C.3   157  ASP157      0.1709
    135  C          3.4900   32.4120   23.6540 C.2   157  ASP157      0.2293
    136  O          4.2840   31.5700   23.2550 O.2   157  ASP157     -0.2864
    137  CB         2.4830   32.1480   21.4140 C.3   157  ASP157      0.1436
    138  CG         1.2860   32.3930   20.5250 C.2   157  ASP157      0.3671
    139  OD1        0.2250   32.7740   21.0600 O.co2 157  ASP157     -0.2456
    140  OD2        1.4000   32.1930   19.2970 O.co2 157  ASP157     -0.2456
@<TRIPOS>BOND
     1     4     3    2
     2     2     3    1
     3     2     1    1
     4     2     5    1
     5     7     5    1
     6     5     6    1
     7    13    12    1
     8     8     9    1
     9    12     9    1
    10    17    16    2
    11   111   109    1
    12     9    10    1
    13   115   114    2
    14   114   113    1
    15   110   109    1
    16   109   108    1
    17    16    15    1
    18    10    11    2
    19    14    15    1
    20    15    18    1
    21    18    19    1
    22    18    20    1
    23   113   112    1
    24   113   116    1
    25   108   105    1
    26   112   106   am
    27   122   121    1
    28   122   123    2
    29   107   106    2
    30   116   117    1
    31   106   105    1
    32   121   124    1
    33   121   120    1
    34   105   104    1
    35    25    22    1
    36    22    21    1
    37    22    23    1
    38   117   118    1
    39   119   118    1
    40   104    96   am
    41   131   130    1
    42    23    24    2
    43   140   138   ar
    44    96    97    2
    45    96    95    1
    46    27    26    1
    47    27    30    1
    48    27    28    1
    49   130   129    1
    50   130   132    1
    51    30    31    1
    52   129   126    1
    53    28    29    2
    54    31    32    1
    55   138   139   ar
    56   138   137    1
    57    90    89    2
    58    95    98    1
    59    95    94    1
    60    98    99    1
    61    32    33    1
    62    33    34    1
    63    93    91    1
    64   137   134    1
    65    59    57    1
    66    89    94   am
    67    89    88    1
    68   125   126    1
    69   126   127    1
    70   128   127    2
    71   127   133   am
    72    75    74    2
    73    99   101   ar
    74    99   100   ar
    75   133   134    1
    76    85    84    1
    77    57    56    1
    78   101   103   ar
    79    87    88    1
    80    87    82   am
    81    88    91    1
    82    91    92    1
    83   134   135    1
    84    81    84    1
    85    81    82    1
    86    81    80    1
    87   136   135    2
    88    86    84    1
    89    74    80   am
    90    74    73    1
    91   100   102   ar
    92    82    83    2
    93    58    56    1
    94    56    53    1
    95   103   102   ar
    96    72    73    1
    97    43    41   ar
    98    73    76    1
    99    76    77    1
   100    53    52    1
   101    53    54    1
   102    42    41   ar
   103    41    40    1
   104    78    77    1
   105    77    79    1
   106    63    62    2
   107    54    60   am
   108    54    55    2
   109    60    61    1
   110    51    49    1
   111    40    39    1
   112    62    61    1
   113    62    64   am
   114    71    69    1
   115    49    50    1
   116    49    48    1
   117    39    36    1
   118    65    66    1
   119    65    64    1
   120    65    68    1
   121    66    67    2
   122    69    68    1
   123    69    70    1
   124    48    45    1
   125    36    37    1
   126    36    35    1
   127    37    38    2
   128    45    44    1
   129    45    46    1
   130    47    46    2
