@<TRIPOS>MOLECULE
tmp/3hvgA00.pdb
 108 102 0 0 0
SMALL
GASTEIGER

@<TRIPOS>ATOM
      1  N        -71.4000  -36.1220   38.3420 N.3    35  LEU35      -0.1245
      2  CA       -70.1630  -35.5850   38.9080 C.3    35  LEU35       0.1561
      3  C        -69.4450  -34.6250   37.9520 C.2    35  LEU35       0.2260
      4  O        -69.1780  -34.9670   36.7940 O.2    35  LEU35      -0.2867
      5  CB       -69.2100  -36.7230   39.2710 C.3    35  LEU35       0.0270
      6  CG       -67.9630  -36.2950   40.0490 C.3    35  LEU35       0.0019
      7  CD1      -68.2130  -36.3550   41.5480 C.3    35  LEU35       0.0001
      8  CD2      -66.8030  -37.1690   39.6830 C.3    35  LEU35       0.0001
      9  N        -66.3370  -33.0660   36.5100 N.3    37  ASP37      -0.1239
     10  CA       -64.9440  -33.5110   36.4770 C.3    37  ASP37       0.1674
     11  C        -64.0780  -32.9160   35.3530 C.2    37  ASP37       0.2266
     12  O        -64.1460  -33.3440   34.1780 O.2    37  ASP37      -0.2867
     13  CB       -64.9010  -35.0440   36.4120 C.3    37  ASP37       0.1410
     14  CG       -63.4900  -35.5950   36.4840 C.2    37  ASP37       0.3668
     15  OD1      -62.5670  -34.8520   36.8770 O.co2  37  ASP37      -0.2456
     16  OD2      -63.3020  -36.7790   36.1420 O.co2  37  ASP37      -0.2456
     17  N        -60.8900  -33.3940   35.1790 N.3    39  GLY39      -0.1225
     18  CA       -59.7600  -34.3040   34.9680 C.3    39  GLY39       0.1811
     19  C        -60.0120  -35.3560   33.8920 C.2    39  GLY39       0.2280
     20  O        -59.0920  -36.0900   33.4940 O.2    39  GLY39      -0.2866
     21  N        -59.6120  -44.7800   35.1250 N.3    76  TYR76      -0.1227
     22  CA       -59.1580  -43.6180   35.8950 C.3    76  TYR76       0.1736
     23  C        -58.0270  -44.0530   36.8270 C.2    76  TYR76       0.2596
     24  O        -57.5680  -45.1980   36.7610 O.2    76  TYR76      -0.2718
     25  CB       -60.3000  -43.0430   36.7330 C.3    76  TYR76       0.0548
     26  CG       -61.5430  -42.6710   35.9640 C.ar   76  TYR76      -0.0200
     27  CD1      -61.6070  -41.4820   35.2440 C.ar   76  TYR76      -0.0009
     28  CD2      -62.6690  -43.4900   35.9840 C.ar   76  TYR76      -0.0009
     29  CE1      -62.7490  -41.1310   34.5480 C.ar   76  TYR76       0.0417
     30  CE2      -63.8150  -43.1490   35.2890 C.ar   76  TYR76       0.0417
     31  CZ       -63.8510  -41.9690   34.5750 C.ar   76  TYR76       0.1957
     32  OH       -64.9880  -41.6220   33.8830 O.3    76  TYR76      -0.2866
     33  N        -57.5730  -43.1390   37.6850 N.am   77  THR77      -0.1939
     34  CA       -56.7050  -43.5080   38.8030 C.3    77  THR77       0.2028
     35  C        -57.5640  -44.2380   39.8360 C.2    77  THR77       0.2642
     36  O        -57.1920  -45.3120   40.3200 O.2    77  THR77      -0.2714
     37  CB       -56.0180  -42.2780   39.4500 C.3    77  THR77       0.1808
     38  OG1      -55.4260  -41.4590   38.4330 O.3    77  THR77      -0.2208
     39  CG2      -54.9370  -42.7130   40.4350 C.3    77  THR77       0.0379
     40  N        -58.7160  -43.6440   40.1550 N.am   78  GLN78      -0.1976
     41  CA       -59.7370  -44.2840   40.9850 C.3    78  GLN78       0.1601
     42  C        -60.8170  -44.9120   40.1010 C.2    78  GLN78       0.2287
     43  O        -61.7140  -44.2160   39.6110 O.2    78  GLN78      -0.2864
     44  CB       -60.3930  -43.2740   41.9410 C.3    78  GLN78       0.0394
     45  CG       -61.5330  -43.8690   42.8040 C.3    78  GLN78       0.0908
     46  CD       -62.7340  -42.9350   42.9570 C.2    78  GLN78       0.2608
     47  OE1      -62.7340  -42.0340   43.7990 O.2    78  GLN78      -0.2717
     48  NE2      -63.7720  -43.1660   42.1530 N.am   78  GLN78      -0.0878
     49  N        -65.9980  -47.6040   41.1530 N.3   113  PHE113     -0.1241
     50  CA       -66.2780  -46.3230   40.5090 C.3   113  PHE113      0.1605
     51  C        -67.4330  -45.6010   41.2000 C.2   113  PHE113      0.2264
     52  O        -67.2650  -44.4850   41.6940 O.2   113  PHE113     -0.2867
     53  CB       -66.5940  -46.5390   39.0330 C.3   113  PHE113      0.0534
     54  CG       -66.9930  -45.2900   38.3170 C.ar  113  PHE113     -0.0203
     55  CD1      -66.0510  -44.3180   38.0220 C.ar  113  PHE113     -0.0042
     56  CD2      -68.3110  -45.0830   37.9370 C.ar  113  PHE113     -0.0042
     57  CE1      -66.4140  -43.1590   37.3590 C.ar  113  PHE113     -0.0003
     58  CE2      -68.6830  -43.9290   37.2740 C.ar  113  PHE113     -0.0003
     59  CZ       -67.7310  -42.9620   36.9860 C.ar  113  PHE113     -0.0000
     60  N        -69.5300  -44.6590   44.1220 N.3   115  ILE115     -0.1245
     61  CA       -69.2410  -44.6120   45.5540 C.3   115  ILE115      0.1561
     62  C        -70.5270  -44.8280   46.3520 C.2   115  ILE115      0.2260
     63  O        -71.5900  -44.3440   45.9640 O.2   115  ILE115     -0.2867
     64  CB       -68.5840  -43.2560   45.9480 C.3   115  ILE115      0.0252
     65  CG1      -67.2760  -43.0410   45.1710 C.3   115  ILE115      0.0019
     66  CG2      -68.3270  -43.1780   47.4650 C.3   115  ILE115      0.0019
     67  CD1      -66.8160  -41.5830   45.1260 C.3   115  ILE115      0.0001
     68  N        -74.5780  -39.4730   43.4470 N.3   120  TRP120     -0.1241
     69  CA       -74.4130  -39.2100   42.0130 C.3   120  TRP120      0.1605
     70  C        -74.3710  -40.5180   41.2030 C.2   120  TRP120      0.2264
     71  O        -73.8200  -41.5290   41.6550 O.2   120  TRP120     -0.2867
     72  CB       -73.1950  -38.3050   41.7320 C.3   120  TRP120      0.0550
     73  CG       -71.8570  -38.8230   42.1840 C.ar  120  TRP120      0.0003
     74  CD1      -71.1970  -38.4950   43.3310 C.ar  120  TRP120      0.0946
     75  CD2      -71.0000  -39.7360   41.4790 C.ar  120  TRP120      0.0152
     76  NE1      -69.9940  -39.1570   43.3950 N.ar  120  TRP120     -0.2442
     77  CE2      -69.8480  -39.9250   42.2720 C.ar  120  TRP120      0.0810
     78  CE3      -71.1000  -40.4190   40.2620 C.ar  120  TRP120      0.0012
     79  CZ2      -68.8000  -40.7710   41.8830 C.ar  120  TRP120      0.0191
     80  CZ3      -70.0580  -41.2560   39.8760 C.ar  120  TRP120      0.0001
     81  CH2      -68.9250  -41.4230   40.6840 C.ar  120  TRP120      0.0015
     82  N        -71.1480  -39.0540   35.4000 N.3   123  ILE123     -0.1245
     83  CA       -69.9910  -38.1460   35.4200 C.3   123  ILE123      0.1561
     84  C        -69.9360  -37.2500   34.1760 C.2   123  ILE123      0.2260
     85  O        -70.1540  -37.7150   33.0490 O.2   123  ILE123     -0.2867
     86  CB       -68.6620  -38.9300   35.5420 C.3   123  ILE123      0.0252
     87  CG1      -67.4700  -37.9720   35.5630 C.3   123  ILE123      0.0019
     88  CG2      -68.5100  -39.9440   34.3910 C.3   123  ILE123      0.0019
     89  CD1      -66.1580  -38.6440   35.8650 C.3   123  ILE123      0.0001
     90  N        -57.9770  -30.3600   38.5940 N.3   222  ASP222     -0.1239
     91  CA       -58.8550  -31.5170   38.5330 C.3   222  ASP222      0.1674
     92  C        -59.9200  -31.4720   39.6380 C.2   222  ASP222      0.2266
     93  O        -59.6700  -31.8880   40.7640 O.2   222  ASP222     -0.2867
     94  CB       -57.9940  -32.7650   38.6850 C.3   222  ASP222      0.1410
     95  CG       -58.7360  -34.0320   38.3580 C.2   222  ASP222      0.3668
     96  OD1      -59.9800  -33.9790   38.2160 O.co2 222  ASP222     -0.2456
     97  OD2      -58.0610  -35.0810   38.2380 O.co2 222  ASP222     -0.2456
     98  N        -62.3780  -33.3930   39.8540 N.3   224  GLY224     -0.1210
     99  CA       -62.7020  -34.7820   40.1890 C.3   224  GLY224      0.1956
    100  C        -61.7500  -35.4700   41.1540 C.2   224  GLY224      0.2612
    101  O        -61.9260  -36.6510   41.4500 O.2   224  GLY224     -0.2717
    102  N        -60.7470  -34.7380   41.6450 N.am  225  THR225     -0.1952
    103  CA       -59.7940  -35.2390   42.6460 C.3   225  THR225      0.1897
    104  C        -59.9270  -34.4710   43.9780 C.2   225  THR225      0.2313
    105  O        -60.0000  -33.2470   43.9910 O.2   225  THR225     -0.2863
    106  CB       -58.3620  -35.1170   42.1170 C.3   225  THR225      0.1794
    107  OG1      -58.2150  -35.9700   40.9680 O.3   225  THR225     -0.2208
    108  CG2      -57.3360  -35.5060   43.1870 C.3   225  THR225      0.0378
@<TRIPOS>BOND
     1    85    84    2
     2    20    19    2
     3    32    31    1
     4    19    18    1
     5    84    83    1
     6    12    11    2
     7    88    86    1
     8    29    31   ar
     9    29    27   ar
    10    31    30   ar
    11    18    17    1
    12    21    22    1
    13    27    26   ar
    14    30    28   ar
    15    11    10    1
    16    82    83    1
    17    83    86    1
    18    86    87    1
    19    87    89    1
    20    22    25    1
    21    22    23    1
    22    26    28   ar
    23    26    25    1
    24    16    14   ar
    25    13    10    1
    26    13    14    1
    27    10     9    1
    28    14    15   ar
    29    24    23    2
    30     4     3    2
    31    23    33   am
    32    59    58   ar
    33    59    57   ar
    34    58    56   ar
    35    57    55   ar
    36    33    34    1
    37    56    54   ar
    38     3     2    1
    39    55    54   ar
    40    96    95   ar
    41    97    95   ar
    42    54    53    1
    43     1     2    1
    44    95    94    1
    45    38    37    1
    46    91    90    1
    47    91    94    1
    48    91    92    1
    49    34    37    1
    50    34    35    1
    51     2     5    1
    52    53    50    1
    53     5     6    1
    54    37    39    1
    55    43    42    2
    56    92    93    2
    57     8     6    1
    58    35    40   am
    59    35    36    2
    60    98    99    1
    61    80    78   ar
    62    80    81   ar
    63     6     7    1
    64    42    41    1
    65    40    41    1
    66    99   100    1
    67    78    75   ar
    68    50    49    1
    69    50    51    1
    70    81    79   ar
    71   107   106    1
    72    41    44    1
    73   100   101    2
    74   100   102   am
    75    51    52    2
    76    70    71    2
    77    70    69    1
    78    75    73   ar
    79    75    77   ar
    80   102   103    1
    81    72    69    1
    82    72    73    1
    83    79    77   ar
    84    44    45    1
    85    69    68    1
    86   106   103    1
    87   106   108    1
    88    48    46   am
    89    73    74   ar
    90    77    76   ar
    91   103   104    1
    92    45    46    1
    93    46    47    2
    94    74    76   ar
    95   104   105    2
    96    60    61    1
    97    67    65    1
    98    65    64    1
    99    61    64    1
   100    61    62    1
   101    64    66    1
   102    63    62    2
