@<TRIPOS>MOLECULE
tmp/3hvkA01.pdb
 214 210 0 0 0
SMALL
GASTEIGER

@<TRIPOS>ATOM
      1  N          5.8440   13.5130   25.5030 N.3    36  TRP36      -0.1241
      2  CA         5.7840   13.4670   24.0480 C.3    36  TRP36       0.1605
      3  C          4.7710   14.4660   23.5240 C.2    36  TRP36       0.2264
      4  O          3.7310   14.6510   24.1510 O.2    36  TRP36      -0.2867
      5  CB         5.3590   12.0870   23.5610 C.3    36  TRP36       0.0550
      6  CG         5.3950   11.8670   22.1020 C.ar   36  TRP36       0.0003
      7  CD1        6.4230   11.4030   21.3770 C.ar   36  TRP36       0.0946
      8  CD2        4.3190   12.0930   21.1640 C.ar   36  TRP36       0.0152
      9  NE1        6.0790   11.3300   20.0360 N.ar   36  TRP36      -0.2442
     10  CE2        4.7870   11.7390   19.8880 C.ar   36  TRP36       0.0810
     11  CE3        3.0050   12.5260   21.2930 C.ar   36  TRP36       0.0012
     12  CZ2        3.9810   11.8620   18.7260 C.ar   36  TRP36       0.0191
     13  CZ3        2.2010   12.6050   20.1660 C.ar   36  TRP36       0.0001
     14  CH2        2.7080   12.2920   18.8910 C.ar   36  TRP36       0.0015
     15  N          3.2070   16.0170   19.4360 N.3    38  MET38      -0.1230
     16  CA         3.1690   15.7920   17.9720 C.3    38  MET38       0.1702
     17  C          3.8070   16.9170   17.1690 C.2    38  MET38       0.2592
     18  O          3.2980   17.3490   16.1310 O.2    38  MET38      -0.2718
     19  CB         1.7220   15.5750   17.5160 C.3    38  MET38       0.0401
     20  CG         0.7560   16.7030   17.8060 C.3    38  MET38       0.0596
     21  SD        -0.8580   16.3710   17.1050 S.3    38  MET38      -0.1393
     22  CE        -1.7810   17.7400   17.6990 C.3    38  MET38       0.0692
     23  N          4.9450   17.4250   17.6250 N.am   39  ASN39      -0.1974
     24  CA         5.7650   18.3350   16.7970 C.3    39  ASN39       0.1688
     25  C          6.4130   17.4850   15.7030 C.2    39  ASN39       0.2292
     26  O          6.6310   16.2880   15.9180 O.2    39  ASN39      -0.2864
     27  CB         6.8790   18.9770   17.6700 C.3    39  ASN39       0.1181
     28  CG         6.3720   19.6250   18.9010 C.2    39  ASN39       0.2629
     29  OD1        6.8060   19.2400   20.0410 O.2    39  ASN39      -0.2716
     30  ND2        5.4760   20.5460   18.7580 N.am   39  ASN39      -0.0877
     31  N         -1.9000   23.6260   10.0730 N.3    64  GLY64      -0.1225
     32  CA        -1.8000   22.9460   11.3770 C.3    64  GLY64       0.1811
     33  C         -0.5690   23.3690   12.1360 C.2    64  GLY64       0.2280
     34  O          0.3350   22.5420   12.3380 O.2    64  GLY64      -0.2866
     35  N         -0.0320   23.8890   15.4260 N.3    66  TYR66      -0.1241
     36  CA         0.1010   23.2070   16.7280 C.3    66  TYR66       0.1605
     37  C          0.7760   24.1520   17.7120 C.2    66  TYR66       0.2264
     38  O          0.1280   25.1360   18.1120 O.2    66  TYR66      -0.2867
     39  CB         0.7440   21.8100   16.6450 C.3    66  TYR66       0.0534
     40  CG         0.6950   21.0330   17.9630 C.ar   66  TYR66      -0.0201
     41  CD1       -0.4550   20.9800   18.7600 C.ar   66  TYR66      -0.0009
     42  CD2        1.8220   20.3840   18.4490 C.ar   66  TYR66      -0.0009
     43  CE1       -0.4780   20.2820   19.9720 C.ar   66  TYR66       0.0417
     44  CE2        1.7980   19.6530   19.6480 C.ar   66  TYR66       0.0417
     45  CZ         0.6660   19.6780   20.4350 C.ar   66  TYR66       0.1957
     46  OH         0.6890   18.9720   21.6060 O.3    66  TYR66      -0.2866
     47  N         -1.8740   28.2640    9.5210 N.3    87  MET87      -0.1230
     48  CA        -3.2640   28.1890    9.9320 C.3    87  MET87       0.1702
     49  C         -3.4230   27.2200   11.0800 C.2    87  MET87       0.2592
     50  O         -2.8720   26.1130   11.0700 O.2    87  MET87      -0.2718
     51  CB        -4.1330   27.7620    8.7610 C.3    87  MET87       0.0401
     52  CG        -4.1210   28.7440    7.6120 C.3    87  MET87       0.0596
     53  SD        -5.0610   28.1720    6.2100 S.3    87  MET87      -0.1393
     54  CE        -4.9510   29.5900    5.0840 C.3    87  MET87       0.0692
     55  N         -4.1400   27.6670   12.1070 N.am   88  GLU88      -0.1966
     56  CA        -4.3520   26.8450   13.2880 C.3    88  GLU88       0.1733
     57  C         -5.7580   27.1140   13.8090 C.2    88  GLU88       0.2616
     58  O         -6.0620   28.2240   14.2570 O.2    88  GLU88      -0.2715
     59  CB        -3.3320   27.2350   14.3280 C.3    88  GLU88       0.0429
     60  CG        -3.4920   26.5090   15.6750 C.3    88  GLU88       0.1163
     61  CD        -3.7080   25.0130   15.5370 C.2    88  GLU88       0.3649
     62  OE1       -2.8090   24.3200   14.9640 O.co2  88  GLU88      -0.2457
     63  OE2       -4.7870   24.5500   15.9590 O.co2  88  GLU88      -0.2457
     64  N         -6.5900   26.0770   13.7850 N.am   89  MET89      -0.1963
     65  CA        -7.9980   26.2750   14.1100 C.3    89  MET89       0.1736
     66  C         -8.2710   26.3180   15.6190 C.2    89  MET89       0.2616
     67  O         -9.3040   26.8410   16.0290 O.2    89  MET89      -0.2715
     68  CB        -8.8880   25.2240   13.4530 C.3    89  MET89       0.0427
     69  CG        -8.8370   23.8820   14.1090 C.3    89  MET89       0.0599
     70  SD        -9.6940   22.5990   13.3000 S.3    89  MET89      -0.1393
     71  CE       -11.3630   23.1330   13.5070 C.3    89  MET89       0.0692
     72  N         -7.3720   25.7800   16.4240 N.am   90  ASN90      -0.1972
     73  CA        -7.5580   25.7380   17.8760 C.3    90  ASN90       0.1688
     74  C         -7.0330   27.0410   18.4230 C.2    90  ASN90       0.2292
     75  O         -5.8450   27.3130   18.3130 O.2    90  ASN90      -0.2864
     76  CB        -6.8470   24.5390   18.4810 C.3    90  ASN90       0.1181
     77  CG        -7.0290   24.4120   19.9370 C.2    90  ASN90       0.2629
     78  OD1       -6.9830   25.4110   20.6350 O.2    90  ASN90      -0.2716
     79  ND2       -7.1270   23.1920   20.4270 N.am   90  ASN90      -0.0877
     80  N         -4.0320   26.8540   20.7730 N.3    93  TYR93      -0.1241
     81  CA        -2.7920   26.4940   20.0940 C.3    93  TYR93       0.1605
     82  C         -2.3330   27.6310   19.2320 C.2    93  TYR93       0.2264
     83  O         -1.1390   27.8360   19.1150 O.2    93  TYR93      -0.2867
     84  CB        -2.9730   25.2310   19.2700 C.3    93  TYR93       0.0534
     85  CG        -3.3330   23.9910   20.0120 C.ar   93  TYR93      -0.0201
     86  CD1       -3.2420   23.8970   21.3870 C.ar   93  TYR93      -0.0009
     87  CD2       -3.7380   22.8570   19.3070 C.ar   93  TYR93      -0.0009
     88  CE1       -3.6100   22.7510   22.0570 C.ar   93  TYR93       0.0417
     89  CE2       -4.0760   21.6790   19.9390 C.ar   93  TYR93       0.0417
     90  CZ        -4.0330   21.6310   21.3320 C.ar   93  TYR93       0.1957
     91  OH        -4.3620   20.4790   21.9820 O.3    93  TYR93      -0.2866
     92  N         -8.0020   29.9720   12.5380 N.3   115  GLY115     -0.1210
     93  CA        -9.2090   29.5380   11.8600 C.3   115  GLY115      0.1956
     94  C         -8.9400   28.1920   11.1730 C.2   115  GLY115      0.2612
     95  O         -7.8020   27.7060   11.1340 O.2   115  GLY115     -0.2717
     96  N        -10.0030   27.6120   10.6620 N.am  116  ALA116     -0.1965
     97  CA        -9.9250   26.3450    9.9120 C.3   116  ALA116      0.1728
     98  C         -9.4930   26.6280    8.4770 C.2   116  ALA116      0.2617
     99  O        -10.0010   27.5340    7.8240 O.2   116  ALA116     -0.2715
    100  CB       -11.3030   25.6250    9.9240 C.3   116  ALA116      0.0334
    101  N         -8.6050   25.7870    7.9520 N.am  117  SER117     -0.1936
    102  CA        -8.1150   25.9230    6.5840 C.3   117  SER117      0.2055
    103  C         -9.2460   26.0020    5.5770 C.2   117  SER117      0.2642
    104  O         -9.1550   26.7460    4.6170 O.2   117  SER117     -0.2714
    105  CB        -7.2240   24.7260    6.2430 C.3   117  SER117      0.2130
    106  OG        -7.9440   23.5360    6.5180 O.3   117  SER117     -0.2179
    107  N        -10.3100   25.2220    5.7540 N.am  118  GLN118     -0.1976
    108  CA       -11.3440   25.2280    4.7150 C.3   118  GLN118      0.1601
    109  C        -12.0220   26.6060    4.6300 C.2   118  GLN118      0.2287
    110  O        -12.5540   26.9850    3.5670 O.2   118  GLN118     -0.2864
    111  CB       -12.3460   24.1040    4.9410 C.3   118  GLN118      0.0394
    112  CG       -13.1300   24.1610    6.1950 C.3   118  GLN118      0.0908
    113  CD       -12.5030   23.3420    7.3250 C.2   118  GLN118      0.2608
    114  OE1      -11.2420   23.1110    7.4270 O.2   118  GLN118     -0.2717
    115  NE2      -13.3940   22.8890    8.2280 N.am  118  GLN118     -0.0878
    116  N          0.1910   19.3970    7.8210 N.3   139  ASP139     -0.1225
    117  CA         0.4330   18.7160    9.1010 C.3   139  ASP139      0.1805
    118  C         -0.7690   18.8200   10.0310 C.2   139  ASP139      0.2598
    119  O         -0.6190   18.7250   11.2510 O.2   139  ASP139     -0.2718
    120  CB         1.6640   19.2840    9.7810 C.3   139  ASP139      0.1424
    121  CG         2.1920   18.4130   10.8800 C.2   139  ASP139      0.3668
    122  OD1        1.9760   17.1960   10.9800 O.co2 139  ASP139     -0.2456
    123  OD2        2.9120   19.0140   11.7490 O.co2 139  ASP139     -0.2456
    124  N         -1.9730   18.9400    9.4490 N.am  140  HIS140     -0.1961
    125  CA        -3.1860   19.0640   10.2590 C.3   140  HIS140      0.1787
    126  C         -3.8890   17.7110   10.2860 C.2   140  HIS140      0.2620
    127  O         -3.2400   16.6890   10.2630 O.2   140  HIS140     -0.2715
    128  CB        -4.0110   20.2370    9.7260 C.3   140  HIS140      0.0785
    129  CG        -4.4300   20.1440    8.2930 C.ar  140  HIS140      0.0821
    130  ND1       -3.6740   19.4890    7.3400 N.ar  140  HIS140     -0.2267
    131  CD2       -5.5090   20.6800    7.6540 C.ar  140  HIS140      0.1154
    132  CE1       -4.2800   19.6470    6.1670 C.ar  140  HIS140      0.1986
    133  NE2       -5.3910   20.3530    6.3250 N.ar  140  HIS140     -0.2212
    134  N         -5.2080   17.6780   10.4490 N.am  141  TRP141     -0.1960
    135  CA        -5.8950   16.4040   10.5250 C.3   141  TRP141      0.1771
    136  C         -5.6500   15.6010    9.2010 C.2   141  TRP141      0.2619
    137  O         -5.7350   16.1830    8.1150 O.2   141  TRP141     -0.2715
    138  CB        -7.3830   16.5850   10.7930 C.3   141  TRP141      0.0590
    139  CG        -7.6980   17.1210   12.2200 C.ar  141  TRP141      0.0006
    140  CD1       -6.8930   16.9740   13.2970 C.ar  141  TRP141      0.0946
    141  CD2       -8.8220   17.8980   12.6750 C.ar  141  TRP141      0.0152
    142  NE1       -7.4190   17.6240   14.3940 N.ar  141  TRP141     -0.2442
    143  CE2       -8.6110   18.1670   14.0270 C.ar  141  TRP141      0.0810
    144  CE3      -10.0140   18.3260   12.0800 C.ar  141  TRP141      0.0012
    145  CZ2       -9.5530   18.8390   14.8320 C.ar  141  TRP141      0.0191
    146  CZ3      -10.9680   19.0260   12.8800 C.ar  141  TRP141      0.0001
    147  CH2      -10.7020   19.2920   14.2330 C.ar  141  TRP141      0.0015
    148  N         -5.3240   14.3290    9.3270 N.am  142  LYS142     -0.1977
    149  CA        -4.7980   13.5860    8.1920 C.3   142  LYS142      0.1596
    150  C         -5.8400   13.3710    7.1030 C.2   142  LYS142      0.2287
    151  O         -5.4980   13.3190    5.9440 O.2   142  LYS142     -0.2864
    152  CB        -4.1340   12.2750    8.6260 C.3   142  LYS142      0.0298
    153  CG        -3.1030   12.4350    9.7420 C.3   142  LYS142      0.0038
    154  CD        -2.1070   13.5900    9.5140 C.3   142  LYS142      0.0206
    155  CE        -1.3540   13.9730   10.7700 C.3   142  LYS142      0.1093
    156  NZ        -0.6920   15.3130   10.6270 N.3   142  LYS142     -0.1314
    157  N         -7.8140   15.6040    6.1420 N.3   144  ARG144     -0.1245
    158  CA        -7.9970   16.8530    5.4530 C.3   144  ARG144      0.1563
    159  C         -6.8970   17.2240    4.4930 C.2   144  ARG144      0.2260
    160  O         -7.0020   18.2460    3.8100 O.2   144  ARG144     -0.2867
    161  CB        -8.1850   17.9750    6.4770 C.3   144  ARG144      0.0307
    162  CG        -9.3380   17.6710    7.5020 C.3   144  ARG144      0.0489
    163  CD       -10.7060   17.5090    6.9060 C.3   144  ARG144      0.2205
    164  NE       -11.0490   18.6430    6.0750 N.pl3 144  ARG144     -0.0865
    165  CZ       -12.2290   18.8520    5.4880 C.cat 144  ARG144      0.5346
    166  NH1      -13.2200   17.9890    5.6970 N.pl3 144  ARG144      0.1354
    167  NH2      -12.4080   19.9170    4.7030 N.pl3 144  ARG144      0.1354
    168  N          3.5450   15.8360    6.2030 N.3   167  ASP167     -0.1225
    169  CA         4.0000   15.0260    7.3180 C.3   167  ASP167      0.1805
    170  C          3.1260   13.7910    7.5020 C.2   167  ASP167      0.2597
    171  O          1.9650   13.7420    7.0940 O.2   167  ASP167     -0.2718
    172  CB         3.9420   15.8540    8.6140 C.3   167  ASP167      0.1424
    173  CG         4.7430   15.2130    9.7880 C.2   167  ASP167      0.3668
    174  OD1        5.6450   14.4410    9.4700 O.co2 167  ASP167     -0.2456
    175  OD2        4.4340   15.5400   10.9850 O.co2 167  ASP167     -0.2456
    176  N          3.6950   12.7710    8.1390 N.am  168  ASN168     -0.1974
    177  CA         2.9210   11.6640    8.6910 C.3   168  ASN168      0.1688
    178  C          2.3020   10.7730    7.6280 C.2   168  ASN168      0.2292
    179  O          1.2340   10.2020    7.8270 O.2   168  ASN168     -0.2864
    180  CB         1.8370   12.1400    9.6230 C.3   168  ASN168      0.1181
    181  CG         2.3840   12.9670   10.7400 C.2   168  ASN168      0.2629
    182  OD1        2.0270   14.1340   10.9220 O.2   168  ASN168     -0.2716
    183  ND2        3.2220   12.3390   11.5600 N.am  168  ASN168     -0.0877
    184  N          2.7300    7.2180    9.5530 N.3   171  VAL171     -0.1231
    185  CA         2.0100    7.1740   10.8230 C.3   171  VAL171      0.1678
    186  C          1.6970    8.5910   11.2640 C.2   171  VAL171      0.2434
    187  O          2.5980    9.3990   11.3990 O.2   171  VAL171     -0.2733
    188  CB         2.8190    6.4690   11.9600 C.3   171  VAL171      0.0265
    189  CG1        4.2360    6.8870   11.9870 C.3   171  VAL171      0.0020
    190  CG2        2.1980    6.7520   13.3230 C.3   171  VAL171      0.0020
    191  N          0.4230    8.9000   11.4960 N.am  172  PRO172     -0.2729
    192  CA        -0.7210    8.0120   11.3840 C.3   172  PRO172      0.1401
    193  C         -1.0600    7.5600    9.9640 C.2   172  PRO172      0.2269
    194  O         -1.8630    6.6660    9.7980 O.2   172  PRO172     -0.2865
    195  CB        -1.8630    8.8550   11.9570 C.3   172  PRO172      0.0296
    196  CG        -1.2080    9.7380   12.8850 C.3   172  PRO172      0.0237
    197  CD         0.0680   10.1090   12.2190 C.3   172  PRO172      0.0939
    198  N          9.0590    8.8640   13.2440 N.3   196  LEU196     -0.1231
    199  CA         8.1040    9.5800   14.0560 C.3   196  LEU196      0.1693
    200  C          8.8290   10.3900   15.0830 C.2   196  LEU196      0.2591
    201  O          9.7790    9.9030   15.7130 O.2   196  LEU196     -0.2718
    202  CB         7.1770    8.5710   14.6980 C.3   196  LEU196      0.0284
    203  CG         6.0220    9.0790   15.5340 C.3   196  LEU196      0.0019
    204  CD1        5.0600    9.9240   14.6870 C.3   196  LEU196      0.0001
    205  CD2        5.2660    7.9570   16.2330 C.3   196  LEU196      0.0001
    206  N          8.3930   11.6180   15.2880 N.am  197  GLU197     -0.1979
    207  CA         8.9660   12.4900   16.2940 C.3   197  GLU197      0.1602
    208  C          9.1590   11.7570   17.6100 C.2   197  GLU197      0.2287
    209  O          8.2460   11.1870   18.1920 O.2   197  GLU197     -0.2864
    210  CB         8.1350   13.7390   16.4430 C.3   197  GLU197      0.0415
    211  CG         6.6140   13.5280   16.6840 C.3   197  GLU197      0.1163
    212  CD         5.7700   13.6470   15.4460 C.2   197  GLU197      0.3649
    213  OE1        6.2240   13.2000   14.3670 O.co2 197  GLU197     -0.2457
    214  OE2        4.6010   14.1150   15.6000 O.co2 197  GLU197     -0.2457
@<TRIPOS>BOND
     1   110   109    2
     2   160   159    2
     3   159   158    1
     4   104   103    2
     5   109   108    1
     6   167   165    1
     7   108   111    1
     8   108   107    1
     9   111   112    1
    10    54    53    1
    11   158   157    1
    12   158   161    1
    13   165   166    1
    14   165   164    2
    15   103   107   am
    16   103   102    1
    17   151   150    2
    18   164   163    1
    19   132   133   ar
    20   132   130   ar
    21   112   113    1
    22   168   169    1
    23    53    52    1
    24   105   106    1
    25   105   102    1
    26   133   131   ar
    27   161   162    1
    28   102   101    1
    29   163   162    1
    30   171   170    2
    31   150   149    1
    32   169   170    1
    33   169   172    1
    34   113   114    2
    35   113   115   am
    36   130   129   ar
    37   170   176   am
    38    52    51    1
    39   178   179    2
    40   178   177    1
    41   131   129   ar
    42   116   117    1
    43    99    98    2
    44   101    98   am
    45   137   136    2
    46   176   177    1
    47   149   152    1
    48   149   148    1
    49   129   128    1
    50    98    97    1
    51   172   173    1
    52   152   153    1
    53   177   180    1
    54    51    48    1
    55   117   120    1
    56   117   118    1
    57   136   148   am
    58   136   135    1
    59   124   118   am
    60   124   125    1
    61   174   173   ar
    62   154   153    1
    63   154   155    1
    64    47    48    1
    65   184   185    1
    66   180   181    1
    67   128   125    1
    68   120   121    1
    69   173   175   ar
    70   194   193    2
    71    97   100    1
    72    97    96    1
    73    48    49    1
    74   193   192    1
    75   118   119    2
    76    31    32    1
    77   125   126    1
    78   127   126    2
    79   126   134   am
    80   134   135    1
    81   135   138    1
    82   156   155    1
    83    96    94   am
    84   181   182    2
    85   181   183   am
    86   138   139    1
    87   185   186    1
    88   185   188    1
    89   121   122   ar
    90   121   123   ar
    91    50    49    2
    92    49    55   am
    93    95    94    2
    94    94    93    1
    95   186   187    2
    96   186   191   am
    97    32    33    1
    98   192   191    1
    99   192   195    1
   100   191   197    1
   101    93    92    1
   102   195   196    1
   103   188   189    1
   104   188   190    1
   105   144   141   ar
   106   144   146   ar
   107    55    56    1
   108    33    34    2
   109   197   196    1
   110   139   141   ar
   111   139   140   ar
   112   141   143   ar
   113   146   147   ar
   114   198   199    1
   115    56    57    1
   116    56    59    1
   117   140   142   ar
   118    70    71    1
   119    70    69    1
   120    68    69    1
   121    68    65    1
   122    64    57   am
   123    64    65    1
   124    57    58    2
   125   143   142   ar
   126   143   145   ar
   127   199   202    1
   128   199   200    1
   129    65    66    1
   130   147   145   ar
   131    59    60    1
   132   213   212   ar
   133   204   203    1
   134   202   203    1
   135    62    61   ar
   136   200   206   am
   137   200   201    2
   138   206   207    1
   139    35    36    1
   140   212   214   ar
   141   212   211    1
   142   203   205    1
   143    61    60    1
   144    61    63   ar
   145    66    67    2
   146    66    72   am
   147    25    26    2
   148    25    24    1
   149    18    17    2
   150   207   210    1
   151   207   208    1
   152    72    73    1
   153   210   211    1
   154    39    36    1
   155    39    40    1
   156    36    37    1
   157    24    23    1
   158    24    27    1
   159    21    22    1
   160    21    20    1
   161    17    23   am
   162    17    16    1
   163    19    20    1
   164    19    16    1
   165   208   209    2
   166    27    28    1
   167    37    38    2
   168    73    74    1
   169    73    76    1
   170    40    42   ar
   171    40    41   ar
   172    16    15    1
   173    75    74    2
   174    42    44   ar
   175    76    77    1
   176    12    14   ar
   177    12    10   ar
   178    30    28   am
   179    41    43   ar
   180    14    13   ar
   181    28    29    2
   182    83    82    2
   183    82    81    1
   184    84    85    1
   185    84    81    1
   186    87    89   ar
   187    87    85   ar
   188    44    45   ar
   189    10     9   ar
   190    10     8   ar
   191    77    79   am
   192    77    78    2
   193    89    90   ar
   194    43    45   ar
   195    85    86   ar
   196     9     7   ar
   197    81    80    1
   198    13    11   ar
   199    45    46    1
   200     8    11   ar
   201     8     6   ar
   202    90    91    1
   203    90    88   ar
   204     7     6   ar
   205    86    88   ar
   206     6     5    1
   207     3     2    1
   208     3     4    2
   209     5     2    1
   210     2     1    1
