@<TRIPOS>MOLECULE
tmp/3hvnA00.pdb
 82 74 0 0 0
SMALL
GASTEIGER

@<TRIPOS>ATOM
      1  N          5.3420   18.7750   43.8180 N.3   239  ARG239     -0.1245
      2  CA         6.1200   19.3120   44.9310 C.3   239  ARG239      0.1563
      3  C          7.4780   19.8150   44.4620 C.2   239  ARG239      0.2260
      4  O          8.2790   19.0490   43.9290 O.2   239  ARG239     -0.2867
      5  CB         6.3260   18.2470   46.0080 C.3   239  ARG239      0.0307
      6  CG         5.0710   17.8460   46.7560 C.3   239  ARG239      0.0489
      7  CD         5.4070   16.9720   47.9560 C.3   239  ARG239      0.2205
      8  NE         6.1890   17.6890   48.9600 N.pl3 239  ARG239     -0.0865
      9  CZ         7.5170   17.6740   49.0290 C.cat 239  ARG239      0.5346
     10  NH1        8.2230   16.9750   48.1500 N.pl3 239  ARG239      0.1354
     11  NH2        8.1410   18.3590   49.9780 N.pl3 239  ARG239      0.1354
     12  N         11.1510   21.2280   45.3890 N.3   241  MET241     -0.1245
     13  CA        12.0930   21.2160   46.5010 C.3   241  MET241      0.1570
     14  C         13.4860   21.6570   46.0650 C.2   241  MET241      0.2261
     15  O         14.2260   20.8860   45.4570 O.2   241  MET241     -0.2867
     16  CB        12.1560   19.8180   47.1170 C.3   241  MET241      0.0387
     17  CG        13.0370   19.7140   48.3480 C.3   241  MET241      0.0595
     18  SD        13.1060   18.0300   48.9860 S.3   241  MET241     -0.1393
     19  CE        11.3610   17.6420   49.0970 C.3   241  MET241      0.0692
     20  N         11.2720   24.0960   50.3270 N.3   286  ILE286     -0.1245
     21  CA        10.2730   23.2220   49.7230 C.3   286  ILE286      0.1561
     22  C          8.8990   23.8790   49.6550 C.2   286  ILE286      0.2260
     23  O          8.5480   24.6980   50.5060 O.2   286  ILE286     -0.2867
     24  CB        10.1640   21.8790   50.4880 C.3   286  ILE286      0.0252
     25  CG1        9.1790   21.9850   51.6570 C.3   286  ILE286      0.0019
     26  CG2       11.5330   21.4290   50.9770 C.3   286  ILE286      0.0019
     27  CD1        7.7600   21.5660   51.3140 C.3   286  ILE286      0.0001
     28  N          2.7140   18.9980   50.9450 N.3   290  ASP290     -0.1239
     29  CA         2.3970   19.1290   52.3630 C.3   290  ASP290      0.1674
     30  C          1.3730   20.2320   52.6060 C.2   290  ASP290      0.2266
     31  O          0.5350   20.1280   53.5030 O.2   290  ASP290     -0.2867
     32  CB         3.6650   19.3960   53.1800 C.3   290  ASP290      0.1410
     33  CG         4.3360   20.7070   52.8110 C.2   290  ASP290      0.3668
     34  OD1        4.1880   21.1530   51.6540 O.co2 290  ASP290     -0.2456
     35  OD2        5.0180   21.2900   53.6800 O.co2 290  ASP290     -0.2456
     36  N          8.2030   25.8910   53.0160 N.3   296  THR296     -0.1218
     37  CA         8.9160   25.4660   54.2150 C.3   296  THR296      0.1862
     38  C         10.4240   25.4010   53.9890 C.2   296  THR296      0.2287
     39  O         10.8920   24.8280   53.0040 O.2   296  THR296     -0.2866
     40  CB         8.4210   24.0920   54.7070 C.3   296  THR296      0.1770
     41  OG1        7.0290   24.1740   55.0390 O.3   296  THR296     -0.2211
     42  CG2        9.2040   23.6490   55.9330 C.3   296  THR296      0.0375
     43  N         14.0360   24.1200   55.5470 N.3   298  VAL298     -0.1245
     44  CA        14.6130   23.1880   56.5110 C.3   298  VAL298      0.1561
     45  C         16.1160   23.0060   56.3320 C.2   298  VAL298      0.2260
     46  O         16.5690   22.4430   55.3360 O.2   298  VAL298     -0.2867
     47  CB        13.9410   21.8050   56.4390 C.3   298  VAL298      0.0252
     48  CG1       14.5840   20.8570   57.4410 C.3   298  VAL298      0.0019
     49  CG2       12.4470   21.9230   56.6900 C.3   298  VAL298      0.0019
     50  N         13.7740   13.5710   54.9440 N.3   308  ILE308     -0.1245
     51  CA        12.9170   14.6900   54.5750 C.3   308  ILE308      0.1561
     52  C         12.3700   14.5140   53.1640 C.2   308  ILE308      0.2260
     53  O         11.1940   14.7810   52.9140 O.2   308  ILE308     -0.2867
     54  CB        13.6370   16.0530   54.7130 C.3   308  ILE308      0.0252
     55  CG1       12.6760   17.1070   55.2620 C.3   308  ILE308      0.0019
     56  CG2       14.2240   16.5050   53.3850 C.3   308  ILE308      0.0019
     57  CD1       13.2840   18.4870   55.3570 C.3   308  ILE308      0.0001
     58  N         10.1250   11.3870   53.3550 N.3   311  GLU311     -0.1231
     59  CA         8.8930   11.7580   54.0460 C.3   311  GLU311      0.1699
     60  C          8.1900   12.9020   53.3270 C.2   311  GLU311      0.2592
     61  O          7.1000   13.3080   53.7160 O.2   311  GLU311     -0.2718
     62  CB         9.1810   12.1610   55.4930 C.3   311  GLU311      0.0402
     63  CG         9.6300   11.0210   56.3860 C.3   311  GLU311      0.1161
     64  CD        10.0770   11.5020   57.7510 C.2   311  GLU311      0.3649
     65  OE1        9.6760   12.6160   58.1520 O.co2 311  GLU311     -0.2457
     66  OE2       10.8290   10.7680   58.4230 O.co2 311  GLU311     -0.2457
     67  N          8.8240   13.4230   52.2820 N.am  312  GLY312     -0.1957
     68  CA         8.2440   14.4980   51.4970 C.3   312  GLY312      0.1869
     69  C          7.7580   14.0170   50.1430 C.2   312  GLY312      0.2309
     70  O          7.0700   14.7400   49.4200 O.2   312  GLY312     -0.2863
     71  N          4.3420   11.1260   51.1950 N.3   315  TYR315     -0.1241
     72  CA         3.6090   11.4910   52.4010 C.3   315  TYR315      0.1605
     73  C          2.6130   12.6020   52.0870 C.2   315  TYR315      0.2264
     74  O          1.6720   12.8430   52.8440 O.2   315  TYR315     -0.2867
     75  CB         4.5790   11.9440   53.4940 C.3   315  TYR315      0.0534
     76  CG         4.0040   11.9150   54.8920 C.ar  315  TYR315     -0.0201
     77  CD1        4.2090   10.8240   55.7250 C.ar  315  TYR315     -0.0009
     78  CD2        3.2610   12.9810   55.3820 C.ar  315  TYR315     -0.0009
     79  CE1        3.6890   10.7920   57.0040 C.ar  315  TYR315      0.0417
     80  CE2        2.7350   12.9580   56.6600 C.ar  315  TYR315      0.0417
     81  CZ         2.9540   11.8610   57.4670 C.ar  315  TYR315      0.1957
     82  OH         2.4340   11.8310   58.7410 O.3   315  TYR315     -0.2866
@<TRIPOS>BOND
     1     1     2    1
     2     4     3    2
     3     3     2    1
     4     2     5    1
     5    12    13    1
     6    15    14    2
     7     5     6    1
     8    14    13    1
     9    13    16    1
    10     6     7    1
    11    16    17    1
    12     7     8    1
    13    10     9    1
    14    17    18    1
    15     8     9    2
    16    18    19    1
    17     9    11    1
    18    70    69    2
    19    22    21    1
    20    22    23    2
    21    21    20    1
    22    21    24    1
    23    69    68    1
    24    24    26    1
    25    24    25    1
    26    28    29    1
    27    71    72    1
    28    27    25    1
    29    68    67    1
    30    34    33   ar
    31    73    72    1
    32    73    74    2
    33    67    60   am
    34    29    30    1
    35    29    32    1
    36    72    75    1
    37    30    31    2
    38    33    32    1
    39    33    35   ar
    40    53    52    2
    41    39    38    2
    42    36    37    1
    43    52    51    1
    44    60    61    2
    45    60    59    1
    46    58    59    1
    47    56    54    1
    48    75    76    1
    49    38    37    1
    50    59    62    1
    51    37    40    1
    52    51    54    1
    53    51    50    1
    54    40    41    1
    55    40    42    1
    56    54    55    1
    57    76    78   ar
    58    76    77   ar
    59    55    57    1
    60    46    45    2
    61    78    80   ar
    62    62    63    1
    63    43    44    1
    64    77    79   ar
    65    45    44    1
    66    63    64    1
    67    47    44    1
    68    47    49    1
    69    47    48    1
    70    80    81   ar
    71    79    81   ar
    72    81    82    1
    73    64    65   ar
    74    64    66   ar
