@<TRIPOS>MOLECULE
tmp/3hvoA00.pdb
 142 136 0 0 0
SMALL
GASTEIGER

@<TRIPOS>ATOM
      1  N         44.4400    0.5170   70.3850 N.3   415  ILE415     -0.1245
      2  CA        43.1750   -0.1530   70.6480 C.3   415  ILE415      0.1561
      3  C         42.8640   -1.1480   69.5570 C.2   415  ILE415      0.2260
      4  O         42.2950   -2.2000   69.8350 O.2   415  ILE415     -0.2867
      5  CB        42.0100    0.8600   70.8310 C.3   415  ILE415      0.0252
      6  CG1       40.7850    0.1550   71.4260 C.3   415  ILE415      0.0019
      7  CG2       41.6650    1.5350   69.4980 C.3   415  ILE415      0.0019
      8  CD1       39.6380    1.1050   71.8470 C.3   415  ILE415      0.0001
      9  N         45.1070   -4.3070   70.0160 N.3   418  ARG418     -0.1231
     10  CA        44.8110   -5.0220   71.2440 C.3   418  ARG418      0.1694
     11  C         43.4530   -5.7310   71.1780 C.2   418  ARG418      0.2591
     12  O         43.3370   -6.8650   71.6180 O.2   418  ARG418     -0.2718
     13  CB        44.8500   -4.0660   72.4340 C.3   418  ARG418      0.0321
     14  CG        46.2830   -3.5710   72.7500 C.3   418  ARG418      0.0489
     15  CD        46.2700   -2.4420   73.7340 C.3   418  ARG418      0.2205
     16  NE        46.0270   -2.9280   75.0830 N.pl3 418  ARG418     -0.0865
     17  CZ        45.5670   -2.2080   76.0810 C.cat 418  ARG418      0.5346
     18  NH1       45.2080   -0.9420   75.9000 N.pl3 418  ARG418      0.1354
     19  NH2       45.4470   -2.7690   77.2790 N.pl3 418  ARG418      0.1354
     20  N         42.4430   -5.0550   70.6180 N.am  419  MET419     -0.1979
     21  CA        41.0790   -5.5650   70.6390 C.3   419  MET419      0.1605
     22  C         40.7890   -6.4810   69.4460 C.2   419  MET419      0.2287
     23  O         40.1400   -7.5030   69.6180 O.2   419  MET419     -0.2864
     24  CB        40.0530   -4.4270   70.7360 C.3   419  MET419      0.0413
     25  CG        40.0990   -3.6440   72.0560 C.3   419  MET419      0.0598
     26  SD        38.6510   -2.5310   72.1980 S.3   419  MET419     -0.1393
     27  CE        37.4390   -3.6130   72.9900 C.3   419  MET419      0.0692
     28  N         47.9180   -1.5480   79.6310 N.3   469  SER469     -0.1202
     29  CA        46.9010   -0.8610   80.4370 C.3   469  SER469      0.2020
     30  C         46.3820    0.4770   79.8970 C.2   469  SER469      0.2619
     31  O         45.6410    1.1830   80.6150 O.2   469  SER469     -0.2717
     32  CB        47.4220   -0.6590   81.8690 C.3   469  SER469      0.2103
     33  OG        48.4710    0.3180   81.9040 O.3   469  SER469     -0.2182
     34  N         46.7560    0.8570   78.6620 N.am  470  LEU470     -0.1965
     35  CA        46.2580    2.1210   78.0750 C.3   470  LEU470      0.1728
     36  C         44.7420    2.1150   77.9800 C.2   470  LEU470      0.2616
     37  O         44.1250    1.0800   77.6480 O.2   470  LEU470     -0.2715
     38  CB        46.8700    2.4440   76.6900 C.3   470  LEU470      0.0311
     39  CG        48.3890    2.6220   76.6430 C.3   470  LEU470      0.0022
     40  CD1       48.7700    3.1790   75.3340 C.3   470  LEU470      0.0001
     41  CD2       48.8690    3.5650   77.8030 C.3   470  LEU470      0.0001
     42  N         44.1350    3.2600   78.2950 N.am  471  HIS471     -0.1959
     43  CA        42.6850    3.4060   78.2360 C.3   471  HIS471      0.1787
     44  C         42.4380    4.8850   77.9730 C.2   471  HIS471      0.2621
     45  O         43.3980    5.6670   77.9930 O.2   471  HIS471     -0.2715
     46  CB        42.0300    2.9200   79.5600 C.3   471  HIS471      0.0785
     47  CG        42.4560    3.6990   80.7660 C.ar  471  HIS471      0.0821
     48  ND1       41.7710    4.8050   81.2160 N.ar  471  HIS471     -0.2267
     49  CD2       43.5210    3.5580   81.5940 C.ar  471  HIS471      0.1154
     50  CE1       42.3790    5.3000   82.2800 C.ar  471  HIS471      0.1986
     51  NE2       43.4460    4.5610   82.5290 N.ar  471  HIS471     -0.2212
     52  N         41.1820    5.2840   77.7570 N.am  472  THR472     -0.1937
     53  CA        40.8550    6.7100   77.5130 C.3   472  THR472      0.2028
     54  C         41.6540    7.2300   76.2850 C.2   472  THR472      0.2642
     55  O         42.3530    8.2340   76.3320 O.2   472  THR472     -0.2714
     56  CB        41.1050    7.5870   78.7600 C.3   472  THR472      0.1808
     57  OG1       40.5060    6.9520   79.9090 O.3   472  THR472     -0.2208
     58  CG2       40.5060    9.0030   78.5810 C.3   472  THR472      0.0379
     59  N         41.5600    6.6200   75.2340 N.am  473  TYR473     -0.1973
     60  CA        42.0620    6.9050   73.9040 C.3   473  TYR473      0.1639
     61  C         41.4480    8.2410   73.4420 C.2   473  TYR473      0.2290
     62  O         40.3970    8.6570   73.9270 O.2   473  TYR473     -0.2864
     63  CB        42.2360    6.2910   72.8640 C.3   473  TYR473      0.0560
     64  CG        42.9400    4.9530   73.1190 C.ar  473  TYR473     -0.0198
     65  CD1       42.2970    3.9150   73.7520 C.ar  473  TYR473     -0.0009
     66  CD2       44.2200    4.7640   72.5710 C.ar  473  TYR473     -0.0009
     67  CE1       42.9370    2.6510   73.9360 C.ar  473  TYR473      0.0417
     68  CE2       44.8610    3.4770   72.7620 C.ar  473  TYR473      0.0417
     69  CZ        44.2050    2.4730   73.3970 C.ar  473  TYR473      0.1957
     70  OH        44.8170    1.2750   73.5610 O.3   473  TYR473     -0.2866
     71  N         39.7210    7.0540   68.2360 N.3   478  LEU478     -0.1245
     72  CA        38.5290    6.2200   68.2940 C.3   478  LEU478      0.1561
     73  C         37.6150    6.4210   67.1010 C.2   478  LEU478      0.2260
     74  O         37.0200    5.4820   66.6390 O.2   478  LEU478     -0.2867
     75  CB        37.7560    6.4770   69.5750 C.3   478  LEU478      0.0270
     76  CG        38.5090    6.1070   70.8450 C.3   478  LEU478      0.0019
     77  CD1       37.7040    6.6220   72.0320 C.3   478  LEU478      0.0001
     78  CD2       38.7440    4.6000   70.9210 C.3   478  LEU478      0.0001
     79  N         36.5720    3.2570   64.6490 N.3   482  ALA482     -0.1245
     80  CA        35.1370    3.0780   64.3410 C.3   482  ALA482      0.1562
     81  C         34.7820    3.1770   62.8490 C.2   482  ALA482      0.2260
     82  O         34.0310    2.3550   62.3410 O.2   482  ALA482     -0.2867
     83  CB        34.3060    4.0660   65.1130 C.3   482  ALA482      0.0290
     84  N         36.0360   -0.0600   61.1110 N.3   485  LEU485     -0.1245
     85  CA        35.2030   -1.2270   61.3990 C.3   485  LEU485      0.1561
     86  C         33.9110   -1.1860   60.5620 C.2   485  LEU485      0.2260
     87  O         33.4620   -2.2080   60.0470 O.2   485  LEU485     -0.2867
     88  CB        34.8800   -1.3420   62.8960 C.3   485  LEU485      0.0270
     89  CG        36.0650   -1.4400   63.8620 C.3   485  LEU485      0.0019
     90  CD1       35.5550   -1.5630   65.2990 C.3   485  LEU485      0.0001
     91  CD2       36.9630   -2.6020   63.5100 C.3   485  LEU485      0.0001
     92  N         33.6540   -3.0390   68.4100 N.3   493  LEU493     -0.1231
     93  CA        34.6270   -3.2750   69.4830 C.3   493  LEU493      0.1693
     94  C         34.0520   -4.1000   70.6190 C.2   493  LEU493      0.2591
     95  O         34.7530   -4.9070   71.2090 O.2   493  LEU493     -0.2718
     96  CB        35.1620   -1.9430   70.0280 C.3   493  LEU493      0.0284
     97  CG        36.0800   -1.1810   69.0650 C.3   493  LEU493      0.0019
     98  CD1       36.4950    0.1610   69.6830 C.3   493  LEU493      0.0001
     99  CD2       37.2990   -2.0310   68.6760 C.3   493  LEU493      0.0001
    100  N         32.7730   -3.9170   70.9190 N.am  494  ARG494     -0.1980
    101  CA        32.1490   -4.6610   72.0280 C.3   494  ARG494      0.1597
    102  C         32.1210   -6.1730   71.7800 C.2   494  ARG494      0.2287
    103  O         32.2600   -6.9560   72.7190 O.2   494  ARG494     -0.2864
    104  CB        30.7470   -4.1250   72.3300 C.3   494  ARG494      0.0334
    105  CG        29.7300   -4.3260   71.2140 C.3   494  ARG494      0.0492
    106  CD        28.3860   -3.6330   71.4720 C.3   494  ARG494      0.2205
    107  NE        27.4600   -3.7640   70.3420 N.pl3 494  ARG494     -0.0865
    108  CZ        27.3890   -2.9230   69.3090 C.cat 494  ARG494      0.5346
    109  NH1       28.1650   -1.8510   69.2320 N.pl3 494  ARG494      0.1354
    110  NH2       26.5160   -3.1450   68.3380 N.pl3 494  ARG494      0.1354
    111  N         35.5470   -7.5650   72.4130 N.3   497  LYS497     -0.1245
    112  CA        35.7770   -7.7650   73.8390 C.3   497  LYS497      0.1561
    113  C         35.2120   -9.1130   74.2740 C.2   497  LYS497      0.2260
    114  O         35.8790   -9.8620   75.0070 O.2   497  LYS497     -0.2867
    115  CB        35.1830   -6.6230   74.6640 C.3   497  LYS497      0.0271
    116  CG        35.3130   -6.7870   76.1780 C.3   497  LYS497      0.0035
    117  CD        34.9830   -5.4850   76.9190 C.3   497  LYS497      0.0206
    118  CE        35.0610   -5.6460   78.4370 C.3   497  LYS497      0.1093
    119  NZ        35.0110   -4.3170   79.1630 N.3   497  LYS497     -0.1314
    120  N         42.9970   -6.0010   79.5130 N.3   524  TRP524     -0.1241
    121  CA        41.9640   -5.0170   79.1590 C.3   524  TRP524      0.1605
    122  C         40.5500   -5.6360   79.0950 C.2   524  TRP524      0.2264
    123  O         39.5520   -4.9340   79.2760 O.2   524  TRP524     -0.2867
    124  CB        42.2790   -4.3260   77.8150 C.3   524  TRP524      0.0550
    125  CG        42.3570   -5.2470   76.6540 C.ar  524  TRP524      0.0003
    126  CD1       43.4770   -5.8440   76.1610 C.ar  524  TRP524      0.0946
    127  CD2       41.2700   -5.6970   75.8290 C.ar  524  TRP524      0.0152
    128  NE1       43.1650   -6.6410   75.0850 N.ar  524  TRP524     -0.2442
    129  CE2       41.8170   -6.5650   74.8530 C.ar  524  TRP524      0.0810
    130  CE3       39.8860   -5.4610   75.8180 C.ar  524  TRP524      0.0012
    131  CZ2       41.0370   -7.1910   73.8830 C.ar  524  TRP524      0.0191
    132  CZ3       39.1120   -6.0650   74.8300 C.ar  524  TRP524      0.0001
    133  CH2       39.6920   -6.9180   73.8760 C.ar  524  TRP524      0.0015
    134  N         40.8220   -6.5910   87.1930 N.3   529  LYS529     -0.1245
    135  CA        42.1050   -6.5510   86.5020 C.3   529  LYS529      0.1561
    136  C         43.2400   -7.0270   87.3980 C.2   529  LYS529      0.2260
    137  O         43.2480   -6.7630   88.5970 O.2   529  LYS529     -0.2867
    138  CB        42.3550   -5.1610   85.9340 C.3   529  LYS529      0.0271
    139  CG        41.5580   -4.9690   84.6390 C.3   529  LYS529      0.0035
    140  CD        41.3090   -3.5400   84.2980 C.3   529  LYS529      0.0206
    141  CE        40.6760   -3.4320   82.9100 C.3   529  LYS529      0.1093
    142  NZ        39.2810   -3.8120   82.9410 N.3   529  LYS529     -0.1314
@<TRIPOS>BOND
     1    87    86    2
     2    86    85    1
     3    84    85    1
     4    85    88    1
     5    82    81    2
     6    81    80    1
     7    88    89    1
     8    91    89    1
     9    89    90    1
    10    80    79    1
    11    80    83    1
    12    74    73    2
    13    73    72    1
    14    71    72    1
    15    72    75    1
    16   110   108    1
    17    92    93    1
    18    99    97    1
    19    97    98    1
    20    97    96    1
    21   109   108    1
    22   108   107    2
    23    22    23    2
    24    22    21    1
    25    93    96    1
    26    93    94    1
    27     7     5    1
    28     3     4    2
    29     3     2    1
    30    75    76    1
    31     9    10    1
    32   107   106    1
    33     1     2    1
    34    20    21    1
    35    20    11   am
    36    94   100   am
    37    94    95    2
    38    21    24    1
    39     2     5    1
    40    24    25    1
    41     5     6    1
    42    76    78    1
    43    76    77    1
    44   100   101    1
    45    11    10    1
    46    11    12    2
    47   105   106    1
    48   105   104    1
    49    10    13    1
    50     6     8    1
    51   102   101    1
    52   102   103    2
    53   101   104    1
    54    25    26    1
    55    26    27    1
    56   111   112    1
    57    13    14    1
    58    66    68   ar
    59    66    64   ar
    60    14    15    1
    61    68    69   ar
    62    63    64    1
    63    63    60    1
    64    64    65   ar
    65    69    70    1
    66    69    67   ar
    67    61    60    1
    68    61    62    2
    69    15    16    1
    70    65    67   ar
    71   112   113    1
    72   112   115    1
    73   133   131   ar
    74   133   132   ar
    75   131   129   ar
    76    60    59    1
    77   113   114    2
    78   115   116    1
    79   132   130   ar
    80   129   128   ar
    81   129   127   ar
    82    16    17    2
    83   128   126   ar
    84    59    54   am
    85    40    39    1
    86   130   127   ar
    87   127   125   ar
    88    18    17    1
    89    17    19    1
    90   126   125   ar
    91   116   117    1
    92    54    55    2
    93    54    53    1
    94    39    38    1
    95    39    41    1
    96   125   124    1
    97    38    35    1
    98   117   118    1
    99    53    52    1
   100    53    56    1
   101    37    36    2
   102    52    44   am
   103   124   121    1
   104    44    45    2
   105    44    43    1
   106    36    35    1
   107    36    42   am
   108    35    34    1
   109    43    42    1
   110    43    46    1
   111   118   119    1
   112    58    56    1
   113    34    30   am
   114    56    57    1
   115   122   121    1
   116   122   123    2
   117   121   120    1
   118    46    47    1
   119    28    29    1
   120    30    29    1
   121    30    31    2
   122    29    32    1
   123    47    48   ar
   124    47    49   ar
   125    48    50   ar
   126    49    51   ar
   127    32    33    1
   128    50    51   ar
   129   141   142    1
   130   141   140    1
   131   140   139    1
   132   139   138    1
   133   138   135    1
   134   135   134    1
   135   135   136    1
   136   136   137    2
