@<TRIPOS>MOLECULE
tmp/3hvuB00.pdb
 93 88 0 0 0
SMALL
GASTEIGER

@<TRIPOS>ATOM
      1  N          5.6520   13.0580   21.0390 N.3    47  VAL47      -0.1231
      2  CA         6.1670   11.9110   20.2570 C.3    47  VAL47       0.1692
      3  C          7.3770   12.4520   19.5330 C.2    47  VAL47       0.2591
      4  O          7.2880   13.4360   18.7860 O.2    47  VAL47      -0.2718
      5  CB         5.1480   11.3080   19.2630 C.3    47  VAL47       0.0266
      6  CG1        5.7370   10.0320   18.6050 C.3    47  VAL47       0.0020
      7  CG2        3.8520   10.9340   19.9780 C.3    47  VAL47       0.0020
      8  N          8.5240   11.8400   19.7950 N.am   48  LEU48      -0.1980
      9  CA         9.7900   12.2470   19.1860 C.3    48  LEU48       0.1596
     10  C          9.7140   12.0640   17.6570 C.2    48  LEU48       0.2287
     11  O          9.0800   11.1180   17.1690 O.2    48  LEU48      -0.2864
     12  CB        10.9450   11.4190   19.7810 C.3    48  LEU48       0.0297
     13  CG        11.1930   11.5360   21.2950 C.3    48  LEU48       0.0022
     14  CD1       12.2020   10.5310   21.7650 C.3    48  LEU48       0.0001
     15  CD2       11.6350   12.9320   21.6950 C.3    48  LEU48       0.0001
     16  N          9.7010   15.4030   16.1890 N.3    50  GLY50      -0.1225
     17  CA         9.1160   16.6640   15.7360 C.3    50  GLY50       0.1811
     18  C          8.4410   17.6050   16.7190 C.2    50  GLY50       0.2280
     19  O          8.4430   18.8270   16.5390 O.2    50  GLY50      -0.2866
     20  N          1.8660   17.8930   19.8030 N.3   105  GLU105     -0.1231
     21  CA         2.3120   17.5240   18.4720 C.3   105  GLU105      0.1699
     22  C          2.6690   18.7480   17.6500 C.2   105  GLU105      0.2592
     23  O          2.2260   19.8540   17.9520 O.2   105  GLU105     -0.2718
     24  CB         1.1620   16.7340   17.8330 C.3   105  GLU105      0.0402
     25  CG         1.3590   16.2090   16.4460 C.3   105  GLU105      0.1161
     26  CD         2.5140   15.2420   16.3120 C.2   105  GLU105      0.3649
     27  OE1        2.2640   14.1280   15.8100 O.co2 105  GLU105     -0.2457
     28  OE2        3.6500   15.5740   16.7230 O.co2 105  GLU105     -0.2457
     29  N          3.4940   18.5660   16.6190 N.am  106  ASP106     -0.1960
     30  CA         3.8570   19.6960   15.7760 C.3   106  ASP106      0.1840
     31  C          2.8560   19.8940   14.6380 C.2   106  ASP106      0.2622
     32  O          2.4930   21.0280   14.3330 O.2   106  ASP106     -0.2715
     33  CB         5.3290   19.6640   15.3070 C.3   106  ASP106      0.1450
     34  CG         5.6920   18.4400   14.4750 C.2   106  ASP106      0.3671
     35  OD1        4.9870   17.4050   14.4960 O.co2 106  ASP106     -0.2456
     36  OD2        6.7520   18.5230   13.8090 O.co2 106  ASP106     -0.2456
     37  N          2.3890   18.8020   14.0470 N.am  107  ILE107     -0.1963
     38  CA         1.4010   18.8690   12.9690 C.3   107  ILE107      0.1727
     39  C          0.5540   17.5930   12.8990 C.2   107  ILE107      0.2616
     40  O          1.0510   16.4950   13.1720 O.2   107  ILE107     -0.2715
     41  CB         2.0650   19.1360   11.5880 C.3   107  ILE107      0.0290
     42  CG1        1.0020   19.3930   10.5220 C.3   107  ILE107      0.0022
     43  CG2        2.9660   17.9640   11.1640 C.3   107  ILE107      0.0023
     44  CD1        1.5650   19.9230    9.2050 C.3   107  ILE107      0.0001
     45  N         -0.7400   17.7610   12.6070 N.am  108  ILE108     -0.1963
     46  CA        -1.6790   16.6500   12.4390 C.3   108  ILE108      0.1727
     47  C         -2.1150   16.7260   10.9900 C.2   108  ILE108      0.2616
     48  O         -2.6870   17.7290   10.5480 O.2   108  ILE108     -0.2715
     49  CB        -2.9230   16.7430   13.3310 C.3   108  ILE108      0.0290
     50  CG1       -2.5370   16.8670   14.7920 C.3   108  ILE108      0.0022
     51  CG2       -3.8090   15.5150   13.1360 C.3   108  ILE108      0.0023
     52  CD1       -3.7460   16.8790   15.7260 C.3   108  ILE108      0.0001
     53  N         -1.8530   15.6580   10.2540 N.am  109  ASP109     -0.1957
     54  CA        -2.1470   15.6090    8.8330 C.3   109  ASP109      0.1840
     55  C         -3.1520   14.4930    8.5860 C.2   109  ASP109      0.2623
     56  O         -4.3560   14.7380    8.5930 O.2   109  ASP109     -0.2715
     57  CB        -0.8120   15.3970    8.1160 C.3   109  ASP109      0.1450
     58  CG        -0.9070   15.5070    6.6200 C.2   109  ASP109      0.3671
     59  OD1       -1.9950   15.3010    6.0500 O.co2 109  ASP109     -0.2456
     60  OD2        0.1400   15.8130    5.9980 O.co2 109  ASP109     -0.2456
     61  N         -2.6820   13.2650    8.4110 N.am  110  SER110     -0.1936
     62  CA        -3.5910   12.1490    8.1940 C.3   110  SER110      0.2055
     63  C         -4.3790   11.8250    9.4640 C.2   110  SER110      0.2643
     64  O         -5.4990   11.3420    9.3790 O.2   110  SER110     -0.2714
     65  CB        -2.8240   10.8930    7.7780 C.3   110  SER110      0.2130
     66  OG        -2.0880   10.3780    8.8810 O.3   110  SER110     -0.2179
     67  N         -3.7760   12.0910   10.6330 N.am  111  GLY111     -0.1954
     68  CA        -4.3850   11.7870   11.9300 C.3   111  GLY111      0.1869
     69  C         -4.3110   10.2900   12.3010 C.2   111  GLY111      0.2309
     70  O         -4.8060    9.8640   13.3510 O.2   111  GLY111     -0.2863
     71  N         -1.5840    7.9060   12.9930 N.3   113  THR113     -0.1203
     72  CA        -0.7470    7.4910   14.1090 C.3   113  THR113      0.1994
     73  C         -1.2220    8.1160   15.4190 C.2   113  THR113      0.2617
     74  O         -1.2270    7.4660   16.4650 O.2   113  THR113     -0.2717
     75  CB         0.7290    7.8360   13.8490 C.3   113  THR113      0.1784
     76  OG1        1.1810    7.1210   12.6910 O.3   113  THR113     -0.2211
     77  CG2        1.5960    7.4520   15.0440 C.3   113  THR113      0.0376
     78  N         -1.6620    9.3660   15.3570 N.am  114  LEU114     -0.1979
     79  CA        -2.1100   10.0310   16.5420 C.3   114  LEU114      0.1596
     80  C         -3.4070    9.3690   17.0510 C.2   114  LEU114      0.2287
     81  O         -3.5880    9.1720   18.2570 O.2   114  LEU114     -0.2864
     82  CB        -2.2790   11.5030   16.2740 C.3   114  LEU114      0.0297
     83  CG        -2.2810   12.4670   17.4430 C.3   114  LEU114      0.0022
     84  CD1       -1.0630   12.2310   18.3210 C.3   114  LEU114      0.0001
     85  CD2       -2.2790   13.8860   16.8810 C.3   114  LEU114      0.0001
     86  N          9.8300   20.5230   12.3030 N.3   164  LEU164     -0.1245
     87  CA         9.5610   19.8920   11.0060 C.3   164  LEU164      0.1561
     88  C         10.8520   19.7620   10.1900 C.2   164  LEU164      0.2260
     89  O         11.6020   20.7250   10.0490 O.2   164  LEU164     -0.2867
     90  CB         8.4870   20.6930   10.2490 C.3   164  LEU164      0.0270
     91  CG         7.0760   20.6610   10.8740 C.3   164  LEU164      0.0019
     92  CD1        6.1990   21.7320   10.2780 C.3   164  LEU164      0.0001
     93  CD2        6.4340   19.2490   10.7050 C.3   164  LEU164      0.0001
@<TRIPOS>BOND
     1    60    58   ar
     2    59    58   ar
     3    58    57    1
     4    65    62    1
     5    65    66    1
     6    57    54    1
     7    62    61    1
     8    62    63    1
     9    61    55   am
    10    55    56    2
    11    55    54    1
    12    54    53    1
    13    44    42    1
    14    64    63    2
    15    63    67   am
    16    89    88    2
    17    88    87    1
    18    90    91    1
    19    90    87    1
    20    53    47   am
    21    92    91    1
    22    42    41    1
    23    48    47    2
    24    67    68    1
    25    93    91    1
    26    47    46    1
    27    87    86    1
    28    43    41    1
    29    41    38    1
    30    68    69    1
    31    69    70    2
    32    46    45    1
    33    46    49    1
    34    45    39   am
    35    76    75    1
    36    39    38    1
    37    39    40    2
    38    38    37    1
    39    71    72    1
    40    51    49    1
    41    49    50    1
    42    36    34   ar
    43    75    72    1
    44    75    77    1
    45    37    31   am
    46    72    73    1
    47    32    31    2
    48    34    35   ar
    49    34    33    1
    50    31    30    1
    51    50    52    1
    52    33    30    1
    53    78    73   am
    54    78    79    1
    55    73    74    2
    56    17    16    1
    57    17    18    1
    58    30    29    1
    59    27    26   ar
    60    82    79    1
    61    82    83    1
    62    26    25    1
    63    26    28   ar
    64    25    24    1
    65    19    18    2
    66    79    80    1
    67    29    22   am
    68    85    83    1
    69    80    81    2
    70    11    10    2
    71    83    84    1
    72    22    23    2
    73    22    21    1
    74    10     9    1
    75    24    21    1
    76    21    20    1
    77     6     5    1
    78     4     3    2
    79     9    12    1
    80     9     8    1
    81     5     7    1
    82     5     2    1
    83     3     8   am
    84     3     2    1
    85    12    13    1
    86     2     1    1
    87    13    15    1
    88    13    14    1
