@<TRIPOS>MOLECULE
tmp/3hw1C00.pdb
 151 140 0 0 0
SMALL
GASTEIGER

@<TRIPOS>ATOM
      1  N        -37.8890  -52.6450   13.5510 N.3    35  LEU35      -0.1245
      2  CA       -36.9850  -52.0430   14.5460 C.3    35  LEU35       0.1561
      3  C        -36.9130  -52.9120   15.8210 C.2    35  LEU35       0.2260
      4  O        -37.9360  -53.2900   16.3730 O.2    35  LEU35      -0.2867
      5  CB       -37.4660  -50.6450   14.9270 C.3    35  LEU35       0.0270
      6  CG       -36.4760  -49.8080   15.7520 C.3    35  LEU35       0.0019
      7  CD1      -35.5140  -49.1110   14.8350 C.3    35  LEU35       0.0001
      8  CD2      -37.1940  -48.7920   16.6440 C.3    35  LEU35       0.0001
      9  N        -36.2560  -52.9150   19.5340 N.3    37  ASP37      -0.1239
     10  CA       -36.3320  -51.8460   20.5460 C.3    37  ASP37       0.1674
     11  C        -36.5760  -52.3950   21.9530 C.2    37  ASP37       0.2266
     12  O        -37.7020  -52.7840   22.2840 O.2    37  ASP37      -0.2867
     13  CB       -37.4540  -50.8930   20.1480 C.3    37  ASP37       0.1410
     14  CG       -37.7140  -49.8090   21.1690 C.2    37  ASP37       0.3668
     15  OD1      -36.7790  -49.4000   21.8870 O.co2  37  ASP37      -0.2456
     16  OD2      -38.8700  -49.3390   21.2280 O.co2  37  ASP37      -0.2456
     17  N        -36.5320  -50.6580   24.5640 N.3    39  GLY39      -0.1210
     18  CA       -37.1060  -49.5510   25.3320 C.3    39  GLY39       0.1956
     19  C        -38.6230  -49.4940   25.2730 C.2    39  GLY39       0.2612
     20  O        -39.2280  -48.7290   26.0030 O.2    39  GLY39      -0.2717
     21  N        -39.2470  -50.2920   24.4020 N.am   40  SER40      -0.1952
     22  CA       -40.7190  -50.4210   24.3920 C.3    40  SER40       0.1924
     23  C        -41.1490  -51.8850   24.5280 C.2    40  SER40       0.2314
     24  O        -40.3230  -52.7750   24.6100 O.2    40  SER40      -0.2863
     25  CB       -41.3090  -49.7790   23.1380 C.3    40  SER40       0.2116
     26  OG       -41.0500  -50.5690   21.9760 O.3    40  SER40      -0.2180
     27  N        -51.0320  -44.7410   21.1240 N.3    74  VAL74      -0.1245
     28  CA       -49.7160  -44.5780   21.7320 C.3    74  VAL74       0.1561
     29  C        -49.1350  -43.2030   21.4210 C.2    74  VAL74       0.2260
     30  O        -48.4290  -43.0230   20.4180 O.2    74  VAL74      -0.2867
     31  CB       -48.7560  -45.6750   21.2660 C.3    74  VAL74       0.0252
     32  CG1      -47.3680  -45.4990   21.8990 C.3    74  VAL74       0.0019
     33  CG2      -49.3290  -47.0280   21.6280 C.3    74  VAL74       0.0019
     34  N        -46.4940  -40.2850   22.4740 N.3    76  TYR76      -0.1241
     35  CA       -45.2470  -40.0500   23.1830 C.3    76  TYR76       0.1605
     36  C        -44.8840  -38.6030   22.8720 C.2    76  TYR76       0.2264
     37  O        -45.3720  -38.0490   21.8890 O.2    76  TYR76      -0.2867
     38  CB       -44.1580  -41.0450   22.7460 C.3    76  TYR76       0.0534
     39  CG       -43.9470  -41.1390   21.2460 C.ar   76  TYR76      -0.0201
     40  CD1      -44.8370  -41.8410   20.4410 C.ar   76  TYR76      -0.0009
     41  CD2      -42.8500  -40.5310   20.6340 C.ar   76  TYR76      -0.0009
     42  CE1      -44.6480  -41.9260   19.0600 C.ar   76  TYR76       0.0417
     43  CE2      -42.6520  -40.6100   19.2550 C.ar   76  TYR76       0.0417
     44  CZ       -43.5550  -41.3050   18.4750 C.ar   76  TYR76       0.1957
     45  OH       -43.3610  -41.3800   17.1150 O.3    76  TYR76      -0.2866
     46  N        -48.4750  -42.8130   17.5000 N.3    81  TRP81      -0.1241
     47  CA       -48.9770  -43.8280   16.5780 C.3    81  TRP81       0.1605
     48  C        -50.2350  -44.4920   17.1150 C.2    81  TRP81       0.2264
     49  O        -50.3990  -44.6720   18.3210 O.2    81  TRP81      -0.2867
     50  CB       -47.9070  -44.8610   16.2090 C.3    81  TRP81       0.0550
     51  CG       -47.5490  -45.8490   17.2670 C.ar   81  TRP81       0.0003
     52  CD1      -46.4400  -45.8360   18.0450 C.ar   81  TRP81       0.0946
     53  CD2      -48.2830  -47.0200   17.6340 C.ar   81  TRP81       0.0152
     54  NE1      -46.4410  -46.9130   18.8930 N.ar   81  TRP81      -0.2442
     55  CE2      -47.5620  -47.6590   18.6580 C.ar   81  TRP81       0.0810
     56  CE3      -49.4860  -47.5860   17.2030 C.ar   81  TRP81       0.0012
     57  CZ2      -47.9980  -48.8420   19.2560 C.ar   81  TRP81       0.0191
     58  CZ3      -49.9230  -48.7580   17.8010 C.ar   81  TRP81       0.0001
     59  CH2      -49.1810  -49.3720   18.8190 C.ar   81  TRP81       0.0015
     60  N        -43.4310  -40.8720   13.3920 N.3   113  PHE113     -0.1241
     61  CA       -43.0800  -42.1670   13.9720 C.3   113  PHE113      0.1605
     62  C        -42.1780  -42.9210   13.0220 C.2   113  PHE113      0.2264
     63  O        -41.0680  -43.3180   13.3770 O.2   113  PHE113     -0.2867
     64  CB       -44.3350  -42.9830   14.2590 C.3   113  PHE113      0.0534
     65  CG       -44.0480  -44.3770   14.6940 C.ar  113  PHE113     -0.0203
     66  CD1      -43.7140  -44.6460   16.0070 C.ar  113  PHE113     -0.0042
     67  CD2      -44.1050  -45.4280   13.7880 C.ar  113  PHE113     -0.0042
     68  CE1      -43.4420  -45.9400   16.4130 C.ar  113  PHE113     -0.0003
     69  CE2      -43.8280  -46.7210   14.1870 C.ar  113  PHE113     -0.0003
     70  CZ       -43.4970  -46.9780   15.5040 C.ar  113  PHE113     -0.0000
     71  N        -42.1090  -52.0810   14.6130 N.3   123  ILE123     -0.1245
     72  CA       -41.2720  -52.0530   15.8070 C.3   123  ILE123      0.1561
     73  C        -41.4440  -53.3280   16.6120 C.2   123  ILE123      0.2260
     74  O        -42.5650  -53.7120   16.9420 O.2   123  ILE123     -0.2867
     75  CB       -41.6260  -50.8260   16.6930 C.3   123  ILE123      0.0252
     76  CG1      -40.6720  -50.6830   17.8790 C.3   123  ILE123      0.0019
     77  CG2      -43.0380  -50.9170   17.2470 C.3   123  ILE123      0.0019
     78  CD1      -40.7430  -49.3320   18.4950 C.3   123  ILE123      0.0001
     79  N        -39.0230  -51.1220   32.0790 N.3   193  TYR193     -0.1241
     80  CA       -37.8640  -50.9800   31.2020 C.3   193  TYR193      0.1605
     81  C        -36.7970  -51.9420   31.7050 C.2   193  TYR193      0.2264
     82  O        -36.9340  -52.4860   32.7980 O.2   193  TYR193     -0.2867
     83  CB       -37.3190  -49.5580   31.2720 C.3   193  TYR193      0.0534
     84  CG       -38.2430  -48.5200   30.6960 C.ar  193  TYR193     -0.0201
     85  CD1      -38.3730  -48.3800   29.3220 C.ar  193  TYR193     -0.0009
     86  CD2      -38.9850  -47.6700   31.5210 C.ar  193  TYR193     -0.0009
     87  CE1      -39.2170  -47.4340   28.7750 C.ar  193  TYR193      0.0417
     88  CE2      -39.8410  -46.7100   30.9740 C.ar  193  TYR193      0.0417
     89  CZ       -39.9430  -46.6030   29.5930 C.ar  193  TYR193      0.1957
     90  OH       -40.7640  -45.6820   28.9900 O.3   193  TYR193     -0.2866
     91  N        -33.9930  -42.7300   36.6740 N.3   219  LYS219     -0.1245
     92  CA       -33.7930  -44.1530   36.4160 C.3   219  LYS219      0.1561
     93  C        -32.6800  -44.3140   35.4250 C.2   219  LYS219      0.2260
     94  O        -32.3350  -43.3750   34.7120 O.2   219  LYS219     -0.2867
     95  CB       -35.0570  -44.7960   35.8390 C.3   219  LYS219      0.0271
     96  CG       -35.5650  -44.1390   34.5520 C.3   219  LYS219      0.0035
     97  CD       -36.8910  -44.7460   34.0720 C.3   219  LYS219      0.0206
     98  CE       -37.3400  -44.1290   32.7530 C.3   219  LYS219      0.1093
     99  NZ       -37.5150  -42.6560   32.8600 N.3   219  LYS219     -0.1314
    100  N        -31.7510  -46.9620   32.2210 N.3   221  ILE221     -0.1245
    101  CA       -32.2000  -48.0680   31.3550 C.3   221  ILE221      0.1561
    102  C        -31.2730  -48.3740   30.1760 C.2   221  ILE221      0.2260
    103  O        -30.6220  -47.4860   29.6320 O.2   221  ILE221     -0.2867
    104  CB       -33.6040  -47.8170   30.7490 C.3   221  ILE221      0.0252
    105  CG1      -33.5280  -46.8480   29.5520 C.3   221  ILE221      0.0019
    106  CG2      -34.5580  -47.3360   31.8150 C.3   221  ILE221      0.0019
    107  CD1      -34.8210  -46.7040   28.7870 C.3   221  ILE221      0.0001
    108  N        -31.3540  -49.3480   26.3880 N.3   223  ASP223     -0.1239
    109  CA       -32.3980  -49.1180   25.3610 C.3   223  ASP223      0.1674
    110  C        -31.8990  -49.0930   23.9030 C.2   223  ASP223      0.2266
    111  O        -31.5490  -48.0300   23.3710 O.2   223  ASP223     -0.2867
    112  CB       -33.1170  -47.8050   25.6690 C.3   223  ASP223      0.1410
    113  CG       -34.0750  -47.3820   24.5720 C.2   223  ASP223      0.3668
    114  OD1      -34.6010  -48.2470   23.8450 O.co2 223  ASP223     -0.2456
    115  OD2      -34.3140  -46.1690   24.4390 O.co2 223  ASP223     -0.2456
    116  N        -33.3170  -48.8420   21.2270 N.3   225  GLY225     -0.1210
    117  CA       -34.0640  -47.9170   20.3630 C.3   225  GLY225      0.1956
    118  C        -33.6930  -46.4440   20.4770 C.2   225  GLY225      0.2612
    119  O        -34.3160  -45.6040   19.8370 O.2   225  GLY225     -0.2717
    120  N        -32.6820  -46.1210   21.2820 N.am  226  THR226     -0.1952
    121  CA       -32.1670  -44.7560   21.3570 C.3   226  THR226      0.1897
    122  C        -30.7780  -44.7310   20.7270 C.2   226  THR226      0.2313
    123  O        -29.9550  -45.6070   21.0010 O.2   226  THR226     -0.2863
    124  CB       -32.1090  -44.2360   22.8260 C.3   226  THR226      0.1794
    125  OG1      -33.4250  -44.2280   23.3860 O.3   226  THR226     -0.2208
    126  CG2      -31.5620  -42.8130   22.9040 C.3   226  THR226      0.0378
    127  N        -27.7880  -40.8420   26.9010 N.3   230  ARG230     -0.1245
    128  CA       -28.4770  -39.7070   27.4990 C.3   230  ARG230      0.1563
    129  C        -28.2600  -39.7000   29.0090 C.2   230  ARG230      0.2260
    130  O        -28.3880  -40.7330   29.6670 O.2   230  ARG230     -0.2867
    131  CB       -29.9540  -39.7390   27.1230 C.3   230  ARG230      0.0307
    132  CG       -30.1800  -39.8770   25.6020 C.3   230  ARG230      0.0489
    133  CD       -31.6500  -39.8210   25.2030 C.3   230  ARG230      0.2205
    134  NE       -32.2610  -38.5310   25.5360 N.pl3 230  ARG230     -0.0865
    135  CZ       -33.2440  -38.3350   26.4200 C.cat 230  ARG230      0.5346
    136  NH1      -33.7960  -39.3460   27.0980 N.pl3 230  ARG230      0.1354
    137  NH2      -33.6990  -37.1000   26.6160 N.pl3 230  ARG230      0.1354
    138  N        -35.4190  -37.9770   31.5170 N.3   319  THR319     -0.1218
    139  CA       -36.0750  -39.2200   31.9190 C.3   319  THR319      0.1862
    140  C        -35.0320  -40.2270   32.4190 C.2   319  THR319      0.2287
    141  O        -35.1850  -41.4340   32.2540 O.2   319  THR319     -0.2866
    142  CB       -36.8970  -39.8370   30.7620 C.3   319  THR319      0.1770
    143  OG1      -36.0360  -40.1220   29.6490 O.3   319  THR319     -0.2211
    144  CG2      -38.0260  -38.8900   30.3300 C.3   319  THR319      0.0375
    145  N        -30.1580  -43.0840   29.8100 N.3   322  VAL322     -0.1245
    146  CA       -30.4980  -44.0070   28.7230 C.3   322  VAL322      0.1561
    147  C        -29.2240  -44.4850   28.0290 C.2   322  VAL322      0.2260
    148  O        -28.5530  -43.7250   27.3290 O.2   322  VAL322     -0.2867
    149  CB       -31.4150  -43.3470   27.6750 C.3   322  VAL322      0.0252
    150  CG1      -31.9100  -44.3850   26.6680 C.3   322  VAL322      0.0019
    151  CG2      -32.5870  -42.6840   28.3540 C.3   322  VAL322      0.0019
@<TRIPOS>BOND
     1    62    63    2
     2    62    61    1
     3    60    61    1
     4     1     2    1
     5    67    69   ar
     6    67    65   ar
     7    61    64    1
     8    69    70   ar
     9    64    65    1
    10     2     5    1
    11     2     3    1
    12    71    72    1
    13    65    66   ar
    14     7     6    1
    15     5     6    1
    16    70    68   ar
    17     6     8    1
    18    72    73    1
    19    72    75    1
    20     3     4    2
    21    66    68   ar
    22    50    47    1
    23    50    51    1
    24    47    48    1
    25    47    46    1
    26    73    74    2
    27    75    77    1
    28    75    76    1
    29    48    49    2
    30    45    44    1
    31    56    53   ar
    32    56    58   ar
    33    51    53   ar
    34    51    52   ar
    35    53    55   ar
    36    58    59   ar
    37    76    78    1
    38    52    54   ar
    39    44    42   ar
    40    44    43   ar
    41    55    54   ar
    42    55    57   ar
    43    59    57   ar
    44    42    40   ar
    45    43    41   ar
    46     9    10    1
    47   119   118    2
    48    13    10    1
    49    13    14    1
    50   117   118    1
    51   117   116    1
    52    30    29    2
    53    40    39   ar
    54   118   120   am
    55    10    11    1
    56    41    39   ar
    57   122   123    2
    58   122   121    1
    59    27    28    1
    60    14    16   ar
    61    14    15   ar
    62    39    38    1
    63    31    33    1
    64    31    28    1
    65    31    32    1
    66   120   121    1
    67   121   124    1
    68    29    28    1
    69    37    36    2
    70    11    12    2
    71    26    25    1
    72    34    35    1
    73    38    35    1
    74   124   126    1
    75   124   125    1
    76    36    35    1
    77    25    22    1
    78   111   110    2
    79   114   113   ar
    80   110   109    1
    81    22    21    1
    82    22    23    1
    83    21    19   am
    84   115   113   ar
    85    23    24    2
    86    17    18    1
    87   113   112    1
    88   133   134    1
    89   133   132    1
    90    19    18    1
    91    19    20    2
    92   109   112    1
    93   109   108    1
    94   134   135    2
    95   132   131    1
    96   135   137    1
    97   135   136    1
    98   150   149    1
    99   127   128    1
   100   131   128    1
   101   148   147    2
   102   128   129    1
   103   149   151    1
   104   149   146    1
   105   147   146    1
   106   146   145    1
   107    87    85   ar
   108    87    89   ar
   109   107   105    1
   110    90    89    1
   111   129   130    2
   112    85    84   ar
   113   105   104    1
   114    89    88   ar
   115   103   102    2
   116   143   142    1
   117   102   101    1
   118   144   142    1
   119    84    83    1
   120    84    86   ar
   121   104   101    1
   122   104   106    1
   123   142   139    1
   124    88    86   ar
   125    80    83    1
   126    80    81    1
   127    80    79    1
   128   101   100    1
   129   138   139    1
   130    81    82    2
   131   139   140    1
   132   141   140    2
   133    98    99    1
   134    98    97    1
   135    97    96    1
   136    96    95    1
   137    94    93    2
   138    93    92    1
   139    95    92    1
   140    92    91    1
