@<TRIPOS>MOLECULE
tmp/3hw3A00.pdb
 129 119 0 0 0
SMALL
GASTEIGER

@<TRIPOS>ATOM
      1  N         29.1690   -1.3760  -10.1100 N.3    20  LEU20      -0.1245
      2  CA        29.2690   -2.8220   -9.9100 C.3    20  LEU20       0.1561
      3  C         28.1050   -3.5610  -10.5170 C.2    20  LEU20       0.2260
      4  O         28.2590   -4.6600  -11.0490 O.2    20  LEU20      -0.2867
      5  CB        29.3820   -3.1570   -8.4190 C.3    20  LEU20       0.0270
      6  CG        30.7050   -2.8100   -7.7200 C.3    20  LEU20       0.0019
      7  CD1       30.5310   -3.0310   -6.2490 C.3    20  LEU20       0.0001
      8  CD2       31.8740   -3.6260   -8.2850 C.3    20  LEU20       0.0001
      9  N         28.2890   -6.3230  -13.5990 N.3    24  ALA24      -0.1245
     10  CA        27.5200   -7.5500  -13.4710 C.3    24  ALA24       0.1562
     11  C         26.5910   -7.8460  -14.6630 C.2    24  ALA24       0.2260
     12  O         26.3990   -8.9980  -15.0480 O.2    24  ALA24      -0.2867
     13  CB        26.7110   -7.4950  -12.1830 C.3    24  ALA24       0.0290
     14  N         15.6600   -5.1030  -14.0480 N.3    38  LYS38      -0.1245
     15  CA        16.7370   -5.9990  -13.5910 C.3    38  LYS38       0.1561
     16  C         17.9140   -5.2410  -13.0020 C.2    38  LYS38       0.2260
     17  O         18.4560   -5.6260  -11.9790 O.2    38  LYS38      -0.2867
     18  CB        17.2350   -6.8220  -14.7750 C.3    38  LYS38       0.0271
     19  CG        18.2470   -7.8840  -14.3420 C.3    38  LYS38       0.0035
     20  CD        18.1450   -9.0820  -15.2820 C.3    38  LYS38       0.0206
     21  CE        18.2000  -10.3720  -14.4740 C.3    38  LYS38       0.1093
     22  NZ        18.4070  -11.5470  -15.3670 N.3    38  LYS38      -0.1314
     23  N         16.9940   -4.1650   -9.5930 N.3    41  ALA41      -0.1231
     24  CA        17.0020   -5.3560   -8.6940 C.3    41  ALA41       0.1694
     25  C         18.4350   -5.7310   -8.3060 C.2    41  ALA41       0.2591
     26  O         18.7310   -6.1370   -7.1660 O.2    41  ALA41      -0.2718
     27  CB        16.3060   -6.5260   -9.4310 C.3    41  ALA41       0.0304
     28  N         19.3390   -5.6240   -9.2880 N.am   42  ILE42      -0.1980
     29  CA        20.7640   -5.9370   -9.0770 C.3    42  ILE42       0.1595
     30  C         21.4610   -4.9800   -8.1110 C.2    42  ILE42       0.2287
     31  O         22.1680   -5.4160   -7.1970 O.2    42  ILE42      -0.2864
     32  CB        21.5770   -6.0650  -10.4520 C.3    42  ILE42       0.0276
     33  CG1       21.1370   -7.3240  -11.1850 C.3    42  ILE42       0.0022
     34  CG2       23.0820   -6.0210  -10.1790 C.3    42  ILE42       0.0022
     35  CD1       21.6750   -7.4930  -12.5890 C.3    42  ILE42       0.0001
     36  N         20.0700   -5.7180   -4.6160 N.3    45  HIS45      -0.1226
     37  CA        20.6540   -6.9210   -3.9920 C.3    45  HIS45       0.1752
     38  C         22.0760   -6.6050   -3.5470 C.2    45  HIS45       0.2595
     39  O         22.4950   -6.9960   -2.4640 O.2    45  HIS45      -0.2718
     40  CB        20.5840   -8.1030   -4.9560 C.3    45  HIS45       0.0759
     41  CG        21.4170   -9.2650   -4.5380 C.ar   45  HIS45       0.0818
     42  ND1       22.7530   -9.3630   -4.8410 N.ar   45  HIS45      -0.2268
     43  CD2       21.0940  -10.4020   -3.8820 C.ar   45  HIS45       0.1154
     44  CE1       23.2250  -10.5010   -4.3630 C.ar   45  HIS45       0.1986
     45  NE2       22.2390  -11.1440   -3.7710 N.ar   45  HIS45      -0.2212
     46  N         22.8340   -5.8900   -4.3870 N.am   46  LEU46      -0.1980
     47  CA        24.1580   -5.4080   -3.9610 C.3    46  LEU46       0.1596
     48  C         24.1430   -4.5770   -2.6920 C.2    46  LEU46       0.2287
     49  O         24.9380   -4.8290   -1.7840 O.2    46  LEU46      -0.2864
     50  CB        24.8140   -4.5940   -5.1040 C.3    46  LEU46       0.0297
     51  CG        26.1270   -4.9070   -5.8170 C.3    46  LEU46       0.0022
     52  CD1       26.7740   -6.2790   -5.6480 C.3    46  LEU46       0.0001
     53  CD2       26.0320   -4.4470   -7.3270 C.3    46  LEU46       0.0001
     54  N         29.8620  -11.2220   -3.5100 N.3    59  GLU59      -0.1231
     55  CA        29.0860  -10.4930   -4.4820 C.3    59  GLU59       0.1699
     56  C         29.7520   -9.1540   -4.8280 C.2    59  GLU59       0.2592
     57  O         30.3600   -8.5140   -3.9660 O.2    59  GLU59      -0.2718
     58  CB        27.6490  -10.2570   -3.9430 C.3    59  GLU59       0.0402
     59  CG        26.6150   -9.7430   -4.9940 C.3    59  GLU59       0.1161
     60  CD        26.5060  -10.6080   -6.2630 C.2    59  GLU59       0.3649
     61  OE1       27.2910  -10.3680   -7.2080 O.co2  59  GLU59      -0.2457
     62  OE2       25.6290  -11.5020   -6.3570 O.co2  59  GLU59      -0.2457
     63  N         29.6040   -8.7130   -6.0690 N.am   60  GLY60      -0.1957
     64  CA        30.1920   -7.4220   -6.4740 C.3    60  GLY60       0.1869
     65  C         31.5920   -7.5370   -7.0820 C.2    60  GLY60       0.2309
     66  O         31.9810   -6.7340   -7.9630 O.2    60  GLY60      -0.2863
     67  N         28.8170  -19.2190   -7.1090 N.3    85  LEU85      -0.1245
     68  CA        29.3930  -18.1900   -6.2730 C.3    85  LEU85       0.1561
     69  C         28.3030  -17.7220   -5.2690 C.2    85  LEU85       0.2260
     70  O         27.2180  -17.3540   -5.7080 O.2    85  LEU85      -0.2867
     71  CB        29.8450  -16.9880   -7.1230 C.3    85  LEU85       0.0270
     72  CG        31.1770  -16.9970   -7.8740 C.3    85  LEU85       0.0019
     73  CD1       31.2830  -15.6900   -8.7010 C.3    85  LEU85       0.0001
     74  CD2       32.3620  -17.1340   -6.8860 C.3    85  LEU85       0.0001
     75  N         27.1270  -15.0450   -1.9170 N.3    87  ASP87      -0.1239
     76  CA        27.2150  -13.6180   -1.7020 C.3    87  ASP87       0.1674
     77  C         28.1770  -13.1980   -0.6310 C.2    87  ASP87       0.2266
     78  O         28.8380  -12.1590   -0.7780 O.2    87  ASP87      -0.2867
     79  CB        25.8030  -13.0560   -1.4400 C.3    87  ASP87       0.1410
     80  CG        24.9180  -13.1880   -2.6550 C.2    87  ASP87       0.3668
     81  OD1       25.4520  -12.9710   -3.7690 O.co2  87  ASP87      -0.2456
     82  OD2       23.7100  -13.5380   -2.5350 O.co2  87  ASP87      -0.2456
     83  N         24.0370  -17.1760    0.8540 N.3    98  GLU98      -0.1231
     84  CA        23.3290  -16.6260   -0.3250 C.3    98  GLU98       0.1699
     85  C         22.2570  -15.6370    0.1070 C.2    98  GLU98       0.2592
     86  O         21.3990  -15.9550    0.9260 O.2    98  GLU98      -0.2718
     87  CB        22.6300  -17.6930   -1.1550 C.3    98  GLU98       0.0402
     88  CG        23.5820  -18.5570   -1.9170 C.3    98  GLU98       0.1161
     89  CD        23.9560  -17.9180   -3.2460 C.2    98  GLU98       0.3649
     90  OE1       24.5870  -18.6200   -4.0730 O.co2  98  GLU98      -0.2457
     91  OE2       23.5650  -16.7410   -3.4520 O.co2  98  GLU98      -0.2457
     92  N         22.2780  -14.4540   -0.4920 N.am   99  ILE99      -0.1980
     93  CA        21.3470  -13.4080   -0.0690 C.3    99  ILE99       0.1595
     94  C         20.3440  -13.2560   -1.1930 C.2    99  ILE99       0.2287
     95  O         20.7390  -13.1600   -2.3590 O.2    99  ILE99      -0.2864
     96  CB        22.0860  -12.0510    0.1770 C.3    99  ILE99       0.0276
     97  CG1       22.9750  -12.0780    1.4400 C.3    99  ILE99       0.0022
     98  CG2       21.0840  -10.8570    0.1700 C.3    99  ILE99       0.0022
     99  CD1       22.2760  -12.4560    2.7540 C.3    99  ILE99       0.0001
    100  N         10.7400  -17.8970   -3.5270 N.3   109  TYR109     -0.1241
    101  CA        12.0900  -17.5230   -3.8720 C.3   109  TYR109      0.1605
    102  C         13.1050  -18.3600   -3.0930 C.2   109  TYR109      0.2264
    103  O         14.0730  -18.8930   -3.6730 O.2   109  TYR109     -0.2867
    104  CB        12.2910  -16.0430   -3.6040 C.3   109  TYR109      0.0534
    105  CG        13.5330  -15.5050   -4.2420 C.ar  109  TYR109     -0.0201
    106  CD1       13.4960  -14.9310   -5.5140 C.ar  109  TYR109     -0.0009
    107  CD2       14.7470  -15.5410   -3.5710 C.ar  109  TYR109     -0.0009
    108  CE1       14.6610  -14.4230   -6.1010 C.ar  109  TYR109      0.0417
    109  CE2       15.9030  -15.0590   -4.1580 C.ar  109  TYR109      0.0417
    110  CZ        15.8440  -14.4960   -5.4070 C.ar  109  TYR109      0.1957
    111  OH        16.9890  -14.0220   -5.9660 O.3   109  TYR109     -0.2866
    112  N         16.0440  -20.8200   -4.6190 N.3   113  LYS113     -0.1245
    113  CA        17.4380  -20.6550   -4.3010 C.3   113  LYS113      0.1561
    114  C         18.0120  -21.9520   -3.7030 C.2   113  LYS113      0.2260
    115  O         19.0540  -22.4170   -4.1360 O.2   113  LYS113     -0.2867
    116  CB        17.6190  -19.4650   -3.3460 C.3   113  LYS113      0.0271
    117  CG        19.0710  -19.0890   -3.0480 C.3   113  LYS113      0.0035
    118  CD        19.7080  -18.2310   -4.1660 C.3   113  LYS113      0.0206
    119  CE        18.8850  -16.9640   -4.4670 C.3   113  LYS113      0.1093
    120  NZ        19.5620  -16.1290   -5.5060 N.3   113  LYS113     -0.1314
    121  N         18.4990  -24.4730   -6.5280 N.3   116  LYS116     -0.1245
    122  CA        19.6040  -24.1580   -7.4350 C.3   116  LYS116      0.1561
    123  C         20.9440  -24.5590   -6.8320 C.2   116  LYS116      0.2260
    124  O         21.7350  -25.3100   -7.4530 O.2   116  LYS116     -0.2867
    125  CB        19.6190  -22.6670   -7.7410 C.3   116  LYS116      0.0271
    126  CG        20.8000  -22.2130   -8.6100 C.3   116  LYS116      0.0035
    127  CD        21.0940  -20.7750   -8.2780 C.3   116  LYS116      0.0206
    128  CE        21.9690  -20.1540   -9.3410 C.3   116  LYS116      0.1093
    129  NZ        22.3420  -18.7910   -8.9430 N.3   116  LYS116     -0.1314
@<TRIPOS>BOND
     1    22    21    1
     2    20    21    1
     3    20    19    1
     4    12    11    2
     5    18    19    1
     6    18    15    1
     7    11    10    1
     8    14    15    1
     9     9    10    1
    10    15    16    1
    11    10    13    1
    12    16    17    2
    13    35    33    1
    14    33    32    1
    15     4     3    2
    16     3     2    1
    17    32    34    1
    18    32    29    1
    19     1     2    1
    20     2     5    1
    21    23    24    1
    22    27    24    1
    23   128   129    1
    24   128   127    1
    25    28    29    1
    26    28    25   am
    27    29    30    1
    28    73    72    1
    29    24    25    1
    30   126   127    1
    31   126   125    1
    32     5     6    1
    33    25    26    2
    34     8     6    1
    35    30    31    2
    36    66    65    2
    37    72    71    1
    38    72    74    1
    39   125   122    1
    40     6     7    1
    41   124   123    2
    42   122   123    1
    43   122   121    1
    44    53    51    1
    45    61    60   ar
    46    71    68    1
    47    67    68    1
    48    65    64    1
    49    64    63    1
    50    62    60   ar
    51    68    69    1
    52    60    59    1
    53   108   106   ar
    54   108   110   ar
    55    63    56   am
    56   111   110    1
    57    51    52    1
    58    51    50    1
    59    70    69    2
    60   106   105   ar
    61   120   119    1
    62   110   109   ar
    63    50    47    1
    64    59    58    1
    65    40    41    1
    66    40    37    1
    67    42    41   ar
    68    42    44   ar
    69    56    55    1
    70    56    57    2
    71   112   113    1
    72    36    37    1
    73    41    43   ar
    74    55    58    1
    75    55    54    1
    76   119   118    1
    77    46    47    1
    78    46    38   am
    79    44    45   ar
    80   113   114    1
    81   113   116    1
    82   105   104    1
    83   105   107   ar
    84   118   117    1
    85   109   107   ar
    86   115   114    2
    87    90    89   ar
    88    37    38    1
    89    47    48    1
    90    43    45   ar
    91   101   104    1
    92   101   100    1
    93   101   102    1
    94    81    80   ar
    95   103   102    2
    96    38    39    2
    97    91    89   ar
    98   116   117    1
    99    89    88    1
   100    48    49    2
   101    80    82   ar
   102    80    79    1
   103    95    94    2
   104    75    76    1
   105    88    87    1
   106    76    79    1
   107    76    77    1
   108    94    93    1
   109    87    84    1
   110    78    77    2
   111    92    93    1
   112    92    85   am
   113    84    85    1
   114    84    83    1
   115    93    96    1
   116    85    86    2
   117    98    96    1
   118    96    97    1
   119    97    99    1
