@<TRIPOS>MOLECULE
tmp/3hw5A00.pdb
 141 131 0 0 0
SMALL
GASTEIGER

@<TRIPOS>ATOM
      1  N         29.3120   -1.3090   -9.9360 N.3    20  LEU20      -0.1245
      2  CA        29.3150   -2.7830   -9.7900 C.3    20  LEU20       0.1561
      3  C         28.2100   -3.5030  -10.4790 C.2    20  LEU20       0.2260
      4  O         28.4000   -4.5760  -11.0650 O.2    20  LEU20      -0.2867
      5  CB        29.3620   -3.2100   -8.3000 C.3    20  LEU20       0.0270
      6  CG        30.6870   -2.9010   -7.5960 C.3    20  LEU20       0.0019
      7  CD1       30.5820   -3.0400   -6.0560 C.3    20  LEU20       0.0001
      8  CD2       31.8630   -3.7050   -8.1820 C.3    20  LEU20       0.0001
      9  N         28.4810   -6.0350  -13.6040 N.3    24  ALA24      -0.1245
     10  CA        27.8220   -7.3630  -13.5820 C.3    24  ALA24       0.1562
     11  C         26.8820   -7.6130  -14.7990 C.2    24  ALA24       0.2260
     12  O         26.7730   -8.7390  -15.2840 O.2    24  ALA24      -0.2867
     13  CB        27.0140   -7.4990  -12.2730 C.3    24  ALA24       0.0290
     14  N         27.3940  -10.2310  -18.5600 N.3    28  TYR28      -0.1241
     15  CA        26.4200  -11.1350  -19.2180 C.3    28  TYR28       0.1605
     16  C         25.6780  -10.6410  -20.4660 C.2    28  TYR28       0.2264
     17  O         24.6710  -11.2100  -20.8630 O.2    28  TYR28      -0.2867
     18  CB        25.4570  -11.7410  -18.2010 C.3    28  TYR28       0.0534
     19  CG        26.0930  -12.6970  -17.2220 C.ar   28  TYR28      -0.0201
     20  CD1       26.5270  -12.2420  -15.9550 C.ar   28  TYR28      -0.0009
     21  CD2       26.2090  -14.0680  -17.5190 C.ar   28  TYR28      -0.0009
     22  CE1       27.0940  -13.1210  -15.0340 C.ar   28  TYR28       0.0417
     23  CE2       26.7920  -14.9620  -16.6170 C.ar   28  TYR28       0.0417
     24  CZ        27.2350  -14.4810  -15.3620 C.ar   28  TYR28       0.1957
     25  OH        27.8110  -15.3500  -14.4180 O.3    28  TYR28      -0.2866
     26  N         15.8580   -5.0970  -14.2440 N.3    38  LYS38      -0.1245
     27  CA        17.0010   -5.9240  -13.8390 C.3    38  LYS38       0.1561
     28  C         18.1730   -5.1800  -13.2270 C.2    38  LYS38       0.2260
     29  O         18.6760   -5.6190  -12.1630 O.2    38  LYS38      -0.2867
     30  CB        17.4500   -6.7480  -15.0310 C.3    38  LYS38       0.0271
     31  CG        18.4850   -7.8000  -14.7270 C.3    38  LYS38       0.0035
     32  CD        18.1670   -9.0000  -15.6930 C.3    38  LYS38       0.0206
     33  CE        17.1560   -8.5580  -16.8000 C.3    38  LYS38       0.1093
     34  NZ        16.5800   -9.6370  -17.7040 N.3    38  LYS38      -0.1314
     35  N         17.1190   -4.2150   -9.7120 N.3    41  ALA41      -0.1231
     36  CA        17.1800   -5.4550   -8.8400 C.3    41  ALA41       0.1694
     37  C         18.6100   -5.7850   -8.4570 C.2    41  ALA41       0.2591
     38  O         18.9350   -6.1520   -7.2840 O.2    41  ALA41      -0.2718
     39  CB        16.4530   -6.6380   -9.5360 C.3    41  ALA41       0.0304
     40  N         19.5110   -5.7370   -9.4570 N.am   42  ILE42      -0.1980
     41  CA        20.8980   -5.9250   -9.1880 C.3    42  ILE42       0.1595
     42  C         21.5620   -4.9920   -8.1970 C.2    42  ILE42       0.2287
     43  O         22.3070   -5.4630   -7.3020 O.2    42  ILE42      -0.2864
     44  CB        21.7150   -6.0340  -10.5320 C.3    42  ILE42       0.0276
     45  CG1       21.1920   -7.2660  -11.3110 C.3    42  ILE42       0.0022
     46  CG2       23.2340   -6.1100  -10.2380 C.3    42  ILE42       0.0022
     47  CD1       21.8900   -7.4840  -12.7850 C.3    42  ILE42       0.0001
     48  N         20.0990   -5.8080   -4.7240 N.3    45  HIS45      -0.1226
     49  CA        20.7230   -6.9900   -4.1240 C.3    45  HIS45       0.1752
     50  C         22.1600   -6.6820   -3.7140 C.2    45  HIS45       0.2595
     51  O         22.5970   -7.1150   -2.6140 O.2    45  HIS45      -0.2718
     52  CB        20.6130   -8.1680   -5.0740 C.3    45  HIS45       0.0759
     53  CG        21.4810   -9.3310   -4.6810 C.ar   45  HIS45       0.0818
     54  ND1       22.8380   -9.3660   -4.9420 N.ar   45  HIS45      -0.2268
     55  CD2       21.1910  -10.4880   -4.0390 C.ar   45  HIS45       0.1154
     56  CE1       23.3490  -10.5050   -4.4760 C.ar   45  HIS45       0.1986
     57  NE2       22.3650  -11.2250   -3.9600 N.ar   45  HIS45      -0.2212
     58  N         22.9180   -5.9140   -4.5310 N.am   46  LEU46      -0.1980
     59  CA        24.2220   -5.4830   -4.0170 C.3    46  LEU46       0.1596
     60  C         24.1460   -4.6840   -2.7260 C.2    46  LEU46       0.2287
     61  O         24.9870   -4.8860   -1.7980 O.2    46  LEU46      -0.2864
     62  CB        24.9390   -4.6070   -5.0350 C.3    46  LEU46       0.0297
     63  CG        26.0800   -4.9370   -5.9680 C.3    46  LEU46       0.0022
     64  CD1       26.9370   -6.1500   -5.7420 C.3    46  LEU46       0.0001
     65  CD2       25.8440   -4.4980   -7.4840 C.3    46  LEU46       0.0001
     66  N         29.9770  -11.3170   -3.5910 N.3    59  GLU59      -0.1231
     67  CA        29.2050  -10.6120   -4.6010 C.3    59  GLU59       0.1699
     68  C         29.8150   -9.2610   -4.9080 C.2    59  GLU59       0.2592
     69  O         30.3830   -8.5990   -4.0570 O.2    59  GLU59      -0.2718
     70  CB        27.7700  -10.4260   -4.0960 C.3    59  GLU59       0.0402
     71  CG        26.8190   -9.8680   -5.1050 C.3    59  GLU59       0.1161
     72  CD        26.6350  -10.7230   -6.3350 C.2    59  GLU59       0.3649
     73  OE1       27.3610  -10.5250   -7.3450 O.co2  59  GLU59      -0.2457
     74  OE2       25.7120  -11.5440   -6.3470 O.co2  59  GLU59      -0.2457
     75  N         29.7530   -8.8660   -6.1580 N.am   60  GLY60      -0.1957
     76  CA        30.3270   -7.5640   -6.5430 C.3    60  GLY60       0.1869
     77  C         31.7380   -7.6330   -7.1490 C.2    60  GLY60       0.2309
     78  O         32.1310   -6.7850   -7.9870 O.2    60  GLY60      -0.2863
     79  N         29.0000  -20.1400   -5.9250 N.3    85  LEU85      -0.1245
     80  CA        29.5630  -18.6090   -5.9840 C.3    85  LEU85       0.1561
     81  C         28.4450  -17.9360   -5.2640 C.2    85  LEU85       0.2260
     82  O         27.3750  -17.5170   -5.8300 O.2    85  LEU85      -0.2867
     83  CB        29.8770  -17.6770   -7.2480 C.3    85  LEU85       0.0270
     84  CG        31.2750  -17.3380   -7.9870 C.3    85  LEU85       0.0019
     85  CD1       31.4060  -15.9370   -8.8960 C.3    85  LEU85       0.0001
     86  CD2       32.4660  -17.3560   -7.0290 C.3    85  LEU85       0.0001
     87  N         27.2510  -15.1430   -1.9580 N.3    87  ASP87      -0.1239
     88  CA        27.3520  -13.6890   -1.8030 C.3    87  ASP87       0.1674
     89  C         28.3250  -13.2820   -0.7730 C.2    87  ASP87       0.2266
     90  O         29.0200  -12.2650   -0.9250 O.2    87  ASP87      -0.2867
     91  CB        25.9510  -13.1170   -1.5020 C.3    87  ASP87       0.1410
     92  CG        25.0750  -13.2070   -2.7130 C.2    87  ASP87       0.3668
     93  OD1       25.6530  -13.0490   -3.8310 O.co2  87  ASP87      -0.2456
     94  OD2       23.8380  -13.4950   -2.6110 O.co2  87  ASP87      -0.2456
     95  N         24.1680  -17.3020    0.7140 N.3    98  GLU98      -0.1231
     96  CA        23.4510  -16.7490   -0.4860 C.3    98  GLU98       0.1699
     97  C         22.3500  -15.7660   -0.0090 C.2    98  GLU98       0.2592
     98  O         21.4230  -16.1720    0.7210 O.2    98  GLU98      -0.2718
     99  CB        22.8160  -17.8660   -1.2810 C.3    98  GLU98       0.0402
    100  CG        23.8580  -18.6490   -2.0770 C.3    98  GLU98       0.1161
    101  CD        24.1500  -18.0360   -3.4270 C.2    98  GLU98       0.3649
    102  OE1       24.6420  -18.8040   -4.3360 O.co2  98  GLU98      -0.2457
    103  OE2       23.8280  -16.8120   -3.5720 O.co2  98  GLU98      -0.2457
    104  N         22.4510  -14.5030   -0.4400 N.am   99  ILE99      -0.1980
    105  CA        21.4470  -13.4820   -0.0470 C.3    99  ILE99       0.1595
    106  C         20.4670  -13.3470   -1.2400 C.2    99  ILE99       0.2287
    107  O         20.8700  -13.3300   -2.3890 O.2    99  ILE99      -0.2864
    108  CB        22.1310  -12.1140    0.2310 C.3    99  ILE99       0.0276
    109  CG1       23.0680  -12.1880    1.4740 C.3    99  ILE99       0.0022
    110  CG2       21.0940  -10.9450    0.3030 C.3    99  ILE99       0.0022
    111  CD1       22.3530  -12.7120    2.6990 C.3    99  ILE99       0.0001
    112  N         10.9290  -18.1370   -3.6170 N.3   109  TYR109     -0.1241
    113  CA        12.2710  -17.7040   -3.9610 C.3   109  TYR109      0.1605
    114  C         13.3080  -18.4990   -3.1740 C.2   109  TYR109      0.2264
    115  O         14.3050  -18.9640   -3.7320 O.2   109  TYR109     -0.2867
    116  CB        12.4230  -16.2110   -3.7000 C.3   109  TYR109      0.0534
    117  CG        13.6500  -15.6440   -4.3290 C.ar  109  TYR109     -0.0201
    118  CD1       13.6180  -15.1680   -5.6510 C.ar  109  TYR109     -0.0009
    119  CD2       14.8140  -15.5400   -3.6320 C.ar  109  TYR109     -0.0009
    120  CE1       14.8080  -14.6230   -6.2430 C.ar  109  TYR109      0.0417
    121  CE2       15.9690  -15.0140   -4.2160 C.ar  109  TYR109      0.0417
    122  CZ        15.9390  -14.5570   -5.5090 C.ar  109  TYR109      0.1957
    123  OH        17.1160  -14.0790   -6.0180 O.3   109  TYR109     -0.2866
    124  N         16.2530  -21.0080   -4.7510 N.3   113  LYS113     -0.1245
    125  CA        17.6570  -20.8430   -4.4460 C.3   113  LYS113      0.1561
    126  C         18.2250  -22.1450   -3.8350 C.2   113  LYS113      0.2260
    127  O         19.3230  -22.5760   -4.2320 O.2   113  LYS113     -0.2867
    128  CB        17.8460  -19.7050   -3.4500 C.3   113  LYS113      0.0271
    129  CG        19.2690  -19.3530   -3.0910 C.3   113  LYS113      0.0035
    130  CD        19.8860  -18.4070   -4.1420 C.3   113  LYS113      0.0206
    131  CE        18.8570  -17.3490   -4.5930 C.3   113  LYS113      0.1093
    132  NZ        19.5060  -16.3350   -5.4860 N.3   113  LYS113     -0.1314
    133  N         18.6410  -24.6390   -6.6240 N.3   116  LYS116     -0.1245
    134  CA        19.7590  -24.3320   -7.5110 C.3   116  LYS116      0.1561
    135  C         21.1130  -24.7300   -6.8800 C.2   116  LYS116      0.2260
    136  O         21.9570  -25.3930   -7.5240 O.2   116  LYS116     -0.2867
    137  CB        19.8110  -22.8400   -7.8030 C.3   116  LYS116      0.0271
    138  CG        21.0360  -22.4840   -8.6550 C.3   116  LYS116      0.0035
    139  CD        21.0630  -20.9690   -8.8090 C.3   116  LYS116      0.0206
    140  CE        22.4280  -20.3700   -8.5660 C.3   116  LYS116      0.1093
    141  NZ        22.4510  -18.9470   -9.0840 N.3   116  LYS116     -0.1314
@<TRIPOS>BOND
     1    17    16    2
     2    16    15    1
     3    15    14    1
     4    15    18    1
     5    18    19    1
     6    34    33    1
     7    21    19   ar
     8    21    23   ar
     9    19    20   ar
    10    33    32    1
    11    23    24   ar
    12    20    22   ar
    13    32    31    1
    14    24    22   ar
    15    24    25    1
    16    12    11    2
    17    30    31    1
    18    30    27    1
    19    11    10    1
    20    26    27    1
    21    27    28    1
    22     9    10    1
    23    10    13    1
    24    28    29    2
    25    47    45    1
    26    45    44    1
    27     4     3    2
    28    44    46    1
    29    44    41    1
    30     3     2    1
    31     1     2    1
    32     2     5    1
    33    35    36    1
    34    39    36    1
    35    40    41    1
    36    40    37   am
    37    41    42    1
    38   141   140    1
    39    85    84    1
    40    36    37    1
    41   139   138    1
    42   139   140    1
    43   138   137    1
    44    37    38    2
    45     5     6    1
    46    42    43    2
    47     8     6    1
    48    84    83    1
    49    84    86    1
    50    78    77    2
    51   137   134    1
    52     6     7    1
    53   136   135    2
    54   134   135    1
    55   134   133    1
    56    65    63    1
    57    73    72   ar
    58    83    80    1
    59    77    76    1
    60    76    75    1
    61    74    72   ar
    62    72    71    1
    63   120   118   ar
    64   120   122   ar
    65    75    68   am
    66   123   122    1
    67    80    79    1
    68    80    81    1
    69    63    64    1
    70    63    62    1
    71    82    81    2
    72   118   117   ar
    73   122   121   ar
    74   132   131    1
    75    71    70    1
    76    52    53    1
    77    52    49    1
    78    62    59    1
    79    54    53   ar
    80    54    56   ar
    81    68    67    1
    82    68    69    2
    83   124   125    1
    84    48    49    1
    85    53    55   ar
    86    67    70    1
    87    67    66    1
    88   131   130    1
    89    58    59    1
    90    58    50   am
    91    56    57   ar
    92   125   126    1
    93   125   128    1
    94   102   101   ar
    95   117   116    1
    96   117   119   ar
    97   127   126    2
    98   121   119   ar
    99   130   129    1
   100    49    50    1
   101    55    57   ar
   102    59    60    1
   103   113   116    1
   104   113   112    1
   105   113   114    1
   106    93    92   ar
   107   115   114    2
   108    50    51    2
   109   103   101   ar
   110   128   129    1
   111   101   100    1
   112    60    61    2
   113    92    94   ar
   114    92    91    1
   115   107   106    2
   116   100    99    1
   117    87    88    1
   118    88    91    1
   119    88    89    1
   120    99    96    1
   121   106   105    1
   122    90    89    2
   123    96    97    1
   124    96    95    1
   125   104   105    1
   126   104    97   am
   127   105   108    1
   128    97    98    2
   129   108   110    1
   130   108   109    1
   131   109   111    1
