@<TRIPOS>MOLECULE
tmp/3hw9A00.pdb
 169 163 0 0 0
SMALL
GASTEIGER

@<TRIPOS>ATOM
      1  N        -10.6780    1.2170   -9.8720 N.3    16  LYS16      -0.1245
      2  CA       -11.8220    2.1290   -9.8340 C.3    16  LYS16       0.1561
      3  C        -11.7250    3.1780   -8.7260 C.2    16  LYS16       0.2260
      4  O        -11.1800    2.9140   -7.6530 O.2    16  LYS16      -0.2867
      5  CB       -13.1470    1.3540   -9.7340 C.3    16  LYS16       0.0271
      6  CG       -13.3220    0.5040   -8.4800 C.3    16  LYS16       0.0035
      7  CD       -14.7040   -0.1310   -8.4410 C.3    16  LYS16       0.0206
      8  CE       -14.9250   -0.9050   -7.1520 C.3    16  LYS16       0.1093
      9  NZ       -16.2800   -1.5200   -7.0990 N.3    16  LYS16      -0.1314
     10  N        -13.4290    5.2590   -1.5920 N.3    39  TYR39      -0.1241
     11  CA       -12.4080    4.2190   -1.7180 C.3    39  TYR39       0.1605
     12  C        -11.9210    4.0560   -3.1580 C.2    39  TYR39       0.2264
     13  O        -12.5910    4.4760   -4.1050 O.2    39  TYR39      -0.2867
     14  CB       -12.9110    2.8810   -1.1520 C.3    39  TYR39       0.0534
     15  CG       -13.9850    2.1980   -1.9750 C.ar   39  TYR39      -0.0201
     16  CD1      -15.3330    2.5050   -1.7930 C.ar   39  TYR39      -0.0009
     17  CD2      -13.6530    1.2300   -2.9250 C.ar   39  TYR39      -0.0009
     18  CE1      -16.3230    1.8760   -2.5440 C.ar   39  TYR39       0.0417
     19  CE2      -14.6340    0.5960   -3.6820 C.ar   39  TYR39       0.0417
     20  CZ       -15.9660    0.9230   -3.4850 C.ar   39  TYR39       0.1957
     21  OH       -16.9400    0.2980   -4.2300 O.3    39  TYR39      -0.2866
     22  N        -11.8750  -16.3490   -3.3340 N.3   101  TYR101     -0.1241
     23  CA       -13.2380  -16.5480   -2.8420 C.3   101  TYR101      0.1605
     24  C        -13.4860  -17.9990   -2.4400 C.2   101  TYR101      0.2264
     25  O        -12.9420  -18.9230   -3.0490 O.2   101  TYR101     -0.2867
     26  CB       -14.2590  -16.1400   -3.9080 C.3   101  TYR101      0.0534
     27  CG       -14.3880  -14.6490   -4.1270 C.ar  101  TYR101     -0.0201
     28  CD1      -15.2050  -13.8730   -3.3050 C.ar  101  TYR101     -0.0009
     29  CD2      -13.7070  -14.0170   -5.1660 C.ar  101  TYR101     -0.0009
     30  CE1      -15.3350  -12.5020   -3.5070 C.ar  101  TYR101      0.0417
     31  CE2      -13.8290  -12.6450   -5.3760 C.ar  101  TYR101      0.0417
     32  CZ       -14.6430  -11.8950   -4.5430 C.ar  101  TYR101      0.1957
     33  OH       -14.7670  -10.5400   -4.7450 O.3   101  TYR101     -0.2866
     34  N        -19.4180  -18.9770   -1.7060 N.3   105  TYR105     -0.1241
     35  CA       -19.6540  -17.7140   -2.4120 C.3   105  TYR105      0.1605
     36  C        -20.1550  -17.9370   -3.8420 C.2   105  TYR105      0.2264
     37  O        -20.8120  -17.0660   -4.4150 O.2   105  TYR105     -0.2867
     38  CB       -18.3920  -16.8410   -2.4160 C.3   105  TYR105      0.0534
     39  CG       -18.6200  -15.4240   -2.9060 C.ar  105  TYR105     -0.0201
     40  CD1      -19.1170  -14.4400   -2.0490 C.ar  105  TYR105     -0.0009
     41  CD2      -18.3400  -15.0670   -4.2260 C.ar  105  TYR105     -0.0009
     42  CE1      -19.3300  -13.1380   -2.4940 C.ar  105  TYR105      0.0417
     43  CE2      -18.5500  -13.7670   -4.6810 C.ar  105  TYR105      0.0417
     44  CZ       -19.0440  -12.8090   -3.8100 C.ar  105  TYR105      0.1957
     45  OH       -19.2520  -11.5240   -4.2540 O.3   105  TYR105     -0.2866
     46  N        -25.6040  -11.2000   -4.4450 N.3   112  ASP112     -0.1225
     47  CA       -24.6470  -10.1200   -4.2090 C.3   112  ASP112      0.1805
     48  C        -24.4840   -9.2760   -5.4770 C.2   112  ASP112      0.2598
     49  O        -23.4610   -9.3500   -6.1640 O.2   112  ASP112     -0.2718
     50  CB       -23.3020  -10.6900   -3.7390 C.3   112  ASP112      0.1424
     51  CG       -22.3730   -9.6250   -3.1700 C.2   112  ASP112      0.3668
     52  OD1      -22.8630   -8.5800   -2.6890 O.co2 112  ASP112     -0.2456
     53  OD2      -21.1430   -9.8410   -3.1990 O.co2 112  ASP112     -0.2456
     54  N        -25.5100   -8.4810   -5.7780 N.am  113  MET113     -0.1965
     55  CA       -25.5550   -7.6790   -7.0030 C.3   113  MET113      0.1736
     56  C        -26.0960   -6.2650   -6.7700 C.2   113  MET113      0.2616
     57  O        -26.3480   -5.5250   -7.7260 O.2   113  MET113     -0.2715
     58  CB       -26.3970   -8.3900   -8.0720 C.3   113  MET113      0.0427
     59  CG       -25.6900   -9.5370   -8.7880 C.3   113  MET113      0.0599
     60  SD       -24.4330   -8.9950   -9.9660 S.3   113  MET113     -0.1393
     61  CE       -25.4480   -8.3540  -11.2970 C.3   113  MET113      0.0692
     62  N        -26.2640   -5.8940   -5.5030 N.am  114  LEU114     -0.1964
     63  CA       -26.8360   -4.5960   -5.1380 C.3   114  LEU114      0.1713
     64  C        -25.8390   -3.4460   -5.3320 C.2   114  LEU114      0.2458
     65  O        -24.6300   -3.6530   -5.1950 O.2   114  LEU114     -0.2730
     66  CB       -27.3740   -4.6260   -3.7000 C.3   114  LEU114      0.0310
     67  CG       -28.4260   -5.6840   -3.3400 C.3   114  LEU114      0.0022
     68  CD1      -28.9590   -5.4520   -1.9370 C.3   114  LEU114      0.0001
     69  CD2      -29.5750   -5.7140   -4.3420 C.3   114  LEU114      0.0001
     70  N        -26.3450   -2.2350   -5.6580 N.am  115  PRO115     -0.2716
     71  CA       -25.5260   -1.0510   -5.9580 C.3   115  PRO115      0.1536
     72  C        -24.3980   -0.7760   -4.9590 C.2   115  PRO115      0.2598
     73  O        -23.2840   -0.4450   -5.3710 O.2   115  PRO115     -0.2715
     74  CB       -26.5440    0.0910   -5.9260 C.3   115  PRO115      0.0310
     75  CG       -27.8120   -0.5420   -6.3400 C.3   115  PRO115      0.0237
     76  CD       -27.7860   -1.9310   -5.7700 C.3   115  PRO115      0.0939
     77  N        -24.6870   -0.9130   -3.6660 N.am  116  GLU116     -0.1964
     78  CA       -23.6990   -0.6440   -2.6230 C.3   116  GLU116      0.1733
     79  C        -23.6670   -1.7310   -1.5500 C.2   116  GLU116      0.2616
     80  O        -22.6100   -2.3020   -1.2700 O.2   116  GLU116     -0.2715
     81  CB       -23.9450    0.7350   -1.9920 C.3   116  GLU116      0.0429
     82  CG       -23.0170    1.0910   -0.8240 C.3   116  GLU116      0.1163
     83  CD       -21.5410    1.0630   -1.1940 C.2   116  GLU116      0.3649
     84  OE1      -21.1760    1.5820   -2.2710 O.co2 116  GLU116     -0.2457
     85  OE2      -20.7420    0.5260   -0.3990 O.co2 116  GLU116     -0.2457
     86  N        -24.8250   -2.0090   -0.9560 N.am  117  PHE117     -0.1960
     87  CA       -24.9200   -2.9620    0.1470 C.3   117  PHE117      0.1771
     88  C        -25.2510   -4.3720   -0.3480 C.2   117  PHE117      0.2620
     89  O        -24.8990   -4.7370   -1.4720 O.2   117  PHE117     -0.2715
     90  CB       -25.9420   -2.4770    1.1850 C.3   117  PHE117      0.0574
     91  CG       -25.6930   -1.0750    1.6740 C.ar  117  PHE117     -0.0200
     92  CD1      -24.6970   -0.8130    2.6130 C.ar  117  PHE117     -0.0042
     93  CD2      -26.4550   -0.0140    1.1960 C.ar  117  PHE117     -0.0042
     94  CE1      -24.4670    0.4830    3.0670 C.ar  117  PHE117     -0.0003
     95  CE2      -26.2340    1.2840    1.6450 C.ar  117  PHE117     -0.0003
     96  CZ       -25.2370    1.5340    2.5810 C.ar  117  PHE117     -0.0000
     97  N        -25.9120   -5.1610    0.4960 N.am  118  GLY118     -0.1940
     98  CA       -26.2540   -6.5420    0.1640 C.3   118  GLY118      0.2014
     99  C        -25.1200   -7.5070    0.4420 C.2   118  GLY118      0.2639
    100  O        -24.0230   -7.0930    0.8240 O.2   118  GLY118     -0.2714
    101  N        -25.3890   -8.7970    0.2490 N.am  119  GLY119     -0.1954
    102  CA       -24.4090   -9.8530    0.5050 C.3   119  GLY119      0.1869
    103  C        -23.8690   -9.8130    1.9220 C.2   119  GLY119      0.2309
    104  O        -22.6570   -9.8920    2.1350 O.2   119  GLY119     -0.2863
    105  N        -21.9690  -12.9300    3.1800 N.3   122  ALA122     -0.1245
    106  CA       -20.6730  -13.1620    2.5470 C.3   122  ALA122      0.1562
    107  C        -19.5580  -12.4500    3.3170 C.2   122  ALA122      0.2260
    108  O        -18.9940  -11.4560    2.8480 O.2   122  ALA122     -0.2867
    109  CB       -20.7040  -12.7190    1.0870 C.3   122  ALA122      0.0290
    110  N        -15.9540  -11.7230    4.8910 N.3   124  SER124     -0.1217
    111  CA       -14.5530  -11.9020    4.5150 C.3   124  SER124      0.1889
    112  C        -13.7740  -12.5950    5.6300 C.2   124  SER124      0.2288
    113  O        -14.0160  -12.3410    6.8140 O.2   124  SER124     -0.2866
    114  CB       -13.9090  -10.5550    4.1780 C.3   124  SER124      0.2089
    115  OG       -14.5470   -9.9490    3.0670 O.3   124  SER124     -0.2183
    116  N        -16.7760  -16.1240    2.0280 N.3   130  GLY130     -0.1210
    117  CA       -16.1590  -14.9620    1.3860 C.3   130  GLY130      0.1956
    118  C        -14.7060  -15.1570    0.9980 C.2   130  GLY130      0.2611
    119  O        -14.2660  -16.2800    0.7420 O.2   130  GLY130     -0.2717
    120  N        -13.9640  -14.0510    0.9520 N.am  131  ARG131     -0.1979
    121  CA       -12.5470  -14.0670    0.5870 C.3   131  ARG131      0.1597
    122  C        -11.6890  -14.6170    1.7230 C.2   131  ARG131      0.2287
    123  O        -11.6490  -14.0480    2.8160 O.2   131  ARG131     -0.2864
    124  CB       -12.0680  -12.6660    0.1900 C.3   131  ARG131      0.0334
    125  CG       -12.6440  -12.1530   -1.1230 C.3   131  ARG131      0.0492
    126  CD       -12.0610  -10.7990   -1.5120 C.3   131  ARG131      0.2205
    127  NE       -12.4490   -9.7320   -0.5890 N.pl3 131  ARG131     -0.0865
    128  CZ       -13.5520   -8.9940   -0.7010 C.cat 131  ARG131      0.5346
    129  NH1      -14.4020   -9.1970   -1.7010 N.pl3 131  ARG131      0.1354
    130  NH2      -13.8080   -8.0500    0.1930 N.pl3 131  ARG131      0.1354
    131  N        -33.8580   -7.2550  -10.0270 N.3   261  GLN261     -0.1245
    132  CA       -33.2560   -6.1440  -10.7680 C.3   261  GLN261      0.1566
    133  C        -33.5960   -6.1960  -12.2560 C.2   261  GLN261      0.2260
    134  O        -33.6520   -7.2740  -12.8520 O.2   261  GLN261     -0.2867
    135  CB       -31.7330   -6.1310  -10.5850 C.3   261  GLN261      0.0367
    136  CG       -31.2660   -5.8580   -9.1580 C.3   261  GLN261      0.0905
    137  CD       -29.7680   -5.6280   -9.0510 C.2   261  GLN261      0.2608
    138  OE1      -29.1640   -4.9620   -9.8940 O.2   261  GLN261     -0.2717
    139  NE2      -29.1620   -6.1700   -8.0020 N.am  261  GLN261     -0.0878
    140  N        -30.6830    1.1250  -14.0440 N.3   269  ARG269     -0.1245
    141  CA       -30.8980   -0.2100  -13.4890 C.3   269  ARG269      0.1563
    142  C        -31.4700   -0.1280  -12.0650 C.2   269  ARG269      0.2260
    143  O        -30.7140    0.0200  -11.1000 O.2   269  ARG269     -0.2867
    144  CB       -29.5920   -1.0220  -13.5200 C.3   269  ARG269      0.0307
    145  CG       -29.6690   -2.4050  -12.8700 C.3   269  ARG269      0.0489
    146  CD       -28.2820   -2.9830  -12.6230 C.3   269  ARG269      0.2205
    147  NE       -27.8750   -3.9270  -13.6630 N.pl3 269  ARG269     -0.0865
    148  CZ       -27.8310   -5.2490  -13.5050 C.cat 269  ARG269      0.5346
    149  NH1      -28.1640   -5.8030  -12.3450 N.pl3 269  ARG269      0.1354
    150  NH2      -27.4480   -6.0220  -14.5120 N.pl3 269  ARG269      0.1354
    151  N        -28.9580    2.0430  -10.1380 N.3   299  THR299     -0.1218
    152  CA       -27.6420    2.3530  -10.6960 C.3   299  THR299      0.1862
    153  C        -27.7810    2.8010  -12.1500 C.2   299  THR299      0.2287
    154  O        -28.3010    2.0620  -12.9890 O.2   299  THR299     -0.2866
    155  CB       -26.6830    1.1390  -10.6140 C.3   299  THR299      0.1770
    156  OG1      -26.6790    0.6150   -9.2810 O.3   299  THR299     -0.2211
    157  CG2      -25.2610    1.5380  -11.0000 C.3   299  THR299      0.0375
    158  N        -25.9580    3.7220  -15.5890 N.3   301  TYR301     -0.1241
    159  CA       -24.7320    3.5310  -16.3570 C.3   301  TYR301      0.1605
    160  C        -24.6390    4.5330  -17.5030 C.2   301  TYR301      0.2264
    161  O        -25.4770    4.5360  -18.4100 O.2   301  TYR301     -0.2867
    162  CB       -24.6460    2.1000  -16.8980 C.3   301  TYR301      0.0534
    163  CG       -24.3870    1.0480  -15.8420 C.ar  301  TYR301     -0.0201
    164  CD1      -23.0850    0.7190  -15.4630 C.ar  301  TYR301     -0.0009
    165  CD2      -25.4430    0.3760  -15.2260 C.ar  301  TYR301     -0.0009
    166  CE1      -22.8410   -0.2490  -14.4940 C.ar  301  TYR301      0.0417
    167  CE2      -25.2090   -0.5940  -14.2560 C.ar  301  TYR301      0.0417
    168  CZ       -23.9070   -0.9000  -13.8960 C.ar  301  TYR301      0.1957
    169  OH       -23.6700   -1.8580  -12.9380 O.3   301  TYR301     -0.2866
@<TRIPOS>BOND
     1   161   160    2
     2   160   159    1
     3   162   159    1
     4   162   163    1
     5   159   158    1
     6   163   164   ar
     7   163   165   ar
     8   164   166   ar
     9   165   167   ar
    10   150   148    1
    11   166   168   ar
    12   167   168   ar
    13   140   141    1
    14   168   169    1
    15   147   148    2
    16   147   146    1
    17   144   141    1
    18   144   145    1
    19   148   149    1
    20   141   142    1
    21   154   153    2
    22   145   146    1
    23   134   133    2
    24   133   132    1
    25   153   152    1
    26   142   143    2
    27    61    60    1
    28   157   155    1
    29   132   135    1
    30   132   131    1
    31   152   155    1
    32   152   151    1
    33   155   156    1
    34   135   136    1
    35    60    59    1
    36   138   137    2
    37     1     2    1
    38     2     5    1
    39     2     3    1
    40     5     6    1
    41   136   137    1
    42   137   139   am
    43    59    58    1
    44     3     4    2
    45     6     7    1
    46     7     8    1
    47    58    55    1
    48    57    56    2
    49     8     9    1
    50    55    56    1
    51    55    54    1
    52    56    62   am
    53    75    74    1
    54    75    76    1
    55    49    48    2
    56    71    74    1
    57    71    70    1
    58    71    72    1
    59    54    48   am
    60    76    70    1
    61    70    64   am
    62    62    63    1
    63    48    47    1
    64    31    29   ar
    65    31    32   ar
    66    73    72    2
    67    64    65    2
    68    64    63    1
    69    29    27   ar
    70    63    66    1
    71    72    77   am
    72    33    32    1
    73    43    41   ar
    74    43    44   ar
    75    32    30   ar
    76    46    47    1
    77    37    36    2
    78    69    67    1
    79    45    44    1
    80    21    20    1
    81    41    39   ar
    82    47    50    1
    83    27    26    1
    84    27    28   ar
    85    13    12    2
    86    26    23    1
    87    36    35    1
    88    44    42   ar
    89    50    51    1
    90    66    67    1
    91    19    20   ar
    92    19    17   ar
    93    77    78    1
    94    30    28   ar
    95    20    18   ar
    96    67    68    1
    97    22    23    1
    98    53    51   ar
    99    51    52   ar
   100    12    11    1
   101    25    24    2
   102    17    15   ar
   103    39    38    1
   104    39    40   ar
   105    23    24    1
   106    78    81    1
   107    78    79    1
   108    18    16   ar
   109    42    40   ar
   110    38    35    1
   111    35    34    1
   112    84    83   ar
   113    81    82    1
   114    15    16   ar
   115    15    14    1
   116    11    10    1
   117    11    14    1
   118   129   128    1
   119    79    80    2
   120    79    86   am
   121   126   125    1
   122   126   127    1
   123    89    88    2
   124    83    82    1
   125    83    85   ar
   126   125   124    1
   127    86    87    1
   128   128   127    2
   129   128   130    1
   130    88    87    1
   131    88    97   am
   132    87    90    1
   133    98    99    1
   134    98    97    1
   135   124   121    1
   136   101    99   am
   137   101   102    1
   138    99   100    2
   139   102   103    1
   140   121   120    1
   141   121   122    1
   142   119   118    2
   143   120   118   am
   144   118   117    1
   145   109   106    1
   146    90    91    1
   147    93    95   ar
   148    93    91   ar
   149   117   116    1
   150    95    96   ar
   151    91    92   ar
   152   122   123    2
   153   103   104    2
   154   106   105    1
   155   106   107    1
   156    96    94   ar
   157    92    94   ar
   158   108   107    2
   159   115   114    1
   160   114   111    1
   161   111   110    1
   162   111   112    1
   163   112   113    2
