@<TRIPOS>MOLECULE
tmp/3hwbA00.pdb
 110 102 0 0 0
SMALL
GASTEIGER

@<TRIPOS>ATOM
      1  N         48.3680   24.6730   40.1300 N.3    48  GLU48      -0.1245
      2  CA        47.3830   23.8330   40.8060 C.3    48  GLU48       0.1567
      3  C         46.6280   24.6500   41.8520 C.2    48  GLU48       0.2260
      4  O         47.2400   25.2970   42.7060 O.2    48  GLU48      -0.2867
      5  CB        48.0580   22.6220   41.4600 C.3    48  GLU48       0.0388
      6  CG        47.0880   21.5560   41.9620 C.3    48  GLU48       0.1160
      7  CD        47.7760   20.4440   42.7360 C.2    48  GLU48       0.3649
      8  OE1       48.8100   19.9270   42.2610 O.co2  48  GLU48      -0.2457
      9  OE2       47.2760   20.0820   43.8210 O.co2  48  GLU48      -0.2457
     10  N         43.5310   24.5100   44.8010 N.3    50  GLN50      -0.1245
     11  CA        42.6410   23.7480   45.6690 C.3    50  GLN50       0.1566
     12  C         41.2750   24.4330   45.7160 C.2    50  GLN50       0.2260
     13  O         41.0640   25.3710   46.4910 O.2    50  GLN50      -0.2867
     14  CB        43.2500   23.6240   47.0730 C.3    50  GLN50       0.0367
     15  CG        42.5130   22.6900   48.0330 C.3    50  GLN50       0.0905
     16  CD        42.8130   21.2220   47.7850 C.2    50  GLN50       0.2608
     17  OE1       42.2670   20.6100   46.8670 O.2    50  GLN50      -0.2717
     18  NE2       43.6720   20.6450   48.6180 N.am   50  GLN50      -0.0878
     19  N         40.3230   19.7070   42.3500 N.3    56  THR56      -0.1218
     20  CA        41.4850   20.5310   42.0210 C.3    56  THR56       0.1862
     21  C         41.4820   20.9680   40.5600 C.2    56  THR56       0.2287
     22  O         41.1710   20.1790   39.6640 O.2    56  THR56      -0.2866
     23  CB        42.8160   19.7980   42.3120 C.3    56  THR56       0.1770
     24  OG1       42.7890   18.4920   41.7220 O.3    56  THR56      -0.2211
     25  CG2       43.0520   19.6710   43.8100 C.3    56  THR56       0.0375
     26  N         43.8590   22.7240   37.4410 N.3    58  TYR58      -0.1241
     27  CA        45.2580   22.8660   37.0370 C.3    58  TYR58       0.1605
     28  C         45.4290   23.4990   35.6560 C.2    58  TYR58       0.2264
     29  O         44.4840   23.5640   34.8690 O.2    58  TYR58      -0.2867
     30  CB        45.9960   21.5200   37.1210 C.3    58  TYR58       0.0534
     31  CG        45.3740   20.3930   36.3240 C.ar   58  TYR58      -0.0201
     32  CD1       45.7040   20.1950   34.9830 C.ar   58  TYR58      -0.0009
     33  CD2       44.4710   19.5110   36.9180 C.ar   58  TYR58      -0.0009
     34  CE1       45.1390   19.1570   34.2490 C.ar   58  TYR58       0.0417
     35  CE2       43.9010   18.4690   36.1930 C.ar   58  TYR58       0.0417
     36  CZ        44.2400   18.2990   34.8600 C.ar   58  TYR58       0.1957
     37  OH        43.6800   17.2700   34.1390 O.3    58  TYR58      -0.2866
     38  N         47.7760   23.5600   28.3680 N.3    85  PHE85      -0.1241
     39  CA        46.5000   22.9270   28.7200 C.3    85  PHE85       0.1605
     40  C         46.0040   23.2700   30.1250 C.2    85  PHE85       0.2264
     41  O         46.7930   23.6190   31.0040 O.2    85  PHE85      -0.2867
     42  CB        46.5770   21.4010   28.5350 C.3    85  PHE85       0.0534
     43  CG        47.5530   20.7140   29.4550 C.ar   85  PHE85      -0.0203
     44  CD1       47.1240   20.1640   30.6610 C.ar   85  PHE85      -0.0042
     45  CD2       48.8960   20.5950   29.1080 C.ar   85  PHE85      -0.0042
     46  CE1       48.0190   19.5220   31.5130 C.ar   85  PHE85      -0.0003
     47  CE2       49.8000   19.9550   29.9530 C.ar   85  PHE85      -0.0003
     48  CZ        49.3590   19.4170   31.1580 C.ar   85  PHE85      -0.0000
     49  N         40.4240   17.8350   38.2120 N.3    89  LYS89      -0.1245
     50  CA        40.4600   16.4950   38.7970 C.3    89  LYS89       0.1561
     51  C         39.5720   16.4400   40.0380 C.2    89  LYS89       0.2260
     52  O         39.6590   17.3060   40.9130 O.2    89  LYS89      -0.2867
     53  CB        41.8950   16.0810   39.1400 C.3    89  LYS89       0.0271
     54  CG        42.0560   14.5940   39.4520 C.3    89  LYS89       0.0035
     55  CD        43.5090   14.2080   39.6970 C.3    89  LYS89       0.0206
     56  CE        43.9130   14.4180   41.1490 C.3    89  LYS89       0.1093
     57  NZ        45.3170   13.9930   41.4010 N.3    89  LYS89      -0.1314
     58  N         40.2380   12.6330   35.8490 N.3    95  SER95      -0.1217
     59  CA        40.7980   13.9340   35.4930 C.3    95  SER95       0.1889
     60  C         40.5720   14.2490   34.0170 C.2    95  SER95       0.2288
     61  O         40.8970   13.4410   33.1450 O.2    95  SER95      -0.2866
     62  CB        42.2930   13.9810   35.8190 C.3    95  SER95       0.2089
     63  OG        42.8070   15.2930   35.6740 O.3    95  SER95      -0.2183
     64  N         41.1200   17.2460   30.9190 N.3    97  ASP97      -0.1239
     65  CA        41.8680   18.4340   30.4950 C.3    97  ASP97       0.1674
     66  C         41.8430   18.6450   28.9820 C.2    97  ASP97       0.2266
     67  O         41.8430   17.6820   28.2110 O.2    97  ASP97      -0.2867
     68  CB        43.3180   18.3810   31.0020 C.3    97  ASP97       0.1410
     69  CG        44.0050   17.0580   30.6990 C.2    97  ASP97       0.3668
     70  OD1       44.3290   16.8000   29.5200 O.co2  97  ASP97      -0.2456
     71  OD2       44.2380   16.2810   31.6500 O.co2  97  ASP97      -0.2456
     72  N         48.8080   18.7010   24.5730 N.3   101  ASN101     -0.1225
     73  CA        49.3260   17.7000   25.4970 C.3   101  ASN101      0.1785
     74  C         49.8250   16.4630   24.7510 C.2   101  ASN101      0.2597
     75  O         49.5480   16.2940   23.5600 O.2   101  ASN101     -0.2718
     76  CB        48.2370   17.3090   26.5040 C.3   101  ASN101      0.1169
     77  CG        48.7980   16.9020   27.8590 C.2   101  ASN101      0.2627
     78  OD1       49.8830   16.3270   27.9570 O.2   101  ASN101     -0.2716
     79  ND2       48.0490   17.1970   28.9150 N.am  101  ASN101     -0.0877
     80  N         50.5660   15.6110   25.4570 N.am  102  TYR102     -0.1976
     81  CA        51.0270   14.3320   24.9210 C.3   102  TYR102      0.1639
     82  C         49.8490   13.4150   24.6060 C.2   102  TYR102      0.2290
     83  O         48.8400   13.4210   25.3170 O.2   102  TYR102     -0.2864
     84  CB        51.9560   13.6350   25.9210 C.3   102  TYR102      0.0560
     85  CG        53.3240   14.2660   26.0660 C.ar  102  TYR102     -0.0198
     86  CD1       54.3970   13.8330   25.2870 C.ar  102  TYR102     -0.0009
     87  CD2       53.5500   15.2850   26.9910 C.ar  102  TYR102     -0.0009
     88  CE1       55.6600   14.4040   25.4210 C.ar  102  TYR102      0.0417
     89  CE2       54.8080   15.8640   27.1320 C.ar  102  TYR102      0.0417
     90  CZ        55.8580   15.4180   26.3430 C.ar  102  TYR102      0.1957
     91  OH        57.1040   15.9870   26.4780 O.3   102  TYR102     -0.2866
     92  N         51.7640    7.0470   26.5410 N.3   107  ASP107     -0.1239
     93  CA        51.6500    6.3710   27.8370 C.3   107  ASP107      0.1674
     94  C         52.3810    5.0270   27.8270 C.2   107  ASP107      0.2266
     95  O         52.7810    4.5200   28.8780 O.2   107  ASP107     -0.2867
     96  CB        50.1800    6.1680   28.2230 C.3   107  ASP107      0.1410
     97  CG        49.4500    7.4780   28.4830 C.2   107  ASP107      0.3668
     98  OD1       50.0490    8.3980   29.0820 O.co2 107  ASP107     -0.2456
     99  OD2       48.2670    7.5820   28.0970 O.co2 107  ASP107     -0.2456
    100  N         41.6670   10.8680   32.2730 N.3   140  ARG140     -0.1245
    101  CA        42.5970    9.9490   32.9300 C.3   140  ARG140      0.1563
    102  C         42.0740    9.4890   34.2870 C.2   140  ARG140      0.2260
    103  O         41.5300   10.2850   35.0550 O.2   140  ARG140     -0.2867
    104  CB        43.9780   10.5920   33.0870 C.3   140  ARG140      0.0307
    105  CG        44.7230   10.7960   31.7760 C.3   140  ARG140      0.0489
    106  CD        46.1610   11.2250   32.0130 C.3   140  ARG140      0.2205
    107  NE        46.8930   11.3930   30.7580 N.pl3 140  ARG140     -0.0865
    108  CZ        47.5470   10.4210   30.1250 C.cat 140  ARG140      0.5346
    109  NH1       47.5730    9.1890   30.6200 N.pl3 140  ARG140      0.1354
    110  NH2       48.1790   10.6830   28.9900 N.pl3 140  ARG140      0.1354
@<TRIPOS>BOND
     1    75    74    2
     2    72    73    1
     3    82    81    1
     4    82    83    2
     5    74    80   am
     6    74    73    1
     7    81    80    1
     8    81    84    1
     9    86    88   ar
    10    86    85   ar
    11    88    90   ar
    12    73    76    1
    13    84    85    1
    14    85    87   ar
    15    90    91    1
    16    90    89   ar
    17    76    77    1
    18    92    93    1
    19    87    89   ar
    20    94    93    1
    21    94    95    2
    22    93    96    1
    23    77    78    2
    24    77    79   am
    25    99    97   ar
    26    67    66    2
    27    96    97    1
    28    38    39    1
    29    97    98   ar
    30    42    39    1
    31    42    43    1
    32    39    40    1
    33    66    65    1
    34   110   108    1
    35    45    43   ar
    36    45    47   ar
    37    43    44   ar
    38    70    69   ar
    39    47    48   ar
    40   108   109    1
    41   108   107    2
    42    40    41    2
    43    65    64    1
    44    65    68    1
    45    44    46   ar
    46    69    68    1
    47    69    71   ar
    48   107   106    1
    49    48    46   ar
    50   105   106    1
    51   105   104    1
    52   100   101    1
    53   101   104    1
    54   101   102    1
    55    61    60    2
    56    60    59    1
    57    37    36    1
    58    34    36   ar
    59    34    32   ar
    60   102   103    2
    61    36    35   ar
    62    29    28    2
    63    32    31   ar
    64    59    62    1
    65    59    58    1
    66    28    27    1
    67    63    62    1
    68    35    33   ar
    69    31    33   ar
    70    31    30    1
    71    27    30    1
    72    27    26    1
    73    49    50    1
    74    50    53    1
    75    50    51    1
    76    53    54    1
    77    54    55    1
    78    22    21    2
    79    55    56    1
    80    51    52    2
    81     1     2    1
    82    21    20    1
    83     2     5    1
    84     2     3    1
    85    56    57    1
    86     5     6    1
    87    24    23    1
    88     3     4    2
    89     6     7    1
    90    20    23    1
    91    20    19    1
    92     8     7   ar
    93    23    25    1
    94     7     9   ar
    95    10    11    1
    96    11    12    1
    97    11    14    1
    98    12    13    2
    99    17    16    2
   100    14    15    1
   101    16    15    1
   102    16    18   am
