@<TRIPOS>MOLECULE
tmp/3hwbB00.pdb
 154 145 0 0 0
SMALL
GASTEIGER

@<TRIPOS>ATOM
      1  N          4.4090   -9.8880   33.0410 N.3    16  LYS16      -0.1245
      2  CA         4.1890  -11.3310   33.1210 C.3    16  LYS16       0.1561
      3  C          3.2560  -11.7360   34.2600 C.2    16  LYS16       0.2260
      4  O          3.3140  -11.1750   35.3550 O.2    16  LYS16      -0.2867
      5  CB         5.5220  -12.0930   33.2160 C.3    16  LYS16       0.0271
      6  CG         6.3910  -11.7550   34.4220 C.3    16  LYS16       0.0035
      7  CD         7.6080  -12.6630   34.4920 C.3    16  LYS16       0.0206
      8  CE         8.4360  -12.3860   35.7360 C.3    16  LYS16       0.1093
      9  NZ         9.6180  -13.2880   35.8280 N.3    16  LYS16      -0.1314
     10  N          2.3150  -14.2130   41.4360 N.3    40  TYR40      -0.1241
     11  CA         2.6480  -12.7970   41.2950 C.3    40  TYR40       0.1605
     12  C          2.5290  -12.3300   39.8440 C.2    40  TYR40       0.2264
     13  O          2.5830  -13.1380   38.9140 O.2    40  TYR40      -0.2867
     14  CB         4.0550  -12.5120   41.8430 C.3    40  TYR40       0.0534
     15  CG         5.1870  -13.1170   41.0350 C.ar   40  TYR40      -0.0201
     16  CD1        5.6110  -14.4270   41.2630 C.ar   40  TYR40      -0.0009
     17  CD2        5.8430  -12.3740   40.0520 C.ar   40  TYR40      -0.0009
     18  CE1        6.6520  -14.9850   40.5250 C.ar   40  TYR40       0.0417
     19  CE2        6.8830  -12.9240   39.3080 C.ar   40  TYR40       0.0417
     20  CZ         7.2830  -14.2270   39.5510 C.ar   40  TYR40       0.1957
     21  OH         8.3120  -14.7740   38.8200 O.3    40  TYR40      -0.2866
     22  N          3.7360   -8.9950   37.0040 N.3    42  ARG42      -0.1245
     23  CA         4.6700   -7.9010   36.7480 C.3    42  ARG42       0.1563
     24  C          4.1110   -6.9150   35.7260 C.2    42  ARG42       0.2260
     25  O          3.3620   -7.2980   34.8240 O.2    42  ARG42      -0.2867
     26  CB         6.0270   -8.4430   36.2820 C.3    42  ARG42       0.0307
     27  CG         6.7310   -9.3550   37.2870 C.3    42  ARG42       0.0489
     28  CD         7.4300   -8.5700   38.3930 C.3    42  ARG42       0.2205
     29  NE         7.8550   -9.4340   39.4950 N.pl3  42  ARG42      -0.0865
     30  CZ         9.0120  -10.0920   39.5430 C.cat  42  ARG42       0.5346
     31  NH1        9.8850  -10.0000   38.5470 N.pl3  42  ARG42       0.1354
     32  NH2        9.2960  -10.8500   40.5930 N.pl3  42  ARG42       0.1354
     33  N         20.1240  -17.6580   37.2120 N.3   114  MET114     -0.1230
     34  CA        19.4620  -18.0680   35.9700 C.3   114  MET114      0.1702
     35  C         18.5470  -19.2830   36.1590 C.2   114  MET114      0.2592
     36  O         18.1060  -19.8940   35.1810 O.2   114  MET114     -0.2718
     37  CB        20.5040  -18.3600   34.8810 C.3   114  MET114      0.0401
     38  CG        21.1650  -17.1250   34.2730 C.3   114  MET114      0.0596
     39  SD        20.0540  -16.1130   33.2700 S.3   114  MET114     -0.1393
     40  CE        19.8560  -17.1410   31.8140 C.3   114  MET114      0.0692
     41  N         18.2590  -19.6200   37.4140 N.am  115  LEU115     -0.1966
     42  CA        17.4450  -20.7930   37.7370 C.3   115  LEU115      0.1713
     43  C         15.9470  -20.5330   37.5360 C.2   115  LEU115      0.2458
     44  O         15.4940  -19.3960   37.6910 O.2   115  LEU115     -0.2730
     45  CB        17.7400  -21.2780   39.1640 C.3   115  LEU115      0.0310
     46  CG        19.1840  -21.6860   39.4880 C.3   115  LEU115      0.0022
     47  CD1       19.2810  -22.2550   40.8920 C.3   115  LEU115      0.0001
     48  CD2       19.7330  -22.6840   38.4760 C.3   115  LEU115      0.0001
     49  N         15.1770  -21.5890   37.1840 N.am  116  PRO116     -0.2716
     50  CA        13.7390  -21.5090   36.8810 C.3   116  PRO116      0.1536
     51  C         12.8860  -20.7440   37.8980 C.2   116  PRO116      0.2598
     52  O         11.8560  -20.1780   37.5260 O.2   116  PRO116     -0.2715
     53  CB        13.3000  -22.9830   36.8330 C.3   116  PRO116      0.0310
     54  CG        14.4590  -23.7750   37.3570 C.3   116  PRO116      0.0237
     55  CD        15.6670  -22.9700   37.0390 C.3   116  PRO116      0.0939
     56  N         13.3040  -20.7370   39.1610 N.am  117  GLU117     -0.1978
     57  CA        12.5680  -20.0320   40.2110 C.3   117  GLU117      0.1602
     58  C         13.4940  -19.4200   41.2610 C.2   117  GLU117      0.2287
     59  O         13.3910  -18.2300   41.5690 O.2   117  GLU117     -0.2864
     60  CB        11.5360  -20.9640   40.8660 C.3   117  GLU117      0.0415
     61  CG        10.7670  -20.3620   42.0480 C.3   117  GLU117      0.1163
     62  CD        10.0090  -19.0900   41.6950 C.2   117  GLU117      0.3649
     63  OE1        9.4360  -19.0100   40.5870 O.co2 117  GLU117     -0.2457
     64  OE2        9.9790  -18.1680   42.5380 O.co2 117  GLU117     -0.2457
     65  N         19.9770  -26.0260   26.6180 N.3   264  GLN264     -0.1245
     66  CA        18.7430  -25.6820   25.9140 C.3   264  GLN264      0.1566
     67  C         18.5210  -26.5860   24.7000 C.2   264  GLN264      0.2260
     68  O         19.2600  -26.5170   23.7160 O.2   264  GLN264     -0.2867
     69  CB        18.7520  -24.2040   25.4980 C.3   264  GLN264      0.0367
     70  CG        17.5220  -23.7480   24.7100 C.3   264  GLN264      0.0905
     71  CD        16.2950  -23.5530   25.5820 C.2   264  GLN264      0.2608
     72  OE1       16.2040  -22.5870   26.3390 O.2   264  GLN264     -0.2717
     73  NE2       15.3350  -24.4630   25.4650 N.am  264  GLN264     -0.0878
     74  N         14.4500  -27.0300   28.9000 N.3   270  ARG270     -0.1245
     75  CA        15.7010  -26.4670   29.4050 C.3   270  ARG270      0.1563
     76  C         16.0050  -26.9860   30.8170 C.2   270  ARG270      0.2260
     77  O         15.6790  -26.3200   31.8050 O.2   270  ARG270     -0.2867
     78  CB        15.6400  -24.9350   29.3910 C.3   270  ARG270      0.0307
     79  CG        16.9920  -24.2460   29.2860 C.3   270  ARG270      0.0489
     80  CD        16.8660  -22.7500   29.5400 C.3   270  ARG270      0.2205
     81  NE        17.8320  -21.9760   28.7600 N.pl3 270  ARG270     -0.0865
     82  CZ        19.0490  -21.6350   29.1770 C.cat 270  ARG270      0.5346
     83  NH1       19.4760  -21.9960   30.3800 N.pl3 270  ARG270      0.1354
     84  NH2       19.8440  -20.9290   28.3840 N.pl3 270  ARG270      0.1354
     85  N         12.8080  -26.0980   32.6790 N.3   300  THR300     -0.1218
     86  CA        11.8440  -25.1300   32.1610 C.3   300  THR300      0.1862
     87  C         11.4940  -25.4560   30.7110 C.2   300  THR300      0.2287
     88  O         12.3600  -25.4300   29.8340 O.2   300  THR300     -0.2866
     89  CB        12.3820  -23.6800   32.2540 C.3   300  THR300      0.1770
     90  OG1       12.8930  -23.4370   33.5700 O.3   300  THR300     -0.2211
     91  CG2       11.2810  -22.6680   31.9460 C.3   300  THR300      0.0375
     92  N          9.8830  -24.1680   27.5910 N.3   302  TYR302     -0.1241
     93  CA         9.4090  -22.9990   26.8620 C.3   302  TYR302      0.1605
     94  C          8.5650  -23.4440   25.6720 C.2   302  TYR302      0.2264
     95  O          9.0890  -24.0010   24.7030 O.2   302  TYR302     -0.2867
     96  CB        10.5850  -22.1350   26.3900 C.3   302  TYR302      0.0534
     97  CG        11.4320  -21.5560   27.5060 C.ar  302  TYR302     -0.0201
     98  CD1       11.1070  -20.3330   28.0920 C.ar  302  TYR302     -0.0009
     99  CD2       12.5650  -22.2270   27.9670 C.ar  302  TYR302     -0.0009
    100  CE1       11.8830  -19.7950   29.1160 C.ar  302  TYR302      0.0417
    101  CE2       13.3480  -21.6980   28.9900 C.ar  302  TYR302      0.0417
    102  CZ        13.0020  -20.4830   29.5590 C.ar  302  TYR302      0.1957
    103  OH        13.7730  -19.9560   30.5700 O.3   302  TYR302     -0.2866
    104  N          6.8930  -21.3300   23.7360 N.3   304  ASN304     -0.1225
    105  CA         7.4310  -20.3750   22.7690 C.3   304  ASN304      0.1785
    106  C          8.1300  -19.2200   23.4930 C.2   304  ASN304      0.2597
    107  O          8.5470  -19.3680   24.6450 O.2   304  ASN304     -0.2718
    108  CB         6.3360  -19.8680   21.8140 C.3   304  ASN304      0.1169
    109  CG         5.2200  -19.1210   22.5310 C.2   304  ASN304      0.2627
    110  OD1        4.8200  -19.4810   23.6380 O.2   304  ASN304     -0.2716
    111  ND2        4.7060  -18.0770   21.8900 N.am  304  ASN304     -0.0877
    112  N          8.2570  -18.0790   22.8190 N.am  305  LYS305     -0.1980
    113  CA         8.8690  -16.8880   23.4100 C.3   305  LYS305      0.1596
    114  C          7.9290  -16.1490   24.3720 C.2   305  LYS305      0.2287
    115  O          8.3380  -15.1940   25.0380 O.2   305  LYS305     -0.2864
    116  CB         9.3760  -15.9400   22.3140 C.3   305  LYS305      0.0298
    117  CG         8.3130  -15.4870   21.3090 C.3   305  LYS305      0.0038
    118  CD         8.8910  -14.5650   20.2400 C.3   305  LYS305      0.0206
    119  CE         9.0490  -13.1360   20.7450 C.3   305  LYS305      0.1093
    120  NZ         9.6020  -12.2340   19.6960 N.3   305  LYS305     -0.1314
    121  N          5.5520  -20.4060   28.9120 N.3   308  SER308     -0.1217
    122  CA         6.4940  -21.3620   29.5020 C.3   308  SER308      0.1889
    123  C          6.0220  -21.9210   30.8470 C.2   308  SER308      0.2288
    124  O          5.2720  -21.2660   31.5760 O.2   308  SER308     -0.2866
    125  CB         7.8730  -20.7190   29.6730 C.3   308  SER308      0.2089
    126  OG         7.7950  -19.5540   30.4760 O.3   308  SER308     -0.2183
    127  N          7.6310  -24.3580   34.3460 N.3   310  TYR310     -0.1241
    128  CA         8.8240  -24.8940   35.0080 C.3   310  TYR310      0.1605
    129  C          8.5320  -25.6290   36.3170 C.2   310  TYR310      0.2264
    130  O          7.5530  -25.3340   37.0060 O.2   310  TYR310     -0.2867
    131  CB         9.8660  -23.7890   35.2460 C.3   310  TYR310      0.0534
    132  CG         9.3790  -22.6200   36.0790 C.ar  310  TYR310     -0.0201
    133  CD1        9.4160  -22.6630   37.4750 C.ar  310  TYR310     -0.0009
    134  CD2        8.8950  -21.4640   35.4700 C.ar  310  TYR310     -0.0009
    135  CE1        8.9710  -21.5890   38.2400 C.ar  310  TYR310      0.0417
    136  CE2        8.4520  -20.3850   36.2260 C.ar  310  TYR310      0.0417
    137  CZ         8.4910  -20.4530   37.6080 C.ar  310  TYR310      0.1957
    138  OH         8.0510  -19.3840   38.3520 O.3   310  TYR310     -0.2866
    139  N          3.8260  -19.6270   33.3620 N.3   337  VAL337     -0.1245
    140  CA         4.1470  -18.2330   33.0410 C.3   337  VAL337      0.1561
    141  C          3.6880  -17.8070   31.6470 C.2   337  VAL337      0.2260
    142  O          3.9870  -18.4700   30.6500 O.2   337  VAL337     -0.2867
    143  CB         5.6750  -17.9490   33.1800 C.3   337  VAL337      0.0252
    144  CG1        5.9860  -16.4750   32.9310 C.3   337  VAL337      0.0019
    145  CG2        6.1820  -18.3610   34.5500 C.3   337  VAL337      0.0019
    146  N          4.1010  -14.2290   29.3850 N.3   339  GLN339     -0.1245
    147  CA         4.7720  -12.9300   29.3240 C.3   339  GLN339      0.1566
    148  C          4.6640  -12.2790   27.9460 C.2   339  GLN339      0.2260
    149  O          4.5920  -12.9680   26.9250 O.2   339  GLN339     -0.2867
    150  CB         6.2420  -13.0460   29.7510 C.3   339  GLN339      0.0367
    151  CG         7.0840  -14.0200   28.9310 C.3   339  GLN339      0.0905
    152  CD         8.5670  -13.9340   29.2510 C.2   339  GLN339      0.2608
    153  OE1        8.9610  -13.5510   30.3540 O.2   339  GLN339     -0.2717
    154  NE2        9.3990  -14.2960   28.2820 N.am  339  GLN339     -0.0878
@<TRIPOS>BOND
     1   120   119    1
     2   118   119    1
     3   118   117    1
     4   117   116    1
     5   108   109    1
     6   108   105    1
     7   111   109   am
     8   116   113    1
     9   109   110    2
    10   105   106    1
    11   105   104    1
    12   112   113    1
    13   112   106   am
    14   113   114    1
    15   106   107    2
    16    68    67    2
    17   114   115    2
    18    67    66    1
    19    95    94    2
    20    70    69    1
    21    70    71    1
    22    73    71   am
    23    69    66    1
    24    71    72    2
    25    94    93    1
    26    66    65    1
    27    96    93    1
    28    96    97    1
    29    93    92    1
    30   149   148    2
    31    97    99   ar
    32    97    98   ar
    33   148   147    1
    34    99   101   ar
    35    98   100   ar
    36   154   152   am
    37    84    82    1
    38    81    82    2
    39    81    80    1
    40    74    75    1
    41   121   122    1
    42   151   152    1
    43   151   150    1
    44   101   102   ar
    45   100   102   ar
    46    82    83    1
    47   152   153    2
    48    79    78    1
    49    79    80    1
    50   147   146    1
    51   147   150    1
    52    78    75    1
    53    75    76    1
    54   122   125    1
    55   122   123    1
    56   102   103    1
    57   125   126    1
    58    88    87    2
    59   142   141    2
    60    87    86    1
    61    76    77    2
    62   123   124    2
    63   141   140    1
    64    40    39    1
    65    91    89    1
    66    86    89    1
    67    86    85    1
    68    89    90    1
    69   144   143    1
    70   140   143    1
    71   140   139    1
    72     1     2    1
    73     2     5    1
    74     2     3    1
    75   143   145    1
    76     5     6    1
    77    39    38    1
    78     3     4    2
    79    38    37    1
    80   127   128    1
    81     6     7    1
    82     7     8    1
    83    25    24    2
    84    37    34    1
    85   128   131    1
    86   128   129    1
    87    36    35    2
    88   131   132    1
    89   134   132   ar
    90   134   136   ar
    91    24    23    1
    92     8     9    1
    93    34    35    1
    94    34    33    1
    95   132   133   ar
    96    35    41   am
    97   136   137   ar
    98    26    23    1
    99    26    27    1
   100   129   130    2
   101    23    22    1
   102    53    50    1
   103    53    54    1
   104    50    49    1
   105    50    51    1
   106    55    49    1
   107    55    54    1
   108    49    43   am
   109    27    28    1
   110    41    42    1
   111   133   135   ar
   112    52    51    2
   113    43    44    2
   114    43    42    1
   115   137   135   ar
   116   137   138    1
   117    42    45    1
   118    51    56   am
   119    28    29    1
   120    48    46    1
   121    31    30    1
   122    21    20    1
   123    13    12    2
   124    56    57    1
   125    45    46    1
   126    19    20   ar
   127    19    17   ar
   128    46    47    1
   129    29    30    2
   130    30    32    1
   131    20    18   ar
   132    12    11    1
   133    17    15   ar
   134    57    60    1
   135    57    58    1
   136    18    16   ar
   137    63    62   ar
   138    60    61    1
   139    15    16   ar
   140    15    14    1
   141    58    59    2
   142    11    10    1
   143    11    14    1
   144    62    61    1
   145    62    64   ar
