@<TRIPOS>MOLECULE
tmp/3hweB01.pdb
 115 108 0 0 0
SMALL
GASTEIGER

@<TRIPOS>ATOM
      1  N         44.4490  103.0000   30.9500 N.3    48  TYR48      -0.1241
      2  CA        45.3480  103.6400   29.9920 C.3    48  TYR48       0.1605
      3  C         46.1690  102.5690   29.2650 C.2    48  TYR48       0.2264
      4  O         46.3080  101.4420   29.7460 O.2    48  TYR48      -0.2867
      5  CB        46.2510  104.6690   30.6910 C.3    48  TYR48       0.0534
      6  CG        47.3930  104.0890   31.5070 C.ar   48  TYR48      -0.0201
      7  CD1       47.2040  103.6910   32.8290 C.ar   48  TYR48      -0.0009
      8  CD2       48.6670  103.9580   30.9600 C.ar   48  TYR48      -0.0009
      9  CE1       48.2530  103.1660   33.5770 C.ar   48  TYR48       0.0417
     10  CE2       49.7180  103.4340   31.6980 C.ar   48  TYR48       0.0417
     11  CZ        49.5060  103.0400   33.0030 C.ar   48  TYR48       0.1957
     12  OH        50.5520  102.5190   33.7280 O.3    48  TYR48      -0.2866
     13  N         52.9000  105.9710   26.5410 N.3    64  SER64      -0.1217
     14  CA        51.6100  105.6820   27.1730 C.3    64  SER64       0.1889
     15  C         50.5410  106.7170   26.8270 C.2    64  SER64       0.2288
     16  O         50.7950  107.9210   26.8660 O.2    64  SER64      -0.2866
     17  CB        51.7590  105.5860   28.6960 C.3    64  SER64       0.2089
     18  OG        51.9980  104.2480   29.0930 O.3    64  SER64      -0.2183
     19  N         47.0660  108.0820   28.1510 N.3    66  LEU66      -0.1245
     20  CA        46.0560  108.1880   29.2110 C.3    66  LEU66       0.1561
     21  C         45.1160  109.3650   28.9590 C.2    66  LEU66       0.2260
     22  O         45.4670  110.3180   28.2610 O.2    66  LEU66      -0.2867
     23  CB        46.6890  108.2930   30.6090 C.3    66  LEU66       0.0270
     24  CG        48.0280  109.0090   30.7880 C.3    66  LEU66       0.0019
     25  CD1       48.1610  109.5380   32.2110 C.3    66  LEU66       0.0001
     26  CD2       49.1890  108.0800   30.4490 C.3    66  LEU66       0.0001
     27  N         52.8460  110.3290   27.2210 N.3    75  TRP75      -0.1241
     28  CA        54.0550  110.3350   28.0490 C.3    75  TRP75       0.1605
     29  C         55.0970  109.3920   27.4310 C.2    75  TRP75       0.2264
     30  O         54.9660  108.1670   27.5110 O.2    75  TRP75      -0.2867
     31  CB        53.6750  109.9190   29.4780 C.3    75  TRP75       0.0550
     32  CG        54.8060  109.5070   30.3790 C.ar   75  TRP75       0.0003
     33  CD1       55.2030  108.2300   30.6630 C.ar   75  TRP75       0.0946
     34  CD2       55.6590  110.3700   31.1430 C.ar   75  TRP75       0.0152
     35  NE1       56.2580  108.2440   31.5400 N.ar   75  TRP75      -0.2442
     36  CE2       56.5580  109.5440   31.8510 C.ar   75  TRP75       0.0810
     37  CE3       55.7570  111.7600   31.2900 C.ar   75  TRP75       0.0012
     38  CZ2       57.5430  110.0620   32.6940 C.ar   75  TRP75       0.0191
     39  CZ3       56.7360  112.2740   32.1300 C.ar   75  TRP75       0.0001
     40  CH2       57.6170  111.4260   32.8190 C.ar   75  TRP75       0.0015
     41  N         58.8910  107.7860   26.8580 N.3    77  ARG77      -0.1245
     42  CA        60.1770  107.4270   27.4770 C.3    77  ARG77       0.1563
     43  C         60.8090  106.2540   26.7200 C.2    77  ARG77       0.2260
     44  O         60.2050  105.7180   25.7940 O.2    77  ARG77      -0.2867
     45  CB        60.0210  107.1220   28.9830 C.3    77  ARG77       0.0307
     46  CG        58.6010  106.7720   29.4670 C.3    77  ARG77       0.0489
     47  CD        58.3380  105.2740   29.5170 C.3    77  ARG77       0.2205
     48  NE        56.9740  104.9480   29.0940 N.pl3  77  ARG77      -0.0865
     49  CZ        55.9060  104.8650   29.8890 C.cat  77  ARG77       0.5346
     50  NH1       55.9900  105.0790   31.1980 N.pl3  77  ARG77       0.1354
     51  NH2       54.7280  104.5630   29.3620 N.pl3  77  ARG77       0.1354
     52  N         66.2370  102.7300   32.1000 N.3    90  LEU90      -0.1245
     53  CA        65.5830  103.9320   31.5830 C.3    90  LEU90       0.1561
     54  C         66.5260  104.7380   30.6930 C.2    90  LEU90       0.2260
     55  O         67.6630  105.0210   31.0710 O.2    90  LEU90      -0.2867
     56  CB        65.0810  104.8070   32.7360 C.3    90  LEU90       0.0270
     57  CG        64.2030  106.0100   32.3710 C.3    90  LEU90       0.0019
     58  CD1       63.0120  105.5920   31.5180 C.3    90  LEU90       0.0001
     59  CD2       63.7310  106.7250   33.6290 C.3    90  LEU90       0.0001
     60  N         65.6120  113.2640   34.2910 N.3    96  TYR96      -0.1241
     61  CA        64.5450  113.3080   35.2890 C.3    96  TYR96       0.1605
     62  C         65.1030  113.7620   36.6390 C.2    96  TYR96       0.2264
     63  O         65.8420  113.0100   37.2790 O.2    96  TYR96      -0.2867
     64  CB        63.9020  111.9280   35.4230 C.3    96  TYR96       0.0534
     65  CG        63.2940  111.4250   34.1360 C.ar   96  TYR96      -0.0201
     66  CD1       64.0540  110.7040   33.2220 C.ar   96  TYR96      -0.0009
     67  CD2       61.9620  111.6770   33.8280 C.ar   96  TYR96      -0.0009
     68  CE1       63.5030  110.2410   32.0370 C.ar   96  TYR96       0.0417
     69  CE2       61.4020  111.2210   32.6470 C.ar   96  TYR96       0.0417
     70  CZ        62.1770  110.5040   31.7550 C.ar   96  TYR96       0.1957
     71  OH        61.6200  110.0490   30.5810 O.3    96  TYR96      -0.2866
     72  N         65.7490  111.4960   39.9480 N.3    99  LEU99      -0.1245
     73  CA        65.7520  110.0870   39.5600 C.3    99  LEU99       0.1561
     74  C         67.1820  109.5420   39.4840 C.2    99  LEU99       0.2260
     75  O         67.9360  109.8870   38.5710 O.2    99  LEU99      -0.2867
     76  CB        65.0430  109.9200   38.2100 C.3    99  LEU99       0.0270
     77  CG        64.7460  108.5040   37.7180 C.3    99  LEU99       0.0019
     78  CD1       63.8850  107.7450   38.7140 C.3    99  LEU99       0.0001
     79  CD2       64.0690  108.5680   36.3590 C.3    99  LEU99       0.0001
     80  N         66.5880  103.2580   38.2420 N.3   102  TYR102     -0.1241
     81  CA        65.3960  102.8100   37.5290 C.3   102  TYR102      0.1605
     82  C         65.6410  101.4400   36.9140 C.2   102  TYR102      0.2264
     83  O         66.6760  101.2160   36.2820 O.2   102  TYR102     -0.2867
     84  CB        65.0170  103.8040   36.4370 C.3   102  TYR102      0.0534
     85  CG        63.5960  103.6490   35.9520 C.ar  102  TYR102     -0.0201
     86  CD1       63.2440  102.6120   35.0940 C.ar  102  TYR102     -0.0009
     87  CD2       62.6020  104.5380   36.3490 C.ar  102  TYR102     -0.0009
     88  CE1       61.9480  102.4620   34.6490 C.ar  102  TYR102      0.0417
     89  CE2       61.3050  104.3940   35.9030 C.ar  102  TYR102      0.0417
     90  CZ        60.9870  103.3490   35.0500 C.ar  102  TYR102      0.1957
     91  OH        59.7060  103.1770   34.5900 O.3   102  TYR102     -0.2866
     92  N         62.0770  102.0090   40.9580 N.3   121  LYS121     -0.1245
     93  CA        62.9140  103.2050   40.8610 C.3   121  LYS121      0.1561
     94  C         63.2990  103.7460   42.2370 C.2   121  LYS121      0.2260
     95  O         62.5520  103.5970   43.2070 O.2   121  LYS121     -0.2867
     96  CB        62.1930  104.2960   40.0640 C.3   121  LYS121      0.0271
     97  CG        60.9850  104.9020   40.7670 C.3   121  LYS121      0.0035
     98  CD        60.3090  105.9500   39.8980 C.3   121  LYS121      0.0206
     99  CE        59.0930  106.5360   40.5890 C.3   121  LYS121      0.1093
    100  NZ        58.4510  107.6060   39.7860 N.3   121  LYS121     -0.1314
    101  N         63.9460  107.3750   43.6820 N.3   123  SER123     -0.1217
    102  CA        63.7670  108.7920   43.3810 C.3   123  SER123      0.1889
    103  C         63.6890  109.5740   44.6810 C.2   123  SER123      0.2288
    104  O         62.7670  109.3670   45.4650 O.2   123  SER123     -0.2866
    105  CB        62.4880  109.0120   42.5760 C.3   123  SER123      0.2089
    106  OG        62.2440  110.3940   42.3860 O.3   123  SER123     -0.2183
    107  N         56.3480   99.0290   41.3650 N.3   130  LYS130     -0.1245
    108  CA        55.0020   98.6840   40.9250 C.3   130  LYS130      0.1561
    109  C         55.0160   97.5210   39.9450 C.2   130  LYS130      0.2260
    110  O         56.0190   97.2610   39.2790 O.2   130  LYS130     -0.2867
    111  CB        54.2950   99.8930   40.2980 C.3   130  LYS130      0.0271
    112  CG        54.9190  100.4050   38.9980 C.3   130  LYS130      0.0035
    113  CD        54.0820  101.5230   38.4040 C.3   130  LYS130      0.0206
    114  CE        54.5340  101.8990   37.0060 C.3   130  LYS130      0.1093
    115  NZ        53.7810  103.0900   36.5100 N.3   130  LYS130     -0.1314
@<TRIPOS>BOND
     1    44    43    2
     2    13    14    1
     3    43    42    1
     4    15    16    2
     5    15    14    1
     6    41    42    1
     7    14    17    1
     8    27    28    1
     9    29    30    2
    10    29    28    1
    11    42    45    1
    12    28    31    1
    13    19    20    1
    14    22    21    2
    15    17    18    1
    16    21    20    1
    17    45    46    1
    18    48    47    1
    19    48    49    2
    20    20    23    1
    21     3     4    2
    22     3     2    1
    23    51    49    1
    24    46    47    1
    25    31    32    1
    26    49    50    1
    27     2     5    1
    28     2     1    1
    29    32    33   ar
    30    32    34   ar
    31    26    24    1
    32    71    70    1
    33    23    24    1
    34    33    35   ar
    35     5     6    1
    36    54    55    2
    37    54    53    1
    38    24    25    1
    39     8     6   ar
    40     8    10   ar
    41    34    37   ar
    42    34    36   ar
    43    37    39   ar
    44     6     7   ar
    45    58    57    1
    46    35    36   ar
    47    53    52    1
    48    53    56    1
    49    10    11   ar
    50    70    68   ar
    51    70    69   ar
    52    36    38   ar
    53    68    66   ar
    54    39    40   ar
    55    57    56    1
    56    57    59    1
    57    69    67   ar
    58    38    40   ar
    59     7     9   ar
    60    11     9   ar
    61    11    12    1
    62    66    65   ar
    63    67    65   ar
    64    65    64    1
    65    60    61    1
    66    91    90    1
    67    88    90   ar
    68    88    86   ar
    69    90    89   ar
    70    86    85   ar
    71    61    64    1
    72    61    62    1
    73    89    87   ar
    74    85    87   ar
    75    85    84    1
    76    83    82    2
    77    79    77    1
    78    84    81    1
    79   115   114    1
    80    62    63    2
    81    82    81    1
    82   114   113    1
    83    81    80    1
    84    77    76    1
    85    77    78    1
    86    76    73    1
    87   113   112    1
    88    75    74    2
    89   112   111    1
    90   110   109    2
    91    74    73    1
    92    73    72    1
    93   100    99    1
    94    98    99    1
    95    98    97    1
    96   109   108    1
    97    96    97    1
    98    96    93    1
    99   111   108    1
   100    93    92    1
   101    93    94    1
   102   108   107    1
   103    94    95    2
   104   106   105    1
   105   105   102    1
   106   102   101    1
   107   102   103    1
   108   103   104    2
