@<TRIPOS>MOLECULE
tmp/3hweA01.pdb
 131 125 0 0 0
SMALL
GASTEIGER

@<TRIPOS>ATOM
      1  N         40.2030   72.7190   61.5700 N.3    49  TYR49      -0.1241
      2  CA        39.4170   71.7480   62.3310 C.3    49  TYR49       0.1605
      3  C         38.5910   70.8720   61.3850 C.2    49  TYR49       0.2264
      4  O         38.5680   71.0970   60.1740 O.2    49  TYR49      -0.2867
      5  CB        38.5420   72.4480   63.3790 C.3    49  TYR49       0.0534
      6  CG        37.4030   73.2820   62.8310 C.ar   49  TYR49      -0.0201
      7  CD1       37.6060   74.5960   62.4200 C.ar   49  TYR49      -0.0009
      8  CD2       36.1140   72.7640   62.7540 C.ar   49  TYR49      -0.0009
      9  CE1       36.5570   75.3630   61.9280 C.ar   49  TYR49       0.0417
     10  CE2       35.0620   73.5200   62.2680 C.ar   49  TYR49       0.0417
     11  CZ        35.2860   74.8160   61.8550 C.ar   49  TYR49       0.1957
     12  OH        34.2340   75.5590   61.3700 O.3    49  TYR49      -0.2866
     13  N         32.0100   68.2750   65.3600 N.3    65  SER65      -0.1217
     14  CA        33.2210   69.0390   65.0740 C.3    65  SER65       0.1889
     15  C         34.3050   68.6950   66.0950 C.2    65  SER65       0.2288
     16  O         34.0300   68.5790   67.2890 O.2    65  SER65      -0.2866
     17  CB        32.9380   70.5430   65.0550 C.3    65  SER65       0.2089
     18  OG        32.5410   70.9620   63.7590 O.3    65  SER65      -0.2183
     19  N         38.0870   70.0780   67.2680 N.3    67  LEU67      -0.1245
     20  CA        39.0460   71.1790   67.1590 C.3    67  LEU67       0.1561
     21  C         40.0780   71.1570   68.2850 C.2    67  LEU67       0.2260
     22  O         39.8110   70.6720   69.3820 O.2    67  LEU67      -0.2867
     23  CB        38.3320   72.5410   67.0920 C.3    67  LEU67       0.0270
     24  CG        36.8080   72.6200   67.2790 C.3    67  LEU67       0.0019
     25  CD1       36.4040   72.4080   68.7270 C.3    67  LEU67       0.0001
     26  CD2       36.2920   73.9610   66.7780 C.3    67  LEU67       0.0001
     27  N         32.5220   69.2910   69.6090 N.3    76  TRP76      -0.1241
     28  CA        31.2530   70.0240   69.5010 C.3    76  TRP76       0.1605
     29  C         30.2060   69.2070   68.7210 C.2    76  TRP76       0.2264
     30  O         30.3540   68.9900   67.5120 O.2    76  TRP76      -0.2867
     31  CB        31.5180   71.3700   68.8140 C.3    76  TRP76       0.0550
     32  CG        30.3090   72.2290   68.5950 C.ar   76  TRP76       0.0003
     33  CD1       29.7190   72.5270   67.3970 C.ar   76  TRP76       0.0946
     34  CD2       29.5490   72.9130   69.5960 C.ar   76  TRP76       0.0152
     35  NE1       28.6360   73.3520   67.5910 N.ar   76  TRP76      -0.2442
     36  CE2       28.5090   73.6050   68.9320 C.ar   76  TRP76       0.0810
     37  CE3       29.6430   73.0080   70.9900 C.ar   76  TRP76       0.0012
     38  CZ2       27.5700   74.3790   69.6170 C.ar   76  TRP76       0.0191
     39  CZ3       28.7100   73.7740   71.6720 C.ar   76  TRP76       0.0001
     40  CH2       27.6850   74.4500   70.9840 C.ar   76  TRP76       0.0015
     41  N         26.1750   68.3210   67.4850 N.3    78  ARG78      -0.1245
     42  CA        24.7940   68.7700   67.2450 C.3    78  ARG78       0.1563
     43  C         24.1440   67.9950   66.0930 C.2    78  ARG78       0.2260
     44  O         24.8330   67.3190   65.3310 O.2    78  ARG78      -0.2867
     45  CB        24.7160   70.2920   67.0130 C.3    78  ARG78       0.0307
     46  CG        25.3070   70.8270   65.6970 C.3    78  ARG78       0.0489
     47  CD        26.8190   70.6420   65.6230 C.3    78  ARG78       0.2205
     48  NE        27.4590   71.4910   64.6130 N.pl3  78  ARG78      -0.0865
     49  CZ        28.7060   71.3250   64.1620 C.cat  78  ARG78       0.5346
     50  NH1       29.4680   70.3340   64.6200 N.pl3  78  ARG78       0.1354
     51  NH2       29.1990   72.1520   63.2460 N.pl3  78  ARG78       0.1354
     52  N         18.5420   72.9180   62.7150 N.3    91  LEU91      -0.1245
     53  CA        19.1990   72.3940   63.9070 C.3    91  LEU91       0.1561
     54  C         18.1900   71.6420   64.7580 C.2    91  LEU91       0.2260
     55  O         17.0690   72.1060   64.9510 O.2    91  LEU91      -0.2867
     56  CB        19.8260   73.5330   64.7190 C.3    91  LEU91       0.0270
     57  CG        20.7750   73.1310   65.8520 C.3    91  LEU91       0.0019
     58  CD1       22.0480   72.5100   65.2920 C.3    91  LEU91       0.0001
     59  CD2       21.1030   74.3290   66.7360 C.3    91  LEU91       0.0001
     60  N         20.2490   75.6010   73.2070 N.3    97  TYR97      -0.1228
     61  CA        21.1210   76.7470   72.9500 C.3    97  TYR97       0.1721
     62  C         20.3780   78.0460   73.2940 C.2    97  TYR97       0.2437
     63  O         19.5750   78.5250   72.4980 O.2    97  TYR97      -0.2733
     64  CB        21.5690   76.7490   71.4890 C.3    97  TYR97       0.0547
     65  CG        22.2110   75.4520   71.0510 C.ar   97  TYR97      -0.0200
     66  CD1       21.4850   74.4950   70.3420 C.ar   97  TYR97      -0.0009
     67  CD2       23.5410   75.1770   71.3500 C.ar   97  TYR97      -0.0009
     68  CE1       22.0720   73.2990   69.9380 C.ar   97  TYR97       0.0417
     69  CE2       24.1380   73.9840   70.9500 C.ar   97  TYR97       0.0417
     70  CZ        23.4000   73.0510   70.2470 C.ar   97  TYR97       0.1957
     71  OH        23.9960   71.8720   69.8570 O.3    97  TYR97      -0.2866
     72  N         20.6220   78.6050   74.4960 N.am   98  PRO98      -0.2729
     73  CA        19.9000   79.8030   74.9450 C.3    98  PRO98       0.1401
     74  C         20.0770   81.0190   74.0340 C.2    98  PRO98       0.2269
     75  O         21.1920   81.3120   73.6040 O.2    98  PRO98      -0.2865
     76  CB        20.5120   80.0850   76.3270 C.3    98  PRO98       0.0296
     77  CG        21.0640   78.7960   76.7700 C.3    98  PRO98       0.0237
     78  CD        21.5660   78.1370   75.5260 C.3    98  PRO98       0.0939
     79  N         19.0440   81.3200   71.0300 N.3   100  LEU100     -0.1245
     80  CA        18.9900   80.8790   69.6370 C.3   100  LEU100      0.1561
     81  C         17.5410   80.6440   69.2220 C.2   100  LEU100      0.2260
     82  O         16.8510   79.8060   69.8030 O.2   100  LEU100     -0.2867
     83  CB        19.8080   79.5930   69.4640 C.3   100  LEU100      0.0270
     84  CG        20.1220   79.1050   68.0490 C.3   100  LEU100      0.0019
     85  CD1       21.0530   80.0570   67.3190 C.3   100  LEU100      0.0001
     86  CD2       20.7340   77.7180   68.1170 C.3   100  LEU100      0.0001
     87  N         17.9760   78.6790   62.8950 N.3   103  TYR103     -0.1241
     88  CA        19.1970   78.0530   62.3890 C.3   103  TYR103      0.1605
     89  C         18.9360   77.3350   61.0720 C.2   103  TYR103      0.2264
     90  O         18.0490   76.4870   60.9940 O.2   103  TYR103     -0.2867
     91  CB        19.7640   77.0590   63.4090 C.3   103  TYR103      0.0534
     92  CG        21.2250   76.7290   63.1880 C.ar  103  TYR103     -0.0201
     93  CD1       21.6170   75.7940   62.2300 C.ar  103  TYR103     -0.0009
     94  CD2       22.2180   77.3540   63.9370 C.ar  103  TYR103     -0.0009
     95  CE1       22.9590   75.4930   62.0260 C.ar  103  TYR103      0.0417
     96  CE2       23.5580   77.0600   63.7430 C.ar  103  TYR103      0.0417
     97  CZ        23.9190   76.1290   62.7860 C.ar  103  TYR103      0.1957
     98  OH        25.2400   75.8370   62.5910 O.3   103  TYR103     -0.2866
     99  N         22.3540   81.6460   61.4090 N.3   122  LYS122     -0.1245
    100  CA        21.6810   81.5640   62.7050 C.3   122  LYS122      0.1561
    101  C         21.2600   82.9400   63.2180 C.2   122  LYS122      0.2260
    102  O         21.9330   83.9400   62.9590 O.2   122  LYS122     -0.2867
    103  CB        22.5810   80.8760   63.7390 C.3   122  LYS122      0.0271
    104  CG        23.8050   81.6770   64.1730 C.3   122  LYS122      0.0035
    105  CD        24.5950   80.9390   65.2420 C.3   122  LYS122      0.0206
    106  CE        25.7470   81.7770   65.7730 C.3   122  LYS122      0.1093
    107  NZ        26.5080   81.0680   66.8380 N.3   122  LYS122     -0.1314
    108  N         20.5240   84.6490   66.8830 N.3   124  SER124     -0.1202
    109  CA        20.7370   84.4190   68.3110 C.3   124  SER124      0.2020
    110  C         20.8970   85.7390   69.0490 C.2   124  SER124      0.2618
    111  O         21.6860   86.5890   68.6310 O.2   124  SER124     -0.2717
    112  CB        21.9740   83.5580   68.5360 C.3   124  SER124      0.2103
    113  OG        22.2040   83.3880   69.9200 O.3   124  SER124     -0.2182
    114  N         20.1650   85.8850   70.1560 N.am  125  GLN125     -0.1979
    115  CA        19.9830   87.1830   70.8250 C.3   125  GLN125      0.1601
    116  C         19.5770   88.2550   69.8090 C.2   125  GLN125      0.2287
    117  O         20.0850   89.3770   69.8370 O.2   125  GLN125     -0.2864
    118  CB        21.2490   87.6210   71.5850 C.3   125  GLN125      0.0394
    119  CG        21.4700   86.9230   72.9290 C.3   125  GLN125      0.0908
    120  CD        22.4680   85.7820   72.8540 C.2   125  GLN125      0.2608
    121  OE1       22.5630   85.0820   71.8410 O.2   125  GLN125     -0.2717
    122  NE2       23.2220   85.5900   73.9320 N.am  125  GLN125     -0.0878
    123  N         27.6310   82.2780   57.9000 N.3   131  LYS131     -0.1245
    124  CA        28.9770   81.8830   57.4820 C.3   131  LYS131      0.1561
    125  C         28.9430   80.8760   56.3340 C.2   131  LYS131      0.2260
    126  O         27.9460   80.1830   56.1240 O.2   131  LYS131     -0.2867
    127  CB        29.7650   81.3060   58.6630 C.3   131  LYS131      0.0271
    128  CG        29.1860   80.0290   59.2520 C.3   131  LYS131      0.0035
    129  CD        30.0740   79.4710   60.3470 C.3   131  LYS131      0.0206
    130  CE        29.6500   78.0660   60.7300 C.3   131  LYS131      0.1093
    131  NZ        30.5210   77.4780   61.7840 N.3   131  LYS131     -0.1314
@<TRIPOS>BOND
     1   126   125    2
     2   125   124    1
     3   124   123    1
     4   124   127    1
     5   127   128    1
     6   128   129    1
     7     4     3    2
     8   129   130    1
     9   130   131    1
    10    90    89    2
    11    89    88    1
    12    12    11    1
    13     3     2    1
    14    99   100    1
    15     1     2    1
    16    11     9   ar
    17    11    10   ar
    18     9     7   ar
    19    95    93   ar
    20    95    97   ar
    21    93    92   ar
    22    10     8   ar
    23     2     5    1
    24    88    87    1
    25    88    91    1
    26     7     6   ar
    27    98    97    1
    28   100   101    1
    29   100   103    1
    30    52    53    1
    31     8     6   ar
    32    97    96   ar
    33     6     5    1
    34   102   101    2
    35    92    91    1
    36    92    94   ar
    37    51    49    1
    38   103   104    1
    39    96    94   ar
    40    18    17    1
    41    53    56    1
    42    53    54    1
    43    49    48    2
    44    49    50    1
    45   104   105    1
    46    48    47    1
    47    56    57    1
    48    54    55    2
    49    17    14    1
    50    14    13    1
    51    14    15    1
    52   105   106    1
    53    58    57    1
    54    44    43    2
    55    47    46    1
    56    46    45    1
    57   106   107    1
    58    57    59    1
    59    43    42    1
    60    15    16    2
    61    26    24    1
    62   108   109    1
    63    45    42    1
    64    23    20    1
    65    23    24    1
    66    20    19    1
    67    20    21    1
    68    42    41    1
    69    24    25    1
    70    85    84    1
    71    33    35   ar
    72    33    32   ar
    73    30    29    2
    74    35    36   ar
    75    84    86    1
    76    84    83    1
    77    21    22    2
    78   109   112    1
    79   109   110    1
    80   112   113    1
    81    32    31    1
    82    32    34   ar
    83   111   110    2
    84    29    28    1
    85    31    28    1
    86    36    34   ar
    87    36    38   ar
    88   110   114   am
    89    81    80    1
    90    81    82    2
    91    83    80    1
    92    28    27    1
    93    34    37   ar
    94    38    40   ar
    95    80    79    1
    96   116   117    2
    97   116   115    1
    98    71    70    1
    99    68    70   ar
   100    68    66   ar
   101   114   115    1
   102    70    69   ar
   103    66    65   ar
   104   115   118    1
   105    69    67   ar
   106    40    39   ar
   107    37    39   ar
   108    65    67   ar
   109    65    64    1
   110    64    61    1
   111   118   119    1
   112   121   120    2
   113    63    62    2
   114   120   119    1
   115   120   122   am
   116    61    60    1
   117    61    62    1
   118    62    72   am
   119    75    74    2
   120    74    73    1
   121    72    73    1
   122    72    78    1
   123    73    76    1
   124    78    77    1
   125    76    77    1
