@<TRIPOS>MOLECULE
tmp/3hweB00.pdb
 126 123 0 0 0
SMALL
GASTEIGER

@<TRIPOS>ATOM
      1  N         47.0180   97.0630   38.1800 N.3    32  LEU32      -0.1245
      2  CA        48.0470   97.9790   38.6690 C.3    32  LEU32       0.1561
      3  C         48.2680   97.7670   40.1690 C.2    32  LEU32       0.2260
      4  O         47.3160   97.7960   40.9460 O.2    32  LEU32      -0.2867
      5  CB        47.6310   99.4300   38.3990 C.3    32  LEU32       0.0270
      6  CG        48.7080  100.4070   37.9070 C.3    32  LEU32       0.0019
      7  CD1       48.2730  101.8390   38.1890 C.3    32  LEU32       0.0001
      8  CD2       50.0700  100.1420   38.5290 C.3    32  LEU32       0.0001
      9  N         53.1170  102.7550   46.1210 N.3    36  ALA36      -0.1231
     10  CA        52.6060  104.1160   45.9420 C.3    36  ALA36       0.1694
     11  C         51.2350  104.1540   45.2490 C.2    36  ALA36       0.2591
     12  O         50.6810  105.2360   45.0300 O.2    36  ALA36      -0.2718
     13  CB        53.6100  104.9460   45.1570 C.3    36  ALA36       0.0304
     14  N         50.7000  102.9830   44.9030 N.am   37  ILE37      -0.1980
     15  CA        49.3730  102.8770   44.2860 C.3    37  ILE37       0.1595
     16  C         48.3380  102.6570   45.3850 C.2    37  ILE37       0.2287
     17  O         48.5450  101.8290   46.2690 O.2    37  ILE37      -0.2864
     18  CB        49.2730  101.6990   43.2830 C.3    37  ILE37       0.0276
     19  CG1       50.4710  101.6690   42.3250 C.3    37  ILE37       0.0022
     20  CG2       47.9720  101.7960   42.4880 C.3    37  ILE37       0.0022
     21  CD1       50.5490  102.8650   41.3980 C.3    37  ILE37       0.0001
     22  N         40.5790  104.5490   39.2020 N.3    45  GLN45      -0.1245
     23  CA        41.6170  104.5940   38.1690 C.3    45  GLN45       0.1566
     24  C         41.0520  104.2110   36.8010 C.2    45  GLN45       0.2260
     25  O         40.4740  103.1360   36.6320 O.2    45  GLN45      -0.2867
     26  CB        42.7810  103.6660   38.5280 C.3    45  GLN45       0.0367
     27  CG        43.9670  103.8640   37.6250 C.3    45  GLN45       0.0905
     28  CD        44.6410  105.1990   37.8630 C.2    45  GLN45       0.2608
     29  OE1       44.9540  105.6160   39.0010 O.2    45  GLN45      -0.2717
     30  NE2       44.8720  105.9420   36.7820 N.am   45  GLN45      -0.0878
     31  N         44.4490  103.0000   30.9500 N.3    48  TYR48      -0.1241
     32  CA        45.3480  103.6400   29.9920 C.3    48  TYR48       0.1605
     33  C         46.1690  102.5690   29.2650 C.2    48  TYR48       0.2264
     34  O         46.3080  101.4420   29.7460 O.2    48  TYR48      -0.2867
     35  CB        46.2510  104.6690   30.6910 C.3    48  TYR48       0.0534
     36  CG        47.3930  104.0890   31.5070 C.ar   48  TYR48      -0.0201
     37  CD1       47.2040  103.6910   32.8290 C.ar   48  TYR48      -0.0009
     38  CD2       48.6670  103.9580   30.9600 C.ar   48  TYR48      -0.0009
     39  CE1       48.2530  103.1660   33.5770 C.ar   48  TYR48       0.0417
     40  CE2       49.7180  103.4340   31.6980 C.ar   48  TYR48       0.0417
     41  CZ        49.5060  103.0400   33.0030 C.ar   48  TYR48       0.1957
     42  OH        50.5520  102.5190   33.7280 O.3    48  TYR48      -0.2866
     43  N         43.1630  112.3010   30.5810 N.3    68  ARG68      -0.1245
     44  CA        43.1470  113.1850   31.7560 C.3    68  ARG68       0.1563
     45  C         42.6770  114.6040   31.4110 C.2    68  ARG68       0.2260
     46  O         43.0700  115.1670   30.3870 O.2    68  ARG68      -0.2867
     47  CB        44.5420  113.2440   32.3880 C.3    68  ARG68       0.0307
     48  CG        44.7050  114.0460   33.6730 C.3    68  ARG68       0.0489
     49  CD        44.4980  113.2070   34.9230 C.3    68  ARG68       0.2205
     50  NE        45.2850  111.9770   34.9240 N.pl3  68  ARG68      -0.0865
     51  CZ        44.8470  110.8170   35.4110 C.cat  68  ARG68       0.5346
     52  NH1       43.6280  110.7240   35.9440 N.pl3  68  ARG68       0.1354
     53  NH2       45.6270  109.7450   35.3640 N.pl3  68  ARG68       0.1354
     54  N         66.5880  103.2580   38.2420 N.3   102  TYR102     -0.1241
     55  CA        65.3960  102.8100   37.5290 C.3   102  TYR102      0.1605
     56  C         65.6410  101.4400   36.9140 C.2   102  TYR102      0.2264
     57  O         66.6760  101.2160   36.2820 O.2   102  TYR102     -0.2867
     58  CB        65.0170  103.8040   36.4370 C.3   102  TYR102      0.0534
     59  CG        63.5960  103.6490   35.9520 C.ar  102  TYR102     -0.0201
     60  CD1       63.2440  102.6120   35.0940 C.ar  102  TYR102     -0.0009
     61  CD2       62.6020  104.5380   36.3490 C.ar  102  TYR102     -0.0009
     62  CE1       61.9480  102.4620   34.6490 C.ar  102  TYR102      0.0417
     63  CE2       61.3050  104.3940   35.9030 C.ar  102  TYR102      0.0417
     64  CZ        60.9870  103.3490   35.0500 C.ar  102  TYR102      0.1957
     65  OH        59.7060  103.1770   34.5900 O.3   102  TYR102     -0.2866
     66  N         58.3590   97.0490   37.8160 N.3   119  PHE119     -0.1227
     67  CA        59.0300   98.3440   37.7150 C.3   119  PHE119      0.1736
     68  C         59.5230   98.7790   39.0880 C.2   119  PHE119      0.2595
     69  O         58.7810   98.7060   40.0640 O.2   119  PHE119     -0.2718
     70  CB        58.0710   99.4070   37.1810 C.3   119  PHE119      0.0547
     71  CG        57.5210   99.1080   35.8170 C.ar  119  PHE119     -0.0202
     72  CD1       58.1350   99.6150   34.6800 C.ar  119  PHE119     -0.0042
     73  CD2       56.3760   98.3360   35.6700 C.ar  119  PHE119     -0.0042
     74  CE1       57.6220   99.3490   33.4160 C.ar  119  PHE119     -0.0003
     75  CE2       55.8570   98.0660   34.4120 C.ar  119  PHE119     -0.0003
     76  CZ        56.4820   98.5750   33.2820 C.ar  119  PHE119     -0.0000
     77  N         60.7680   99.2360   39.1570 N.am  120  LYS120     -0.1966
     78  CA        61.3350   99.7650   40.4000 C.3   120  LYS120      0.1728
     79  C         62.2010  100.9900   40.1110 C.2   120  LYS120      0.2616
     80  O         62.9630  101.0060   39.1410 O.2   120  LYS120     -0.2715
     81  CB        62.1620   98.6900   41.1130 C.3   120  LYS120      0.0311
     82  CG        62.8650   99.1640   42.3880 C.3   120  LYS120      0.0038
     83  CD        63.8870   98.1410   42.8890 C.3   120  LYS120      0.0206
     84  CE        65.2580   98.7780   43.0940 C.3   120  LYS120      0.1093
     85  NZ        66.1310   97.9320   43.9420 N.3   120  LYS120     -0.1314
     86  N         62.0770  102.0090   40.9580 N.am  121  LYS121     -0.1977
     87  CA        62.9140  103.2050   40.8610 C.3   121  LYS121      0.1596
     88  C         63.2990  103.7460   42.2370 C.2   121  LYS121      0.2287
     89  O         62.5520  103.5970   43.2070 O.2   121  LYS121     -0.2864
     90  CB        62.1930  104.2960   40.0640 C.3   121  LYS121      0.0298
     91  CG        60.9850  104.9020   40.7670 C.3   121  LYS121      0.0038
     92  CD        60.3090  105.9500   39.8980 C.3   121  LYS121      0.0206
     93  CE        59.0930  106.5360   40.5890 C.3   121  LYS121      0.1093
     94  NZ        58.4510  107.6060   39.7860 N.3   121  LYS121     -0.1314
     95  N         60.4960  103.2930   45.2320 N.3   128  TYR128     -0.1227
     96  CA        59.1680  102.8920   44.7720 C.3   128  TYR128      0.1736
     97  C         59.2510  101.6610   43.8890 C.2   128  TYR128      0.2595
     98  O         60.2540  101.4290   43.2170 O.2   128  TYR128     -0.2718
     99  CB        58.5230  103.9940   43.9410 C.3   128  TYR128      0.0548
    100  CG        58.4280  105.3290   44.6190 C.ar  128  TYR128     -0.0200
    101  CD1       59.4180  106.2900   44.4420 C.ar  128  TYR128     -0.0009
    102  CD2       57.3370  105.6470   45.4190 C.ar  128  TYR128     -0.0009
    103  CE1       59.3310  107.5310   45.0560 C.ar  128  TYR128      0.0417
    104  CE2       57.2410  106.8840   46.0370 C.ar  128  TYR128      0.0417
    105  CZ        58.2410  107.8200   45.8510 C.ar  128  TYR128      0.1957
    106  OH        58.1490  109.0460   46.4550 O.3   128  TYR128     -0.2866
    107  N         58.1750  100.8850   43.8810 N.am  129  PHE129     -0.1962
    108  CA        58.0260   99.7890   42.9320 C.3   129  PHE129      0.1771
    109  C         56.5640   99.6360   42.5250 C.2   129  PHE129      0.2619
    110  O         55.6570  100.0690   43.2410 O.2   129  PHE129     -0.2715
    111  CB        58.5640   98.4800   43.5170 C.3   129  PHE129      0.0574
    112  CG        57.6990   97.8920   44.5940 C.ar  129  PHE129     -0.0200
    113  CD1       57.8140   98.3290   45.9070 C.ar  129  PHE129     -0.0042
    114  CD2       56.7730   96.8970   44.2960 C.ar  129  PHE129     -0.0042
    115  CE1       57.0190   97.7870   46.9070 C.ar  129  PHE129     -0.0003
    116  CE2       55.9750   96.3490   45.2880 C.ar  129  PHE129     -0.0003
    117  CZ        56.0970   96.7950   46.5980 C.ar  129  PHE129     -0.0000
    118  N         56.3480   99.0290   41.3650 N.am  130  LYS130     -0.1977
    119  CA        55.0020   98.6840   40.9250 C.3   130  LYS130      0.1596
    120  C         55.0160   97.5210   39.9450 C.2   130  LYS130      0.2287
    121  O         56.0190   97.2610   39.2790 O.2   130  LYS130     -0.2864
    122  CB        54.2950   99.8930   40.2980 C.3   130  LYS130      0.0298
    123  CG        54.9190  100.4050   38.9980 C.3   130  LYS130      0.0038
    124  CD        54.0820  101.5230   38.4040 C.3   130  LYS130      0.0206
    125  CE        54.5340  101.8990   37.0060 C.3   130  LYS130      0.1093
    126  NZ        53.7810  103.0900   36.5100 N.3   130  LYS130     -0.1314
@<TRIPOS>BOND
     1    33    34    2
     2    33    32    1
     3    32    35    1
     4    32    31    1
     5    46    45    2
     6    43    44    1
     7    35    36    1
     8    38    36   ar
     9    38    40   ar
    10    45    44    1
    11    36    37   ar
    12    40    41   ar
    13    44    47    1
    14    47    48    1
    15    37    39   ar
    16    41    39   ar
    17    41    42    1
    18    76    74   ar
    19    76    75   ar
    20    74    72   ar
    21    48    49    1
    22    75    73   ar
    23    65    64    1
    24    62    64   ar
    25    62    60   ar
    26    72    71   ar
    27    49    50    1
    28    50    51    2
    29    64    63   ar
    30    60    59   ar
    31    53    51    1
    32    51    52    1
    33    73    71   ar
    34    71    70    1
    35    63    61   ar
    36    59    61   ar
    37    59    58    1
    38    57    56    2
    39    58    55    1
    40   126   125    1
    41    25    24    2
    42    30    28   am
    43    24    23    1
    44    56    55    1
    45   125   124    1
    46    70    67    1
    47    55    54    1
    48    27    28    1
    49    27    26    1
    50    67    66    1
    51    67    68    1
    52    28    29    2
    53     6     7    1
    54     6     5    1
    55     6     8    1
    56    23    26    1
    57    23    22    1
    58     1     2    1
    59     5     2    1
    60   124   123    1
    61     2     3    1
    62   123   122    1
    63    68    77   am
    64    68    69    2
    65    80    79    2
    66    77    78    1
    67   121   120    2
    68    94    93    1
    69    92    93    1
    70    92    91    1
    71   120   119    1
    72    90    91    1
    73    90    87    1
    74    79    78    1
    75    79    86   am
    76     3     4    2
    77   122   119    1
    78    78    81    1
    79    87    86    1
    80    87    88    1
    81   119   118    1
    82    81    82    1
    83   118   109   am
    84    21    19    1
    85    88    89    2
    86    19    18    1
    87    82    83    1
    88    20    18    1
    89   109   108    1
    90   109   110    2
    91    83    84    1
    92   108   111    1
    93   108   107    1
    94    84    85    1
    95    98    97    2
    96    18    15    1
    97   111   112    1
    98   107    97   am
    99    97    96    1
   100    99   100    1
   101    99    96    1
   102    15    14    1
   103    15    16    1
   104   114   112   ar
   105   114   116   ar
   106   101   100   ar
   107   101   103   ar
   108   112   113   ar
   109   100   102   ar
   110    96    95    1
   111    14    11   am
   112    12    11    2
   113   103   105   ar
   114    13    10    1
   115    11    10    1
   116   116   117   ar
   117    16    17    2
   118   102   104   ar
   119   105   104   ar
   120   105   106    1
   121   113   115   ar
   122    10     9    1
   123   117   115   ar
