@<TRIPOS>MOLECULE
tmp/3hweC00.pdb
 160 154 0 0 0
SMALL
GASTEIGER

@<TRIPOS>ATOM
      1  N         51.1380   49.0630   35.3560 N.3    33  LEU33      -0.1245
      2  CA        51.5800   48.0460   36.3080 C.3    33  LEU33       0.1561
      3  C         53.1040   48.0720   36.4350 C.2    33  LEU33       0.2260
      4  O         53.8120   47.9450   35.4380 O.2    33  LEU33      -0.2867
      5  CB        51.1330   46.6590   35.8330 C.3    33  LEU33       0.0270
      6  CG        51.0030   45.5230   36.8580 C.3    33  LEU33       0.0019
      7  CD1       51.1060   44.1760   36.1520 C.3    33  LEU33       0.0001
      8  CD2       52.0410   45.6160   37.9570 C.3    33  LEU33       0.0001
      9  N         58.6970   41.8750   40.4320 N.3    37  ALA37      -0.1231
     10  CA        58.4600   40.6300   39.6870 C.3    37  ALA37       0.1694
     11  C         57.6290   40.8880   38.4250 C.2    37  ALA37       0.2591
     12  O         56.9920   39.9730   37.8920 O.2    37  ALA37      -0.2718
     13  CB        57.7720   39.6060   40.5720 C.3    37  ALA37       0.0304
     14  N         57.6400   42.1370   37.9610 N.am   38  ILE38      -0.1980
     15  CA        56.9420   42.5360   36.7380 C.3    38  ILE38       0.1595
     16  C         57.9810   42.8880   35.6810 C.2    38  ILE38       0.2287
     17  O         58.7450   43.8340   35.8540 O.2    38  ILE38      -0.2864
     18  CB        56.0390   43.7750   36.9580 C.3    38  ILE38       0.0276
     19  CG1       55.0880   43.5660   38.1420 C.3    38  ILE38       0.0022
     20  CG2       55.2590   44.0940   35.6880 C.3    38  ILE38       0.0022
     21  CD1       54.0880   42.4540   37.9470 C.3    38  ILE38       0.0001
     22  N         51.8540   42.5550   27.9050 N.3    46  GLN46      -0.1245
     23  CA        50.8610   42.3980   28.9640 C.3    46  GLN46       0.1566
     24  C         49.5060   42.9370   28.5030 C.2    46  GLN46       0.2260
     25  O         49.4120   44.0700   28.0340 O.2    46  GLN46      -0.2867
     26  CB        51.3250   43.1430   30.2190 C.3    46  GLN46       0.0367
     27  CG        50.3500   43.1170   31.3880 C.3    46  GLN46       0.0905
     28  CD        50.2400   41.7520   32.0180 C.2    46  GLN46       0.2608
     29  OE1       49.1790   41.1280   31.9930 O.2    46  GLN46      -0.2717
     30  NE2       51.3400   41.2760   32.5860 N.am   46  GLN46      -0.0878
     31  N         43.7160   44.0790   32.2900 N.3    49  TYR49      -0.1241
     32  CA        42.6990   43.3860   33.0760 C.3    49  TYR49       0.1605
     33  C         41.9900   44.3840   33.9870 C.2    49  TYR49       0.2264
     34  O         42.3790   45.5540   34.0630 O.2    49  TYR49      -0.2867
     35  CB        43.3170   42.2520   33.8940 C.3    49  TYR49       0.0534
     36  CG        44.3220   42.6860   34.9360 C.ar   49  TYR49      -0.0201
     37  CD1       45.6230   43.0150   34.5800 C.ar   49  TYR49      -0.0009
     38  CD2       43.9790   42.7390   36.2820 C.ar   49  TYR49      -0.0009
     39  CE1       46.5490   43.3970   35.5300 C.ar   49  TYR49       0.0417
     40  CE2       44.8970   43.1200   37.2370 C.ar   49  TYR49       0.0417
     41  CZ        46.1820   43.4480   36.8560 C.ar   49  TYR49       0.1957
     42  OH        47.1010   43.8320   37.8000 O.3    49  TYR49      -0.2866
     43  N         39.4960   40.1730   40.3300 N.3    65  SER65      -0.1217
     44  CA        40.2270   40.5440   39.1240 C.3    65  SER65       0.1889
     45  C         39.8440   39.6210   37.9710 C.2    65  SER65       0.2288
     46  O         39.7960   38.4010   38.1280 O.2    65  SER65      -0.2866
     47  CB        41.7330   40.5130   39.3690 C.3    65  SER65       0.2089
     48  OG        42.1160   41.5180   40.2930 O.3    65  SER65      -0.2183
     49  N         40.8650   38.6240   34.1820 N.3    67  LEU67      -0.1245
     50  CA        41.8920   38.6620   33.1330 C.3    67  LEU67       0.1561
     51  C         41.5280   37.7590   31.9520 C.2    67  LEU67       0.2260
     52  O         40.6890   36.8670   32.0720 O.2    67  LEU67      -0.2867
     53  CB        43.2640   38.2470   33.6880 C.3    67  LEU67       0.0270
     54  CG        43.6800   38.7910   35.0600 C.3    67  LEU67       0.0019
     55  CD1       43.0980   37.9320   36.1810 C.3    67  LEU67       0.0001
     56  CD2       45.1940   38.8540   35.1830 C.3    67  LEU67       0.0001
     57  N         43.2190   35.1000   29.6700 N.3    69  ARG69      -0.1245
     58  CA        44.3840   34.2200   29.5560 C.3    69  ARG69       0.1563
     59  C         44.0060   32.8720   28.9360 C.2    69  ARG69       0.2260
     60  O         42.9800   32.2800   29.2860 O.2    69  ARG69      -0.2867
     61  CB        45.0180   34.0040   30.9320 C.3    69  ARG69       0.0307
     62  CG        45.6340   35.2960   31.4770 C.3    69  ARG69       0.0489
     63  CD        47.0430   35.4170   30.8860 C.3    69  ARG69       0.2205
     64  NE        47.7230   36.5750   31.5570 N.pl3  69  ARG69      -0.0865
     65  CZ        47.5080   37.8290   31.1590 C.cat  69  ARG69       0.5346
     66  NH1       46.7690   38.1570   30.1030 N.pl3  69  ARG69       0.1354
     67  NH2       47.9270   38.8320   31.9550 N.pl3  69  ARG69       0.1354
     68  N         39.4590   35.6280   39.5680 N.3    76  TRP76      -0.1241
     69  CA        40.1390   35.2140   40.7810 C.3    76  TRP76       0.1605
     70  C         39.7620   36.1650   41.9290 C.2    76  TRP76       0.2264
     71  O         39.8320   37.3910   41.7930 O.2    76  TRP76      -0.2867
     72  CB        41.6420   35.0670   40.5020 C.3    76  TRP76       0.0550
     73  CG        42.5510   35.9520   41.2400 C.ar   76  TRP76       0.0003
     74  CD1       42.7610   37.2740   41.0230 C.ar   76  TRP76       0.0946
     75  CD2       43.4320   35.5690   42.2960 C.ar   76  TRP76       0.0152
     76  NE1       43.7030   37.7570   41.9030 N.ar   76  TRP76      -0.2442
     77  CE2       44.1320   36.7260   42.6950 C.ar   76  TRP76       0.0810
     78  CE3       43.6910   34.3590   42.9540 C.ar   76  TRP76       0.0012
     79  CZ2       45.0680   36.7150   43.7160 C.ar   76  TRP76       0.0191
     80  CZ3       44.6270   34.3490   43.9770 C.ar   76  TRP76       0.0001
     81  CH2       45.3060   35.5210   44.3460 C.ar   76  TRP76       0.0015
     82  N         51.0290   39.8610   53.6470 N.3   103  TYR103     -0.1241
     83  CA        50.3310   40.5640   52.5680 C.3   103  TYR103      0.1605
     84  C         49.8050   41.9280   53.0190 C.2   103  TYR103      0.2264
     85  O         49.0650   42.0230   54.0020 O.2   103  TYR103     -0.2867
     86  CB        49.1710   39.7270   52.0230 C.3   103  TYR103      0.0534
     87  CG        48.7350   40.1780   50.6510 C.ar  103  TYR103     -0.0201
     88  CD1       47.8670   41.2510   50.4920 C.ar  103  TYR103     -0.0009
     89  CD2       49.2150   39.5460   49.5050 C.ar  103  TYR103     -0.0009
     90  CE1       47.4810   41.6780   49.2340 C.ar  103  TYR103      0.0417
     91  CE2       48.8310   39.9660   48.2420 C.ar  103  TYR103      0.0417
     92  CZ        47.9630   41.0340   48.1170 C.ar  103  TYR103      0.1957
     93  OH        47.5760   41.4620   46.8740 O.3   103  TYR103     -0.2866
     94  N         51.0930   47.3220   46.6610 N.3   120  PHE120     -0.1241
     95  CA        50.8850   45.9480   47.1310 C.3   120  PHE120      0.1605
     96  C         52.2250   45.3140   47.4690 C.2   120  PHE120      0.2264
     97  O         53.1710   45.4210   46.6860 O.2   120  PHE120     -0.2867
     98  CB        50.2270   45.0980   46.0420 C.3   120  PHE120      0.0534
     99  CG        48.9120   45.6300   45.5560 C.ar  120  PHE120     -0.0203
    100  CD1       47.7190   45.0870   46.0050 C.ar  120  PHE120     -0.0042
    101  CD2       48.8670   46.6640   44.6340 C.ar  120  PHE120     -0.0042
    102  CE1       46.5080   45.5690   45.5520 C.ar  120  PHE120     -0.0003
    103  CE2       47.6570   47.1520   44.1770 C.ar  120  PHE120     -0.0003
    104  CZ        46.4760   46.6030   44.6350 C.ar  120  PHE120     -0.0000
    105  N         53.8900   41.5340   49.2770 N.3   122  LYS122     -0.1245
    106  CA        53.6870   40.1980   49.8470 C.3   122  LYS122      0.1561
    107  C         55.0120   39.4780   50.0960 C.2   122  LYS122      0.2260
    108  O         55.9920   39.6880   49.3770 O.2   122  LYS122     -0.2867
    109  CB        52.7950   39.3430   48.9370 C.3   122  LYS122      0.0271
    110  CG        53.4590   38.8660   47.6430 C.3   122  LYS122      0.0035
    111  CD        52.5000   38.0450   46.7860 C.3   122  LYS122      0.0206
    112  CE        53.1860   37.5070   45.5350 C.3   122  LYS122      0.1093
    113  NZ        52.2450   36.7830   44.6350 N.3   122  LYS122     -0.1314
    114  N         56.0940   35.7010   50.0590 N.3   124  SER124     -0.1202
    115  CA        55.6770   34.3560   49.6800 C.3   124  SER124      0.2020
    116  C         56.8990   33.4750   49.5370 C.2   124  SER124      0.2618
    117  O         57.8200   33.7980   48.7760 O.2   124  SER124     -0.2717
    118  CB        54.9190   34.3730   48.3570 C.3   124  SER124      0.2103
    119  OG        54.6970   33.0510   47.8920 O.3   124  SER124     -0.2182
    120  N         56.8930   32.3560   50.2580 N.am  125  GLN125     -0.1979
    121  CA        58.0340   31.4470   50.2850 C.3   125  GLN125      0.1601
    122  C         59.2990   32.2390   50.6280 C.2   125  GLN125      0.2287
    123  O         60.3360   32.1230   49.9740 O.2   125  GLN125     -0.2864
    124  CB        58.1260   30.6770   48.9630 C.3   125  GLN125      0.0394
    125  CG        57.0100   29.6250   48.8510 C.3   125  GLN125      0.0908
    126  CD        56.5680   29.3260   47.4250 C.2   125  GLN125      0.2608
    127  OE1       55.3770   29.4120   47.1060 O.2   125  GLN125     -0.2717
    128  NE2       57.5170   28.9620   46.5670 N.am  125  GLN125     -0.0878
    129  N         57.9470   40.3350   47.4180 N.3   129  TYR129     -0.1227
    130  CA        57.4950   40.9490   46.1630 C.3   129  TYR129      0.1736
    131  C         56.6870   42.2110   46.4300 C.2   129  TYR129      0.2595
    132  O         55.9600   42.2970   47.4190 O.2   129  TYR129     -0.2718
    133  CB        56.6120   39.9840   45.3730 C.3   129  TYR129      0.0548
    134  CG        57.2760   38.6730   45.0520 C.ar  129  TYR129     -0.0200
    135  CD1       57.0680   37.5510   45.8530 C.ar  129  TYR129     -0.0009
    136  CD2       58.1210   38.5530   43.9540 C.ar  129  TYR129     -0.0009
    137  CE1       57.6790   36.3490   45.5670 C.ar  129  TYR129      0.0417
    138  CE2       58.7360   37.3560   43.6580 C.ar  129  TYR129      0.0417
    139  CZ        58.5130   36.2580   44.4690 C.ar  129  TYR129      0.1957
    140  OH        59.1250   35.0690   44.1730 O.3   129  TYR129     -0.2866
    141  N         56.8100   43.1870   45.5390 N.am  130  PHE130     -0.1962
    142  CA        55.9640   44.3670   45.5950 C.3   130  PHE130      0.1771
    143  C         55.6050   44.8340   44.1890 C.2   130  PHE130      0.2619
    144  O         56.3890   44.6990   43.2500 O.2   130  PHE130     -0.2715
    145  CB        56.6120   45.4900   46.4190 C.3   130  PHE130      0.0574
    146  CG        57.7560   46.1830   45.7320 C.ar  130  PHE130     -0.0200
    147  CD1       59.0190   45.6130   45.7100 C.ar  130  PHE130     -0.0042
    148  CD2       57.5730   47.4210   45.1260 C.ar  130  PHE130     -0.0042
    149  CE1       60.0810   46.2580   45.0860 C.ar  130  PHE130     -0.0003
    150  CE2       58.6320   48.0750   44.4980 C.ar  130  PHE130     -0.0003
    151  CZ        59.8860   47.4900   44.4780 C.ar  130  PHE130     -0.0000
    152  N         54.3940   45.3540   44.0520 N.am  131  LYS131     -0.1977
    153  CA        53.9500   45.9250   42.7940 C.3   131  LYS131      0.1596
    154  C         53.1510   47.1860   43.0620 C.2   131  LYS131      0.2287
    155  O         52.7720   47.4700   44.1990 O.2   131  LYS131     -0.2864
    156  CB        53.1260   44.9190   41.9770 C.3   131  LYS131      0.0298
    157  CG        51.8140   44.4980   42.6070 C.3   131  LYS131      0.0038
    158  CD        51.0850   43.5160   41.7250 C.3   131  LYS131      0.0206
    159  CE        49.7080   43.2010   42.2780 C.3   131  LYS131      0.1093
    160  NZ        49.0250   42.1290   41.5000 N.3   131  LYS131     -0.1314
@<TRIPOS>BOND
     1    22    23    1
     2    25    24    2
     3    24    23    1
     4    59    60    2
     5    59    58    1
     6    23    26    1
     7    58    57    1
     8    58    61    1
     9    66    65    1
    10    26    27    1
    11    63    62    1
    12    63    64    1
    13    61    62    1
    14    65    64    2
    15    65    67    1
    16    27    28    1
    17    51    52    2
    18    51    50    1
    19    29    28    2
    20    28    30   am
    21    31    32    1
    22    32    35    1
    23    32    33    1
    24    50    53    1
    25    50    49    1
    26    53    54    1
    27    35    36    1
    28    33    34    2
    29    37    36   ar
    30    37    39   ar
    31    36    38   ar
    32    54    56    1
    33    54    55    1
    34     1     2    1
    35     4     3    2
    36    39    41   ar
    37    16    17    2
    38    16    15    1
    39    20    18    1
    40     5     2    1
    41     5     6    1
    42     7     6    1
    43    38    40   ar
    44     2     3    1
    45    15    18    1
    46    15    14    1
    47    41    40   ar
    48    41    42    1
    49     6     8    1
    50    18    19    1
    51    12    11    2
    52    21    19    1
    53    14    11   am
    54    45    46    2
    55    45    44    1
    56    11    10    1
    57    44    47    1
    58    44    43    1
    59    47    48    1
    60    68    69    1
    61    10     9    1
    62    10    13    1
    63    72    69    1
    64    72    73    1
    65    69    70    1
    66    74    73   ar
    67    74    76   ar
    68    73    75   ar
    69   160   159    1
    70   158   159    1
    71   158   157    1
    72    71    70    2
    73    76    77   ar
    74   156   157    1
    75   156   153    1
    76    75    77   ar
    77    75    78   ar
    78    77    79   ar
    79   153   154    1
    80   153   152    1
    81    78    80   ar
    82   154   155    2
    83   144   143    2
    84   138   136   ar
    85   138   139   ar
    86    79    81   ar
    87   136   134   ar
    88    80    81   ar
    89   152   143   am
    90   140   139    1
    91   103   101   ar
    92   103   104   ar
    93   143   142    1
    94   139   137   ar
    95   151   150   ar
    96   151   149   ar
    97   150   148   ar
    98   101    99   ar
    99   113   112    1
   100   104   102   ar
   101   134   133    1
   102   134   135   ar
   103   149   147   ar
   104   148   146   ar
   105   133   130    1
   106   112   111    1
   107   141   142    1
   108   141   131   am
   109   102   100   ar
   110    99   100   ar
   111    99    98    1
   112   137   135   ar
   113   142   145    1
   114   147   146   ar
   115   146   145    1
   116    98    95    1
   117   130   131    1
   118   130   129    1
   119   131   132    2
   120   128   126   am
   121    94    95    1
   122    97    96    2
   123   111   110    1
   124    93    92    1
   125   127   126    2
   126    95    96    1
   127   126   125    1
   128   110   109    1
   129   119   118    1
   130    92    91   ar
   131    92    90   ar
   132    91    89   ar
   133   118   115    1
   134   117   116    2
   135   125   124    1
   136   109   106    1
   137   124   121    1
   138    90    88   ar
   139   105   106    1
   140   108   107    2
   141    89    87   ar
   142   116   115    1
   143   116   120   am
   144   115   114    1
   145   106   107    1
   146   123   122    2
   147   120   121    1
   148   121   122    1
   149    88    87   ar
   150    87    86    1
   151    86    83    1
   152    83    84    1
   153    83    82    1
   154    84    85    2
