@<TRIPOS>MOLECULE
tmp/3hweA00.pdb
 168 160 0 0 0
SMALL
GASTEIGER

@<TRIPOS>ATOM
      1  N         37.1270   79.4430   55.5650 N.3    33  LEU33      -0.1245
      2  CA        36.1440   79.9100   56.5490 C.3    33  LEU33       0.1561
      3  C         35.8470   81.4050   56.3660 C.2    33  LEU33       0.2260
      4  O         36.7530   82.2340   56.4440 O.2    33  LEU33      -0.2867
      5  CB        36.6720   79.6510   57.9640 C.3    33  LEU33       0.0270
      6  CG        35.6600   79.3370   59.0650 C.3    33  LEU33       0.0019
      7  CD1       36.3520   79.3750   60.4200 C.3    33  LEU33       0.0001
      8  CD2       34.4850   80.2890   59.0440 C.3    33  LEU33       0.0001
      9  N         30.7230   87.2790   61.2670 N.3    37  ALA37      -0.1231
     10  CA        31.3620   87.2230   62.5840 C.3    37  ALA37       0.1694
     11  C         32.7850   86.6470   62.5140 C.2    37  ALA37       0.2591
     12  O         33.4850   86.6060   63.5210 O.2    37  ALA37      -0.2718
     13  CB        30.5110   86.4100   63.5410 C.3    37  ALA37       0.0304
     14  N         33.2020   86.2070   61.3280 N.am   38  ILE38      -0.1980
     15  CA        34.5390   85.6460   61.1190 C.3    38  ILE38       0.1595
     16  C         35.5170   86.7470   60.7050 C.2    38  ILE38       0.2287
     17  O         35.2540   87.5030   59.7700 O.2    38  ILE38      -0.2864
     18  CB        34.5320   84.5580   60.0260 C.3    38  ILE38       0.0276
     19  CG1       33.5170   83.4570   60.3580 C.3    38  ILE38       0.0022
     20  CG2       35.9280   83.9660   59.8590 C.3    38  ILE38       0.0022
     21  CD1       33.8760   82.6260   61.5690 C.3    38  ILE38       0.0001
     22  N         43.7340   81.2370   62.8070 N.3    46  GLN46      -0.1245
     23  CA        42.7990   80.1260   62.9960 C.3    46  GLN46       0.1566
     24  C         43.4300   78.7810   62.6350 C.2    46  GLN46       0.2260
     25  O         43.9110   78.6000   61.5150 O.2    46  GLN46      -0.2867
     26  CB        41.5570   80.3580   62.1220 C.3    46  GLN46       0.0367
     27  CG        40.5130   79.2490   62.1540 C.3    46  GLN46       0.0905
     28  CD        39.7930   79.1690   63.4780 C.2    46  GLN46       0.2608
     29  OE1       39.9440   78.2020   64.2220 O.2    46  GLN46      -0.2717
     30  NE2       39.0070   80.1890   63.7830 N.am   46  GLN46      -0.0878
     31  N         40.2030   72.7190   61.5700 N.3    49  TYR49      -0.1241
     32  CA        39.4170   71.7480   62.3310 C.3    49  TYR49       0.1605
     33  C         38.5910   70.8720   61.3850 C.2    49  TYR49       0.2264
     34  O         38.5680   71.0970   60.1740 O.2    49  TYR49      -0.2867
     35  CB        38.5420   72.4480   63.3790 C.3    49  TYR49       0.0534
     36  CG        37.4030   73.2820   62.8310 C.ar   49  TYR49      -0.0201
     37  CD1       37.6060   74.5960   62.4200 C.ar   49  TYR49      -0.0009
     38  CD2       36.1140   72.7640   62.7540 C.ar   49  TYR49      -0.0009
     39  CE1       36.5570   75.3630   61.9280 C.ar   49  TYR49       0.0417
     40  CE2       35.0620   73.5200   62.2680 C.ar   49  TYR49       0.0417
     41  CZ        35.2860   74.8160   61.8550 C.ar   49  TYR49       0.1957
     42  OH        34.2340   75.5590   61.3700 O.3    49  TYR49      -0.2866
     43  N         38.0870   70.0780   67.2680 N.3    67  LEU67      -0.1245
     44  CA        39.0460   71.1790   67.1590 C.3    67  LEU67       0.1561
     45  C         40.0780   71.1570   68.2850 C.2    67  LEU67       0.2260
     46  O         39.8110   70.6720   69.3820 O.2    67  LEU67      -0.2867
     47  CB        38.3320   72.5410   67.0920 C.3    67  LEU67       0.0270
     48  CG        36.8080   72.6200   67.2790 C.3    67  LEU67       0.0019
     49  CD1       36.4040   72.4080   68.7270 C.3    67  LEU67       0.0001
     50  CD2       36.2920   73.9610   66.7780 C.3    67  LEU67       0.0001
     51  N         42.1620   73.0460   70.8950 N.3    69  ARG69      -0.1231
     52  CA        42.1570   74.2740   71.6920 C.3    69  ARG69       0.1694
     53  C         42.6770   74.0360   73.1100 C.2    69  ARG69       0.2591
     54  O         42.2970   73.0640   73.7650 O.2    69  ARG69      -0.2718
     55  CB        40.7410   74.8460   71.7510 C.3    69  ARG69       0.0321
     56  CG        40.2750   75.3380   70.3780 C.3    69  ARG69       0.0489
     57  CD        40.8060   76.7640   70.1970 C.3    69  ARG69       0.2205
     58  NE        40.2000   77.3230   68.9420 N.pl3  69  ARG69      -0.0865
     59  CZ        40.7090   77.0410   67.7430 C.cat  69  ARG69       0.5346
     60  NH1       41.8230   76.3380   67.5550 N.pl3  69  ARG69       0.1354
     61  NH2       39.9790   77.3440   66.6520 N.pl3  69  ARG69       0.1354
     62  N         43.5420   74.9350   73.5770 N.am   70  LYS70      -0.1980
     63  CA        44.1380   74.8440   74.9200 C.3    70  LYS70       0.1596
     64  C         44.8660   73.5100   75.1310 C.2    70  LYS70       0.2287
     65  O         44.7650   72.8940   76.1950 O.2    70  LYS70      -0.2864
     66  CB        43.0700   75.0530   76.0010 C.3    70  LYS70       0.0298
     67  CG        42.6450   76.5450   75.9450 C.3    70  LYS70       0.0038
     68  CD        41.7440   76.7840   77.1530 C.3    70  LYS70       0.0206
     69  CE        40.5230   77.5670   76.6600 C.3    70  LYS70       0.1093
     70  NZ        39.9930   76.8010   75.4710 N.3    70  LYS70      -0.1314
     71  N         38.5880   69.3140   71.5550 N.3    74  ASP74      -0.1239
     72  CA        37.2160   69.5980   71.9800 C.3    74  ASP74       0.1674
     73  C         36.2220   69.0900   70.9420 C.2    74  ASP74       0.2266
     74  O         36.4150   69.2740   69.7420 O.2    74  ASP74      -0.2867
     75  CB        37.0230   71.0980   72.2120 C.3    74  ASP74       0.1410
     76  CG        37.8690   71.6220   73.3640 C.2    74  ASP74       0.3668
     77  OD1       37.5240   72.6860   73.9210 O.co2  74  ASP74      -0.2456
     78  OD2       38.8770   70.9700   73.7200 O.co2  74  ASP74      -0.2456
     79  N         17.9760   78.6790   62.8950 N.3   103  TYR103     -0.1241
     80  CA        19.1970   78.0530   62.3890 C.3   103  TYR103      0.1605
     81  C         18.9360   77.3350   61.0720 C.2   103  TYR103      0.2264
     82  O         18.0490   76.4870   60.9940 O.2   103  TYR103     -0.2867
     83  CB        19.7640   77.0590   63.4090 C.3   103  TYR103      0.0534
     84  CG        21.2250   76.7290   63.1880 C.ar  103  TYR103     -0.0201
     85  CD1       21.6170   75.7940   62.2300 C.ar  103  TYR103     -0.0009
     86  CD2       22.2180   77.3540   63.9370 C.ar  103  TYR103     -0.0009
     87  CE1       22.9590   75.4930   62.0260 C.ar  103  TYR103      0.0417
     88  CE2       23.5580   77.0600   63.7430 C.ar  103  TYR103      0.0417
     89  CZ        23.9190   76.1290   62.7860 C.ar  103  TYR103      0.1957
     90  OH        25.2400   75.8370   62.5910 O.3   103  TYR103     -0.2866
     91  N         25.7170   78.5790   56.2400 N.3   120  PHE120     -0.1241
     92  CA        25.0280   78.5320   57.5380 C.3   120  PHE120      0.1605
     93  C         24.4700   79.9040   57.9040 C.2   120  PHE120      0.2264
     94  O         25.0870   80.9260   57.5970 O.2   120  PHE120     -0.2867
     95  CB        25.9910   78.0900   58.6420 C.3   120  PHE120      0.0534
     96  CG        26.7180   76.8070   58.3430 C.ar  120  PHE120     -0.0203
     97  CD1       26.2930   75.6050   58.8910 C.ar  120  PHE120     -0.0042
     98  CD2       27.8280   76.8060   57.5150 C.ar  120  PHE120     -0.0042
     99  CE1       26.9600   74.4240   58.6160 C.ar  120  PHE120     -0.0003
    100  CE2       28.4980   75.6340   57.2340 C.ar  120  PHE120     -0.0003
    101  CZ        28.0650   74.4360   57.7870 C.ar  120  PHE120     -0.0000
    102  N         22.3540   81.6460   61.4090 N.3   122  LYS122     -0.1245
    103  CA        21.6810   81.5640   62.7050 C.3   122  LYS122      0.1561
    104  C         21.2600   82.9400   63.2180 C.2   122  LYS122      0.2260
    105  O         21.9330   83.9400   62.9590 O.2   122  LYS122     -0.2867
    106  CB        22.5810   80.8760   63.7390 C.3   122  LYS122      0.0271
    107  CG        23.8050   81.6770   64.1730 C.3   122  LYS122      0.0035
    108  CD        24.5950   80.9390   65.2420 C.3   122  LYS122      0.0206
    109  CE        25.7470   81.7770   65.7730 C.3   122  LYS122      0.1093
    110  NZ        26.5080   81.0680   66.8380 N.3   122  LYS122     -0.1314
    111  N         20.5240   84.6490   66.8830 N.3   124  SER124     -0.1202
    112  CA        20.7370   84.4190   68.3110 C.3   124  SER124      0.2020
    113  C         20.8970   85.7390   69.0490 C.2   124  SER124      0.2618
    114  O         21.6860   86.5890   68.6310 O.2   124  SER124     -0.2717
    115  CB        21.9740   83.5580   68.5360 C.3   124  SER124      0.2103
    116  OG        22.2040   83.3880   69.9200 O.3   124  SER124     -0.2182
    117  N         20.1650   85.8850   70.1560 N.am  125  GLN125     -0.1979
    118  CA        19.9830   87.1830   70.8250 C.3   125  GLN125      0.1601
    119  C         19.5770   88.2550   69.8090 C.2   125  GLN125      0.2287
    120  O         20.0850   89.3770   69.8370 O.2   125  GLN125     -0.2864
    121  CB        21.2490   87.6210   71.5850 C.3   125  GLN125      0.0394
    122  CG        21.4700   86.9230   72.9290 C.3   125  GLN125      0.0908
    123  CD        22.4680   85.7820   72.8540 C.2   125  GLN125      0.2608
    124  OE1       22.5630   85.0820   71.8410 O.2   125  GLN125     -0.2717
    125  NE2       23.2220   85.5900   73.9320 N.am  125  GLN125     -0.0878
    126  N         20.4810   88.6580   66.8950 N.3   127  ARG127     -0.1245
    127  CA        21.5680   89.0250   65.9890 C.3   127  ARG127      0.1563
    128  C         21.6900   87.9810   64.8850 C.2   127  ARG127      0.2260
    129  O         21.8190   86.7920   65.1680 O.2   127  ARG127     -0.2867
    130  CB        22.8830   89.1480   66.7560 C.3   127  ARG127      0.0307
    131  CG        22.9440   90.3580   67.6770 C.3   127  ARG127      0.0489
    132  CD        24.2500   90.3860   68.4750 C.3   127  ARG127      0.2205
    133  NE        24.3420   89.2790   69.4210 N.pl3 127  ARG127     -0.0865
    134  CZ        25.1810   89.2330   70.4480 C.cat 127  ARG127      0.5346
    135  NH1       26.0270   90.2290   70.6740 N.pl3 127  ARG127      0.1354
    136  NH2       25.1150   88.2170   71.2990 N.pl3 127  ARG127      0.1354
    137  N         23.5810   86.0540   62.2650 N.3   129  TYR129     -0.1227
    138  CA        24.9230   85.6320   61.8680 C.3   129  TYR129      0.1736
    139  C         24.8380   84.6640   60.6980 C.2   129  TYR129      0.2595
    140  O         23.9190   83.8500   60.6250 O.2   129  TYR129     -0.2718
    141  CB        25.6270   84.9340   63.0290 C.3   129  TYR129      0.0548
    142  CG        25.8210   85.7970   64.2560 C.ar  129  TYR129     -0.0200
    143  CD1       24.9340   85.7280   65.3270 C.ar  129  TYR129     -0.0009
    144  CD2       26.9000   86.6770   64.3510 C.ar  129  TYR129     -0.0009
    145  CE1       25.1110   86.5130   66.4560 C.ar  129  TYR129      0.0417
    146  CE2       27.0870   87.4660   65.4760 C.ar  129  TYR129      0.0417
    147  CZ        26.1860   87.3820   66.5240 C.ar  129  TYR129      0.1957
    148  OH        26.3650   88.1630   67.6460 O.3   129  TYR129     -0.2866
    149  N         25.7960   84.7550   59.7830 N.am  130  PHE130     -0.1962
    150  CA        25.9130   83.7740   58.7100 C.3   130  PHE130      0.1771
    151  C         27.3770   83.4790   58.4120 C.2   130  PHE130      0.2619
    152  O         28.2510   84.3180   58.6490 O.2   130  PHE130     -0.2715
    153  CB        25.1790   84.2430   57.4470 C.3   130  PHE130      0.0574
    154  CG        25.9130   85.2950   56.6630 C.ar  130  PHE130     -0.0200
    155  CD1       25.8410   86.6310   57.0310 C.ar  130  PHE130     -0.0042
    156  CD2       26.6680   84.9490   55.5490 C.ar  130  PHE130     -0.0042
    157  CE1       26.5170   87.6090   56.3060 C.ar  130  PHE130     -0.0003
    158  CE2       27.3460   85.9190   54.8230 C.ar  130  PHE130     -0.0003
    159  CZ        27.2700   87.2520   55.2050 C.ar  130  PHE130     -0.0000
    160  N         27.6310   82.2780   57.9000 N.am  131  LYS131     -0.1977
    161  CA        28.9770   81.8830   57.4820 C.3   131  LYS131      0.1596
    162  C         28.9430   80.8760   56.3340 C.2   131  LYS131      0.2287
    163  O         27.9460   80.1830   56.1240 O.2   131  LYS131     -0.2864
    164  CB        29.7650   81.3060   58.6630 C.3   131  LYS131      0.0298
    165  CG        29.1860   80.0290   59.2520 C.3   131  LYS131      0.0038
    166  CD        30.0740   79.4710   60.3470 C.3   131  LYS131      0.0206
    167  CE        29.6500   78.0660   60.7300 C.3   131  LYS131      0.1093
    168  NZ        30.5210   77.4780   61.7840 N.3   131  LYS131     -0.1314
@<TRIPOS>BOND
     1   158   159   ar
     2   158   156   ar
     3   159   157   ar
     4   156   154   ar
     5     1     2    1
     6   163   162    2
     7    91    92    1
     8   157   155   ar
     9   162   161    1
    10     3     4    2
    11     3     2    1
    12     2     5    1
    13   154   155   ar
    14   154   153    1
    15   100    98   ar
    16   100   101   ar
    17   153   150    1
    18   161   160    1
    19   161   164    1
    20    98    96   ar
    21    92    93    1
    22    92    95    1
    23    94    93    2
    24   101    99   ar
    25   160   151   am
    26     5     6    1
    27    96    95    1
    28    96    97   ar
    29   151   152    2
    30   151   150    1
    31    99    97   ar
    32   164   165    1
    33   150   149    1
    34     8     6    1
    35     6     7    1
    36   165   166    1
    37    17    16    2
    38   149   139   am
    39    20    18    1
    40    18    19    1
    41    18    15    1
    42    34    33    2
    43   166   167    1
    44    19    21    1
    45   140   139    2
    46   139   138    1
    47    16    15    1
    48   167   168    1
    49    82    81    2
    50    81    80    1
    51    15    14    1
    52     9    10    1
    53    14    11   am
    54    42    41    1
    55    33    32    1
    56   102   103    1
    57    25    24    2
    58    31    32    1
    59    41    39   ar
    60    41    40   ar
    61   138   137    1
    62   138   141    1
    63    39    37   ar
    64    87    85   ar
    65    87    89   ar
    66    26    27    1
    67    26    23    1
    68    27    28    1
    69    85    84   ar
    70    40    38   ar
    71    32    35    1
    72    80    79    1
    73    80    83    1
    74    37    36   ar
    75    11    10    1
    76    11    12    2
    77    10    13    1
    78    90    89    1
    79    24    23    1
    80   103   104    1
    81   103   106    1
    82    38    36   ar
    83    89    88   ar
    84    22    23    1
    85    36    35    1
    86   105   104    2
    87   141   142    1
    88    84    83    1
    89    84    86   ar
    90    28    30   am
    91    28    29    2
    92   106   107    1
    93    88    86   ar
    94   107   108    1
    95   142   144   ar
    96   142   143   ar
    97   144   146   ar
    98   128   129    2
    99   128   127    1
   100   108   109    1
   101   143   145   ar
   102   146   147   ar
   103   109   110    1
   104   127   130    1
   105   127   126    1
   106   145   147   ar
   107   147   148    1
   108    61    59    1
   109   130   131    1
   110    50    48    1
   111   111   112    1
   112    47    44    1
   113    47    48    1
   114    44    43    1
   115    44    45    1
   116    48    49    1
   117    60    59    1
   118   131   132    1
   119    59    58    2
   120    45    46    2
   121   112   115    1
   122   112   113    1
   123   132   133    1
   124   115   116    1
   125   114   113    2
   126    58    57    1
   127   113   117   am
   128   133   134    2
   129    74    73    2
   130   119   120    2
   131   119   118    1
   132   117   118    1
   133    57    56    1
   134    56    55    1
   135   134   135    1
   136   134   136    1
   137   118   121    1
   138    51    52    1
   139    73    72    1
   140    71    72    1
   141   121   122    1
   142    52    55    1
   143    52    53    1
   144   124   123    2
   145    72    75    1
   146    75    76    1
   147   123   122    1
   148   123   125   am
   149    53    62   am
   150    53    54    2
   151    76    78   ar
   152    76    77   ar
   153    62    63    1
   154    63    64    1
   155    63    66    1
   156    64    65    2
   157    70    69    1
   158    67    66    1
   159    67    68    1
   160    69    68    1
