@<TRIPOS>MOLECULE
tmp/3hwgA00.pdb
 173 166 0 0 0
SMALL
GASTEIGER

@<TRIPOS>ATOM
      1  N         30.4020   86.3270   61.0290 N.3    37  ALA37      -0.1231
      2  CA        31.0580   86.3020   62.3410 C.3    37  ALA37       0.1694
      3  C         32.4580   85.6750   62.2720 C.2    37  ALA37       0.2591
      4  O         33.1200   85.5160   63.2980 O.2    37  ALA37      -0.2718
      5  CB        30.1930   85.5580   63.3490 C.3    37  ALA37       0.0304
      6  N         32.9010   85.3220   61.0660 N.am   38  ILE38      -0.1980
      7  CA        34.2390   84.7800   60.8520 C.3    38  ILE38       0.1595
      8  C         35.1850   85.9290   60.5290 C.2    38  ILE38       0.2287
      9  O         34.9280   86.7020   59.6110 O.2    38  ILE38      -0.2864
     10  CB        34.2710   83.7730   59.6770 C.3    38  ILE38       0.0276
     11  CG1       33.2280   82.6660   59.8710 C.3    38  ILE38       0.0022
     12  CG2       35.6610   83.1700   59.5280 C.3    38  ILE38       0.0022
     13  CD1       33.3920   81.8760   61.1470 C.3    38  ILE38       0.0001
     14  N         39.7830   72.0220   61.1890 N.3    49  TYR49      -0.1241
     15  CA        39.0360   71.0320   61.9440 C.3    49  TYR49       0.1605
     16  C         38.2810   70.1290   60.9810 C.2    49  TYR49       0.2264
     17  O         38.2670   70.3680   59.7730 O.2    49  TYR49      -0.2867
     18  CB        38.0970   71.6970   62.9570 C.3    49  TYR49       0.0534
     19  CG        37.0240   72.5980   62.3800 C.ar   49  TYR49      -0.0201
     20  CD1       37.2840   73.9370   62.1110 C.ar   49  TYR49      -0.0009
     21  CD2       35.7360   72.1200   62.1510 C.ar   49  TYR49      -0.0009
     22  CE1       36.2950   74.7770   61.6020 C.ar   49  TYR49       0.0417
     23  CE2       34.7360   72.9500   61.6440 C.ar   49  TYR49       0.0417
     24  CZ        35.0250   74.2780   61.3700 C.ar   49  TYR49       0.1957
     25  OH        34.0500   75.1080   60.8670 O.3    49  TYR49      -0.2866
     26  N         31.8340   67.6030   64.9840 N.3    65  SER65      -0.1217
     27  CA        33.0090   68.3680   64.5860 C.3    65  SER65       0.1889
     28  C         34.1200   68.1560   65.6070 C.2    65  SER65       0.2288
     29  O         33.8720   68.1890   66.8100 O.2    65  SER65      -0.2866
     30  CB        32.6760   69.8520   64.4470 C.3    65  SER65       0.2089
     31  OG        31.9400   70.0910   63.2620 O.3    65  SER65      -0.2183
     32  N         37.7320   69.5040   66.9500 N.3    67  LEU67      -0.1245
     33  CA        38.5600   70.7120   66.9650 C.3    67  LEU67       0.1561
     34  C         39.7550   70.5240   67.8930 C.2    67  LEU67       0.2260
     35  O         39.6050   69.9840   68.9850 O.2    67  LEU67      -0.2867
     36  CB        37.7430   71.9060   67.4780 C.3    67  LEU67       0.0270
     37  CG        36.5390   72.4590   66.6990 C.3    67  LEU67       0.0019
     38  CD1       36.9890   73.4040   65.5910 C.3    67  LEU67       0.0001
     39  CD2       35.6400   71.3620   66.1470 C.3    67  LEU67       0.0001
     40  N         41.9090   72.3480   70.3350 N.3    69  ARG69      -0.1245
     41  CA        41.8740   73.5810   71.1240 C.3    69  ARG69       0.1563
     42  C         42.4090   73.3530   72.5330 C.2    69  ARG69       0.2260
     43  O         41.9990   72.4120   73.2130 O.2    69  ARG69      -0.2867
     44  CB        40.4400   74.1100   71.2080 C.3    69  ARG69       0.0307
     45  CG        40.4880   75.6110   71.4940 C.3    69  ARG69       0.0489
     46  CD        39.0920   76.1840   71.5240 C.3    69  ARG69       0.2205
     47  NE        38.2380   75.6200   70.5080 N.pl3  69  ARG69      -0.0865
     48  CZ        38.0840   76.3130   69.4100 C.cat  69  ARG69       0.5346
     49  NH1       38.6940   77.4820   69.2800 N.pl3  69  ARG69       0.1354
     50  NH2       37.3040   75.8340   68.4690 N.pl3  69  ARG69       0.1354
     51  N         32.2490   69.0490   68.9870 N.3    76  TRP76      -0.1241
     52  CA        31.0070   69.8030   68.8490 C.3    76  TRP76       0.1605
     53  C         29.9820   68.9280   68.1380 C.2    76  TRP76       0.2264
     54  O         30.1460   68.6000   66.9610 O.2    76  TRP76      -0.2867
     55  CB        31.2560   71.1010   68.0750 C.3    76  TRP76       0.0550
     56  CG        30.0420   71.9700   67.9200 C.ar   76  TRP76       0.0003
     57  CD1       29.4790   72.3900   66.7510 C.ar   76  TRP76       0.0946
     58  CD2       29.2380   72.5180   68.9720 C.ar   76  TRP76       0.0152
     59  NE1       28.3790   73.1720   67.0070 N.ar   76  TRP76      -0.2442
     60  CE2       28.2060   73.2640   68.3630 C.ar   76  TRP76       0.0810
     61  CE3       29.2900   72.4520   70.3710 C.ar   76  TRP76       0.0012
     62  CZ2       27.2330   73.9410   69.1050 C.ar   76  TRP76       0.0191
     63  CZ3       28.3200   73.1220   71.1080 C.ar   76  TRP76       0.0001
     64  CH2       27.3070   73.8580   70.4730 C.ar   76  TRP76       0.0015
     65  N         26.0270   67.8780   66.9610 N.3    78  ARG78      -0.1245
     66  CA        24.7010   68.3560   66.6020 C.3    78  ARG78       0.1563
     67  C         24.0080   67.3930   65.6430 C.2    78  ARG78       0.2260
     68  O         24.6260   66.4560   65.1330 O.2    78  ARG78      -0.2867
     69  CB        24.7780   69.7650   66.0070 C.3    78  ARG78       0.0307
     70  CG        25.7010   69.9060   64.8060 C.3    78  ARG78       0.0489
     71  CD        26.4400   71.2340   64.8490 C.3    78  ARG78       0.2205
     72  NE        27.2200   71.4910   63.6390 N.pl3  78  ARG78      -0.0865
     73  CZ        28.3900   70.9240   63.3420 C.cat  78  ARG78       0.5346
     74  NH1       28.9530   70.0270   64.1560 N.pl3  78  ARG78       0.1354
     75  NH2       29.0040   71.2520   62.2100 N.pl3  78  ARG78       0.1354
     76  N         18.2690   72.1230   62.5280 N.3    91  LEU91      -0.1245
     77  CA        18.9760   71.6070   63.6950 C.3    91  LEU91       0.1561
     78  C         18.0220   70.8890   64.6460 C.2    91  LEU91       0.2260
     79  O         16.9770   71.4300   65.0070 O.2    91  LEU91      -0.2867
     80  CB        19.6830   72.7480   64.4290 C.3    91  LEU91       0.0270
     81  CG        20.7480   72.3490   65.4520 C.3    91  LEU91       0.0019
     82  CD1       21.9650   71.7680   64.7470 C.3    91  LEU91       0.0001
     83  CD2       21.1390   73.5490   66.3010 C.3    91  LEU91       0.0001
     84  N         20.1070   74.6530   72.9150 N.3    97  TYR97      -0.1241
     85  CA        21.0050   75.7790   72.6540 C.3    97  TYR97       0.1605
     86  C         20.3440   77.0920   73.0780 C.2    97  TYR97       0.2264
     87  O         19.4120   77.5520   72.4160 O.2    97  TYR97      -0.2867
     88  CB        21.3690   75.8320   71.1700 C.3    97  TYR97       0.0534
     89  CG        21.9450   74.5380   70.6540 C.ar   97  TYR97      -0.0201
     90  CD1       21.1210   73.5640   70.1020 C.ar   97  TYR97      -0.0009
     91  CD2       23.3100   74.2800   70.7270 C.ar   97  TYR97      -0.0009
     92  CE1       21.6380   72.3720   69.6320 C.ar   97  TYR97       0.0417
     93  CE2       23.8400   73.0870   70.2560 C.ar   97  TYR97       0.0417
     94  CZ        22.9990   72.1360   69.7100 C.ar   97  TYR97       0.1957
     95  OH        23.5200   70.9500   69.2420 O.3    97  TYR97      -0.2866
     96  N         19.0850   80.3100   70.6900 N.3   100  LEU100     -0.1245
     97  CA        18.9820   79.8880   69.2940 C.3   100  LEU100      0.1561
     98  C         17.5270   79.6580   68.8960 C.2   100  LEU100      0.2260
     99  O         16.8540   78.7840   69.4450 O.2   100  LEU100     -0.2867
    100  CB        19.7960   78.6110   69.0620 C.3   100  LEU100      0.0270
    101  CG        19.9830   78.1670   67.6090 C.3   100  LEU100      0.0019
    102  CD1       20.7530   79.2110   66.8160 C.3   100  LEU100      0.0001
    103  CD2       20.7000   76.8280   67.5560 C.3   100  LEU100      0.0001
    104  N         18.0780   77.7280   62.6780 N.3   103  TYR103     -0.1241
    105  CA        19.3040   77.1240   62.1650 C.3   103  TYR103      0.1605
    106  C         18.9920   76.3550   60.8840 C.2   103  TYR103      0.2264
    107  O         18.2580   75.3680   60.9100 O.2   103  TYR103     -0.2867
    108  CB        19.9370   76.1910   63.2010 C.3   103  TYR103      0.0534
    109  CG        21.3870   75.8680   62.9070 C.ar  103  TYR103     -0.0201
    110  CD1       21.7330   74.8610   62.0050 C.ar  103  TYR103     -0.0009
    111  CD2       22.4130   76.5790   63.5220 C.ar  103  TYR103     -0.0009
    112  CE1       23.0620   74.5700   61.7320 C.ar  103  TYR103      0.0417
    113  CE2       23.7420   76.2970   63.2550 C.ar  103  TYR103      0.0417
    114  CZ        24.0600   75.2920   62.3590 C.ar  103  TYR103      0.1957
    115  OH        25.3740   75.0130   62.0940 O.3   103  TYR103     -0.2866
    116  N         25.3110   77.7850   55.8920 N.3   120  PHE120     -0.1241
    117  CA        24.6020   77.7500   57.1660 C.3   120  PHE120      0.1605
    118  C         24.0360   79.1290   57.4840 C.2   120  PHE120      0.2264
    119  O         24.7090   80.1380   57.2850 O.2   120  PHE120     -0.2867
    120  CB        25.5380   77.3340   58.3000 C.3   120  PHE120      0.0534
    121  CG        26.2300   76.0180   58.0760 C.ar  120  PHE120     -0.0203
    122  CD1       25.7640   74.8610   58.6820 C.ar  120  PHE120     -0.0042
    123  CD2       27.3600   75.9400   57.2730 C.ar  120  PHE120     -0.0042
    124  CE1       26.4070   73.6480   58.4870 C.ar  120  PHE120     -0.0003
    125  CE2       28.0060   74.7310   57.0720 C.ar  120  PHE120     -0.0003
    126  CZ        27.5290   73.5830   57.6790 C.ar  120  PHE120     -0.0000
    127  N         21.9390   80.8760   60.8600 N.3   122  LYS122     -0.1245
    128  CA        21.3400   80.7230   62.1810 C.3   122  LYS122      0.1561
    129  C         20.9450   82.0670   62.7740 C.2   122  LYS122      0.2260
    130  O         21.6150   83.0780   62.5480 O.2   122  LYS122     -0.2867
    131  CB        22.2800   79.9690   63.1330 C.3   122  LYS122      0.0271
    132  CG        23.4740   80.7590   63.6550 C.3   122  LYS122      0.0035
    133  CD        24.2180   79.9660   64.7200 C.3   122  LYS122      0.0206
    134  CE        25.5310   80.6320   65.1080 C.3   122  LYS122      0.1093
    135  NZ        25.3310   81.8980   65.8580 N.3   122  LYS122     -0.1314
    136  N         20.5230   83.6510   66.3740 N.3   124  SER124     -0.1217
    137  CA        20.8910   83.4320   67.7680 C.3   124  SER124      0.1889
    138  C         20.8840   84.7640   68.5100 C.2   124  SER124      0.2288
    139  O         21.5660   85.7090   68.1010 O.2   124  SER124     -0.2866
    140  CB        22.2800   82.8000   67.8480 C.3   124  SER124      0.2089
    141  OG        22.7590   82.7910   69.1810 O.3   124  SER124     -0.2183
    142  N         23.3000   85.1860   61.8290 N.3   129  TYR129     -0.1227
    143  CA        24.6370   84.7870   61.3980 C.3   129  TYR129      0.1736
    144  C         24.5520   83.8470   60.2080 C.2   129  TYR129      0.2595
    145  O         23.5850   83.1000   60.0610 O.2   129  TYR129     -0.2718
    146  CB        25.3760   84.0740   62.5270 C.3   129  TYR129      0.0548
    147  CG        25.5610   84.9000   63.7770 C.ar  129  TYR129     -0.0200
    148  CD1       24.6580   84.8130   64.8320 C.ar  129  TYR129     -0.0009
    149  CD2       26.6440   85.7610   63.9100 C.ar  129  TYR129     -0.0009
    150  CE1       24.8280   85.5660   65.9870 C.ar  129  TYR129      0.0417
    151  CE2       26.8230   86.5180   65.0600 C.ar  129  TYR129      0.0417
    152  CZ        25.9120   86.4150   66.0930 C.ar  129  TYR129      0.1957
    153  OH        26.0850   87.1650   67.2340 O.3   129  TYR129     -0.2866
    154  N         25.5690   83.8870   59.3550 N.am  130  PHE130     -0.1962
    155  CA        25.6970   82.8940   58.3010 C.3   130  PHE130      0.1771
    156  C         27.1570   82.5330   58.0730 C.2   130  PHE130      0.2619
    157  O         28.0560   83.3310   58.3430 O.2   130  PHE130     -0.2715
    158  CB        25.0140   83.3590   57.0020 C.3   130  PHE130      0.0574
    159  CG        25.7570   84.4370   56.2560 C.ar  130  PHE130     -0.0200
    160  CD1       25.6760   85.7630   56.6580 C.ar  130  PHE130     -0.0042
    161  CD2       26.5080   84.1280   55.1280 C.ar  130  PHE130     -0.0042
    162  CE1       26.3490   86.7630   55.9610 C.ar  130  PHE130     -0.0003
    163  CE2       27.1850   85.1200   54.4260 C.ar  130  PHE130     -0.0003
    164  CZ        27.1070   86.4380   54.8440 C.ar  130  PHE130     -0.0000
    165  N         27.3840   81.3090   57.6100 N.am  131  LYS131     -0.1977
    166  CA        28.7160   80.8860   57.2130 C.3   131  LYS131      0.1596
    167  C         28.6580   79.9550   56.0120 C.2   131  LYS131      0.2287
    168  O         27.6420   79.3010   55.7630 O.2   131  LYS131     -0.2864
    169  CB        29.4620   80.2250   58.3830 C.3   131  LYS131      0.0298
    170  CG        28.9120   78.8860   58.8360 C.3   131  LYS131      0.0038
    171  CD        29.8260   78.2260   59.8650 C.3   131  LYS131      0.0206
    172  CE        29.3840   76.7960   60.1500 C.3   131  LYS131      0.1093
    173  NZ        30.1220   76.1800   61.2840 N.3   131  LYS131     -0.1314
@<TRIPOS>BOND
     1   163   164   ar
     2   163   161   ar
     3   164   162   ar
     4   161   159   ar
     5   168   167    2
     6   116   117    1
     7   162   160   ar
     8   167   166    1
     9   159   160   ar
    10   159   158    1
    11   158   155    1
    12   125   123   ar
    13   125   126   ar
    14   117   118    1
    15   117   120    1
    16   166   165    1
    17   166   169    1
    18   123   121   ar
    19   119   118    2
    20   165   156   am
    21   126   124   ar
    22   156   155    1
    23   156   157    2
    24   121   120    1
    25   121   122   ar
    26   155   154    1
    27   169   170    1
    28   124   122   ar
    29   170   171    1
    30   154   144   am
    31    12    10    1
    32     9     8    2
    33    10    11    1
    34    10     7    1
    35    17    16    2
    36   171   172    1
    37    11    13    1
    38   145   144    2
    39   172   173    1
    40   144   143    1
    41     8     7    1
    42     7     6    1
    43   127   128    1
    44    25    24    1
    45   106   107    2
    46   106   105    1
    47    16    15    1
    48     1     2    1
    49     6     3   am
    50    14    15    1
    51    24    22   ar
    52    24    23   ar
    53   143   142    1
    54   143   146    1
    55    22    20   ar
    56    23    21   ar
    57   112   110   ar
    58   112   114   ar
    59    15    18    1
    60   110   109   ar
    61   115   114    1
    62    20    19   ar
    63    21    19   ar
    64   105   104    1
    65   105   108    1
    66   128   129    1
    67   128   131    1
    68    75    73    1
    69     3     2    1
    70     3     4    2
    71     2     5    1
    72   114   113   ar
    73    19    18    1
    74   146   147    1
    75    76    77    1
    76   130   129    2
    77   109   108    1
    78   109   111   ar
    79   131   132    1
    80   113   111   ar
    81    31    30    1
    82    73    72    2
    83    73    74    1
    84    72    71    1
    85   132   133    1
    86    77    80    1
    87    77    78    1
    88   147   149   ar
    89   147   148   ar
    90   149   151   ar
    91    80    81    1
    92    30    27    1
    93    27    26    1
    94    27    28    1
    95    78    79    2
    96   133   134    1
    97    82    81    1
    98    70    71    1
    99    70    69    1
   100   148   150   ar
   101   151   152   ar
   102   134   135    1
   103    68    67    2
   104    81    83    1
   105    38    37    1
   106    28    29    2
   107    67    66    1
   108   150   152   ar
   109    69    66    1
   110   152   153    1
   111    39    37    1
   112   136   137    1
   113    66    65    1
   114    37    36    1
   115    57    59   ar
   116    57    56   ar
   117   102   101    1
   118    32    33    1
   119    54    53    2
   120    33    36    1
   121    33    34    1
   122    59    60   ar
   123   103   101    1
   124   101   100    1
   125   137   140    1
   126   137   138    1
   127   140   141    1
   128    34    35    2
   129    56    55    1
   130    56    58   ar
   131    55    52    1
   132   139   138    2
   133    53    52    1
   134    60    58   ar
   135    60    62   ar
   136    50    48    1
   137    52    51    1
   138    98    97    1
   139    98    99    2
   140    58    61   ar
   141   100    97    1
   142    62    64   ar
   143    95    94    1
   144    49    48    1
   145    97    96    1
   146    48    47    2
   147    92    94   ar
   148    92    90   ar
   149    94    93   ar
   150    90    89   ar
   151    93    91   ar
   152    40    41    1
   153    61    63   ar
   154    64    63   ar
   155    47    46    1
   156    89    91   ar
   157    89    88    1
   158    41    44    1
   159    41    42    1
   160    88    85    1
   161    44    45    1
   162    45    46    1
   163    87    86    2
   164    42    43    2
   165    85    84    1
   166    85    86    1
