@<TRIPOS>MOLECULE
tmp/3hwkE00.pdb
 114 110 0 0 0
SMALL
GASTEIGER

@<TRIPOS>ATOM
      1  N        -91.3400  -30.7510   -2.6750 N.3   178  TYR178     -0.1241
      2  CA       -91.1130  -29.5200   -3.4190 C.3   178  TYR178      0.1605
      3  C        -89.7930  -29.5200   -4.2230 C.2   178  TYR178      0.2264
      4  O        -89.6080  -28.6710   -5.0930 O.2   178  TYR178     -0.2867
      5  CB       -91.1180  -28.3200   -2.4630 C.3   178  TYR178      0.0534
      6  CG       -92.4130  -27.5330   -2.3060 C.ar  178  TYR178     -0.0201
      7  CD1      -93.3660  -27.4610   -3.3310 C.ar  178  TYR178     -0.0009
      8  CD2      -92.6280  -26.7720   -1.1600 C.ar  178  TYR178     -0.0009
      9  CE1      -94.5290  -26.6820   -3.1830 C.ar  178  TYR178      0.0417
     10  CE2      -93.7730  -25.9950   -1.0010 C.ar  178  TYR178      0.0417
     11  CZ       -94.7260  -25.9570   -2.0060 C.ar  178  TYR178      0.1957
     12  OH       -95.8670  -25.1860   -1.8160 O.3   178  TYR178     -0.2866
     13  N        -89.2740  -30.6270  -10.1220 N.3   181  HIS181     -0.1241
     14  CA       -90.4680  -30.8000  -10.9330 C.3   181  HIS181      0.1621
     15  C        -90.3410  -30.3940  -12.4000 C.2   181  HIS181      0.2264
     16  O        -91.2050  -29.7010  -12.9310 O.2   181  HIS181     -0.2867
     17  CB       -91.6860  -30.1400  -10.2670 C.3   181  HIS181      0.0745
     18  CG       -92.9680  -30.8420  -10.5690 C.ar  181  HIS181      0.0817
     19  ND1      -94.0700  -30.1940  -11.0850 N.ar  181  HIS181     -0.2268
     20  CD2      -93.3130  -32.1510  -10.4670 C.ar  181  HIS181      0.1154
     21  CE1      -95.0430  -31.0730  -11.2720 C.ar  181  HIS181      0.1986
     22  NE2      -94.6050  -32.2670  -10.9190 N.ar  181  HIS181     -0.2212
     23  N        -90.7900  -26.5490  -15.0490 N.3   184  ASN184     -0.1225
     24  CA       -91.6810  -25.5370  -14.5280 C.3   184  ASN184      0.1785
     25  C        -91.0880  -24.1330  -14.7970 C.2   184  ASN184      0.2597
     26  O        -89.9370  -24.0250  -15.2310 O.2   184  ASN184     -0.2718
     27  CB       -91.9150  -25.7630  -13.0430 C.3   184  ASN184      0.1169
     28  CG       -90.6280  -25.7810  -12.2440 C.2   184  ASN184      0.2627
     29  OD1      -90.1070  -24.7310  -11.8300 O.2   184  ASN184     -0.2716
     30  ND2      -90.1080  -26.9720  -12.0160 N.am  184  ASN184     -0.0877
     31  N        -91.8620  -23.0750  -14.5550 N.am  185  ALA185     -0.1979
     32  CA       -91.4810  -21.7450  -15.0330 C.3   185  ALA185      0.1597
     33  C        -90.1820  -21.2410  -14.4050 C.2   185  ALA185      0.2287
     34  O        -89.3640  -20.6470  -15.0970 O.2   185  ALA185     -0.2864
     35  CB       -92.6070  -20.7430  -14.8430 C.3   185  ALA185      0.0319
     36  N        -97.2960  -19.3200   -9.7670 N.3   216  HIS216     -0.1241
     37  CA       -96.2610  -20.3320   -9.5530 C.3   216  HIS216      0.1621
     38  C        -96.1670  -20.5550   -8.0250 C.2   216  HIS216      0.2264
     39  O        -97.1780  -20.9170   -7.4080 O.2   216  HIS216     -0.2867
     40  CB       -94.9390  -19.8790  -10.2200 C.3   216  HIS216      0.0745
     41  CG       -93.9090  -20.9570  -10.3660 C.ar  216  HIS216      0.0817
     42  ND1      -94.1510  -22.2800  -10.0550 N.ar  216  HIS216     -0.2268
     43  CD2      -92.6340  -20.9090  -10.8230 C.ar  216  HIS216      0.1154
     44  CE1      -93.0630  -22.9920  -10.2950 C.ar  216  HIS216      0.1986
     45  NE2      -92.1300  -22.1840  -10.7630 N.ar  216  HIS216     -0.2212
     46  N       -102.9980  -26.8500  -13.2240 N.3   255  HIS255     -0.1226
     47  CA      -101.6600  -27.2920  -13.5790 C.3   255  HIS255      0.1752
     48  C       -101.5110  -27.5090  -15.0700 C.2   255  HIS255      0.2596
     49  O       -102.3740  -28.1110  -15.7050 O.2   255  HIS255     -0.2718
     50  CB      -101.2700  -28.5580  -12.8120 C.3   255  HIS255      0.0759
     51  CG       -99.7920  -28.6860  -12.5990 C.ar  255  HIS255      0.0818
     52  ND1      -98.9580  -29.3040  -13.5080 N.ar  255  HIS255     -0.2268
     53  CD2      -98.9950  -28.2440  -11.5970 C.ar  255  HIS255      0.1154
     54  CE1      -97.7140  -29.2520  -13.0690 C.ar  255  HIS255      0.1986
     55  NE2      -97.7100  -28.6170  -11.9100 N.ar  255  HIS255     -0.2212
     56  N       -100.4030  -27.0130  -15.6140 N.am  256  ARG256     -0.1966
     57  CA      -100.0660  -27.1830  -17.0310 C.3   256  ARG256      0.1729
     58  C        -99.8200  -28.6580  -17.4270 C.2   256  ARG256      0.2616
     59  O       -100.0880  -29.0420  -18.5690 O.2   256  ARG256     -0.2715
     60  CB       -98.8580  -26.2850  -17.3840 C.3   256  ARG256      0.0348
     61  CG       -98.2510  -26.4390  -18.7940 C.3   256  ARG256      0.0492
     62  CD       -99.1540  -25.9130  -19.9130 C.3   256  ARG256      0.2205
     63  NE       -99.5830  -24.5220  -19.7230 N.pl3 256  ARG256     -0.0865
     64  CZ       -98.8850  -23.4420  -20.0850 C.cat 256  ARG256      0.5346
     65  NH1      -97.6880  -23.5650  -20.6600 N.pl3 256  ARG256      0.1354
     66  NH2      -99.3900  -22.2290  -19.8650 N.pl3 256  ARG256      0.1354
     67  N        -99.3300  -29.4740  -16.4910 N.am  257  VAL257     -0.1977
     68  CA       -98.9930  -30.8780  -16.7800 C.3   257  VAL257      0.1596
     69  C       -100.0540  -31.8750  -16.2980 C.2   257  VAL257      0.2287
     70  O       -100.5420  -32.6880  -17.0720 O.2   257  VAL257     -0.2864
     71  CB       -97.6110  -31.2740  -16.1810 C.3   257  VAL257      0.0276
     72  CG1      -97.4000  -32.8210  -16.2150 C.3   257  VAL257      0.0022
     73  CG2      -96.4800  -30.5400  -16.9000 C.3   257  VAL257      0.0022
     74  N        -97.9870  -35.5590   -6.1980 N.3   264  ARG264     -0.1245
     75  CA       -97.3110  -35.2660   -4.9390 C.3   264  ARG264      0.1563
     76  C        -98.3400  -34.9680   -3.8610 C.2   264  ARG264      0.2260
     77  O        -98.0040  -34.9230   -2.6730 O.2   264  ARG264     -0.2867
     78  CB       -96.3320  -34.0860   -5.0880 C.3   264  ARG264      0.0307
     79  CG       -95.3010  -34.2400   -6.2130 C.3   264  ARG264      0.0489
     80  CD       -94.7590  -32.8840   -6.6550 C.3   264  ARG264      0.2205
     81  NE       -95.7960  -32.0290   -7.2320 N.pl3 264  ARG264     -0.0865
     82  CZ       -95.6320  -30.7400   -7.5280 C.cat 264  ARG264      0.5346
     83  NH1      -94.4590  -30.1440   -7.3150 N.pl3 264  ARG264      0.1354
     84  NH2      -96.6380  -30.0370   -8.0360 N.pl3 264  ARG264      0.1354
     85  N        -99.4970  -27.0940   -3.9060 N.3   306  ASP306     -0.1239
     86  CA       -99.5910  -25.8890   -3.0860 C.3   306  ASP306      0.1674
     87  C       -100.8130  -25.8880   -2.1530 C.2   306  ASP306      0.2266
     88  O       -100.8090  -25.2060   -1.1220 O.2   306  ASP306     -0.2867
     89  CB       -99.5510  -24.6330   -3.9560 C.3   306  ASP306      0.1410
     90  CG       -98.1950  -24.4320   -4.6460 C.2   306  ASP306      0.3668
     91  OD1      -97.1480  -24.4100   -3.9420 O.co2 306  ASP306     -0.2456
     92  OD2      -98.1810  -24.2720   -5.8940 O.co2 306  ASP306     -0.2456
     93  N        -90.4610  -22.6920    0.1270 N.3   327  PHE327     -0.1241
     94  CA       -90.4650  -23.3960   -1.1660 C.3   327  PHE327      0.1605
     95  C        -89.1010  -23.1920   -1.8740 C.2   327  PHE327      0.2264
     96  O        -88.5670  -24.1320   -2.4690 O.2   327  PHE327     -0.2867
     97  CB       -91.6480  -22.8710   -2.0160 C.3   327  PHE327      0.0534
     98  CG       -91.9280  -23.6440   -3.3080 C.ar  327  PHE327     -0.0203
     99  CD1      -91.0680  -24.6260   -3.7930 C.ar  327  PHE327     -0.0042
    100  CD2      -93.0610  -23.3270   -4.0640 C.ar  327  PHE327     -0.0042
    101  CE1      -91.3530  -25.3050   -5.0040 C.ar  327  PHE327     -0.0003
    102  CE2      -93.3550  -23.9890   -5.2750 C.ar  327  PHE327     -0.0003
    103  CZ       -92.5010  -24.9720   -5.7430 C.ar  327  PHE327     -0.0000
    104  N        -86.6390  -26.0980   -3.5590 N.3   331  ARG331     -0.1245
    105  CA       -86.5170  -26.1630   -5.0120 C.3   331  ARG331      0.1563
    106  C        -85.1150  -25.8070   -5.5190 C.2   331  ARG331      0.2260
    107  O        -84.7800  -26.1070   -6.6560 O.2   331  ARG331     -0.2867
    108  CB       -87.5970  -25.2880   -5.6780 C.3   331  ARG331      0.0307
    109  CG       -87.6530  -25.3590   -7.2130 C.3   331  ARG331      0.0489
    110  CD       -87.7840  -26.7880   -7.7630 C.3   331  ARG331      0.2205
    111  NE       -89.0570  -27.3700   -7.3530 N.pl3 331  ARG331     -0.0865
    112  CZ       -90.2360  -27.0890   -7.9180 C.cat 331  ARG331      0.5346
    113  NH1      -90.3150  -26.2350   -8.9440 N.pl3 331  ARG331      0.1354
    114  NH2      -91.3350  -27.6590   -7.4420 N.pl3 331  ARG331      0.1354
@<TRIPOS>BOND
     1    65    64    1
     2    64    66    1
     3    64    63    2
     4    62    63    1
     5    62    61    1
     6    61    60    1
     7    59    58    2
     8    58    57    1
     9    58    67   am
    10    60    57    1
    11    70    69    2
    12    57    56    1
    13    73    71    1
    14    68    67    1
    15    68    69    1
    16    68    71    1
    17    72    71    1
    18    49    48    2
    19    56    48   am
    20    26    25    2
    21    34    33    2
    22    48    47    1
    23    23    24    1
    24    32    35    1
    25    32    31    1
    26    32    33    1
    27    25    31   am
    28    25    24    1
    29    24    27    1
    30    47    46    1
    31    47    50    1
    32    52    54   ar
    33    52    51   ar
    34    54    55   ar
    35    27    28    1
    36    16    15    2
    37    50    51    1
    38    51    53   ar
    39    15    14    1
    40    28    30   am
    41    28    29    2
    42    55    53   ar
    43    21    19   ar
    44    21    22   ar
    45    19    18   ar
    46    14    17    1
    47    14    13    1
    48    22    20   ar
    49    43    45   ar
    50    43    41   ar
    51    45    44   ar
    52    18    20   ar
    53    18    17    1
    54    41    40    1
    55    41    42   ar
    56    44    42   ar
    57    40    37    1
    58    36    37    1
    59    37    38    1
    60   113   112    1
    61    84    82    1
    62    38    39    2
    63   112   114    1
    64   112   111    2
    65   110   111    1
    66   110   109    1
    67    82    83    1
    68    82    81    2
    69    81    80    1
    70   109   108    1
    71   107   106    2
    72    80    79    1
    73    79    78    1
    74    74    75    1
    75    92    90   ar
    76   103   102   ar
    77   103   101   ar
    78   108   105    1
    79   106   105    1
    80   102   100   ar
    81     4     3    2
    82    78    75    1
    83   105   104    1
    84   101    99   ar
    85    75    76    1
    86    90    89    1
    87    90    91   ar
    88     3     2    1
    89   100    98   ar
    90    89    86    1
    91    85    86    1
    92    76    77    2
    93    99    98   ar
    94     2     1    1
    95     2     5    1
    96     7     9   ar
    97     7     6   ar
    98    98    97    1
    99     9    11   ar
   100    86    87    1
   101    96    95    2
   102     5     6    1
   103     6     8   ar
   104    87    88    2
   105    97    94    1
   106    11    12    1
   107    11    10   ar
   108    95    94    1
   109    94    93    1
   110     8    10   ar
