@<TRIPOS>MOLECULE
tmp/3hwnC00.pdb
 157 151 0 0 0
SMALL
GASTEIGER

@<TRIPOS>ATOM
      1  N         52.2880  -30.6600  -31.2380 N.3    19  GLN19      -0.1245
      2  CA        51.8380  -32.0300  -31.3810 C.3    19  GLN19       0.1566
      3  C         50.3090  -32.1670  -31.2520 C.2    19  GLN19       0.2260
      4  O         49.7650  -33.2260  -31.5810 O.2    19  GLN19      -0.2867
      5  CB        52.5250  -32.9040  -30.3370 C.3    19  GLN19       0.0367
      6  CG        52.1110  -32.6170  -28.8830 C.3    19  GLN19       0.0905
      7  CD        52.7740  -33.5640  -27.8960 C.2    19  GLN19       0.2608
      8  OE1       53.4240  -33.1340  -26.9400 O.2    19  GLN19      -0.2717
      9  NE2       52.6240  -34.8630  -28.1330 N.am   19  GLN19      -0.0878
     10  N         49.2790  -38.1870  -28.9000 N.3    23  GLY23      -0.1225
     11  CA        50.4370  -38.6370  -28.1190 C.3    23  GLY23       0.1811
     12  C         51.6490  -38.9280  -28.9870 C.2    23  GLY23       0.2280
     13  O         52.2190  -40.0220  -28.9180 O.2    23  GLY23      -0.2866
     14  N         54.5750  -37.0720  -29.2450 N.3    25  CYS25      -0.1221
     15  CA        55.8340  -36.4460  -28.7580 C.3    25  CYS25       0.1808
     16  C         57.1020  -37.1590  -29.2110 C.2    25  CYS25       0.2601
     17  O         58.0690  -36.5110  -29.6280 O.2    25  CYS25      -0.2717
     18  CB        55.8580  -36.3700  -27.2280 C.3    25  CYS25       0.0970
     19  SG        55.8960  -37.9750  -26.4080 S.3    25  CYS25      -0.0800
     20  N         57.0950  -38.4910  -29.1260 N.am   26  TRP26      -0.1976
     21  CA        58.1940  -39.3160  -29.6440 C.3    26  TRP26       0.1640
     22  C         58.5450  -39.0630  -31.1220 C.2    26  TRP26       0.2290
     23  O         59.6740  -39.3310  -31.5220 O.2    26  TRP26      -0.2864
     24  CB        57.8950  -40.8150  -29.4410 C.3    26  TRP26       0.0576
     25  CG        56.6420  -41.2770  -30.1430 C.ar   26  TRP26       0.0006
     26  CD1       55.4120  -41.4240  -29.5940 C.ar   26  TRP26       0.0946
     27  CD2       56.5050  -41.5830  -31.5350 C.ar   26  TRP26       0.0152
     28  NE1       54.5090  -41.8210  -30.5530 N.ar   26  TRP26      -0.2442
     29  CE2       55.1540  -41.9240  -31.7560 C.ar   26  TRP26       0.0810
     30  CE3       57.3910  -41.6060  -32.6160 C.ar   26  TRP26       0.0012
     31  CZ2       54.6720  -42.2960  -33.0030 C.ar   26  TRP26       0.0191
     32  CZ3       56.9000  -41.9790  -33.8690 C.ar   26  TRP26       0.0001
     33  CH2       55.5570  -42.3200  -34.0440 C.ar   26  TRP26       0.0015
     34  N         57.2320  -50.9930  -34.0320 N.3    61  GLY61      -0.1225
     35  CA        56.7270  -51.0690  -32.6620 C.3    61  GLY61       0.1811
     36  C         56.0960  -49.7740  -32.1710 C.2    61  GLY61       0.2280
     37  O         55.6830  -49.6970  -31.0210 O.2    61  GLY61      -0.2866
     38  N         53.2420  -46.7940  -31.8280 N.3    63  GLU63      -0.1245
     39  CA        51.7900  -46.8430  -31.7390 C.3    63  GLU63       0.1567
     40  C         51.1900  -45.4630  -31.9130 C.2    63  GLU63       0.2260
     41  O         50.4500  -44.9830  -31.0520 O.2    63  GLU63      -0.2867
     42  CB        51.3640  -47.4470  -30.4050 C.3    63  GLU63       0.0388
     43  CG        52.0670  -48.7600  -30.0620 C.3    63  GLU63       0.1160
     44  CD        51.6170  -49.3270  -28.7310 C.2    63  GLU63       0.3649
     45  OE1       51.0100  -48.5750  -27.9420 O.co2  63  GLU63      -0.2457
     46  OE2       51.8620  -50.5220  -28.4790 O.co2  63  GLU63      -0.2457
     47  N         49.1090  -43.0420  -29.4140 N.3    66  ASN66      -0.1225
     48  CA        49.0040  -43.5990  -28.0790 C.3    66  ASN66       0.1785
     49  C         50.3540  -43.8700  -27.4310 C.2    66  ASN66       0.2598
     50  O         50.4220  -44.1560  -26.2520 O.2    66  ASN66      -0.2718
     51  CB        48.1540  -44.8730  -28.1230 C.3    66  ASN66       0.1169
     52  CG        46.7200  -44.6070  -28.5910 C.2    66  ASN66       0.2627
     53  OD1       46.2090  -45.2990  -29.4700 O.2    66  ASN66      -0.2716
     54  ND2       46.0760  -43.5880  -28.0130 N.am   66  ASN66      -0.0877
     55  N         51.4310  -43.7610  -28.1960 N.am   67  GLY67      -0.1942
     56  CA        52.7720  -43.9860  -27.6590 C.3    67  GLY67       0.2014
     57  C         53.7640  -44.2810  -28.7570 C.2    67  GLY67       0.2639
     58  O         53.3840  -44.4640  -29.9180 O.2    67  GLY67      -0.2714
     59  N         55.0440  -44.3030  -28.3980 N.am   68  GLY68      -0.1939
     60  CA        56.0930  -44.7030  -29.3420 C.3    68  GLY68       0.2014
     61  C         57.4790  -44.3440  -28.8560 C.2    68  GLY68       0.2639
     62  O         57.6300  -43.4700  -27.9850 O.2    68  GLY68      -0.2714
     63  N         58.4890  -45.0160  -29.4150 N.am   69  LEU69      -0.1963
     64  CA        59.8830  -44.7480  -29.0450 C.3    69  LEU69       0.1728
     65  C         60.6380  -44.0810  -30.1910 C.2    69  LEU69       0.2616
     66  O         60.4760  -44.4610  -31.3460 O.2    69  LEU69      -0.2715
     67  CB        60.5910  -46.0380  -28.6280 C.3    69  LEU69       0.0311
     68  CG        59.8310  -46.9620  -27.6750 C.3    69  LEU69       0.0022
     69  CD1       60.6940  -48.1550  -27.3380 C.3    69  LEU69       0.0001
     70  CD2       59.4210  -46.2500  -26.4120 C.3    69  LEU69       0.0001
     71  N         61.4720  -43.0940  -29.8690 N.am   70  MET70      -0.1963
     72  CA        62.1950  -42.3470  -30.9010 C.3    70  MET70       0.1736
     73  C         63.0800  -43.2840  -31.7170 C.2    70  MET70       0.2616
     74  O         63.0840  -43.2170  -32.9470 O.2    70  MET70      -0.2715
     75  CB        63.0330  -41.2250  -30.2830 C.3    70  MET70       0.0427
     76  CG        62.2080  -40.0850  -29.7460 C.3    70  MET70       0.0599
     77  SD        61.5810  -40.3280  -28.0730 S.3    70  MET70      -0.1393
     78  CE        62.8840  -39.5680  -27.1000 C.3    70  MET70       0.0692
     79  N         63.8020  -44.1590  -31.0040 N.am   71  ASP71      -0.1957
     80  CA        64.6230  -45.2180  -31.6000 C.3    71  ASP71       0.1840
     81  C         63.8910  -46.0290  -32.6360 C.2    71  ASP71       0.2622
     82  O         64.4080  -46.2520  -33.7350 O.2    71  ASP71      -0.2715
     83  CB        65.1310  -46.1620  -30.5150 C.3    71  ASP71       0.1450
     84  CG        66.2140  -45.5470  -29.7100 C.2    71  ASP71       0.3671
     85  OD1       66.5620  -44.3970  -30.0390 O.co2  71  ASP71      -0.2456
     86  OD2       66.7100  -46.1930  -28.7620 O.co2  71  ASP71      -0.2456
     87  N         62.6970  -46.4910  -32.2790 N.am   72  TYR72      -0.1974
     88  CA        61.8270  -47.1550  -33.2610 C.3    72  TYR72       0.1639
     89  C         61.5900  -46.2610  -34.4790 C.2    72  TYR72       0.2290
     90  O         61.5670  -46.7610  -35.5970 O.2    72  TYR72      -0.2864
     91  CB        60.4910  -47.5840  -32.6350 C.3    72  TYR72       0.0560
     92  CG        60.5750  -48.7060  -31.6200 C.ar   72  TYR72      -0.0198
     93  CD1       61.7560  -49.4070  -31.4030 C.ar   72  TYR72      -0.0009
     94  CD2       59.4530  -49.0900  -30.9020 C.ar   72  TYR72      -0.0009
     95  CE1       61.8200  -50.4400  -30.4780 C.ar   72  TYR72       0.0417
     96  CE2       59.5040  -50.1190  -29.9710 C.ar   72  TYR72       0.0417
     97  CZ        60.6920  -50.7950  -29.7710 C.ar   72  TYR72       0.1957
     98  OH        60.7630  -51.8270  -28.8660 O.3    72  TYR72      -0.2866
     99  N         72.5910  -45.4670  -28.6350 N.3   114  ASP114     -0.1239
    100  CA        71.9560  -45.2240  -27.3240 C.3   114  ASP114      0.1674
    101  C         72.9930  -44.6930  -26.3250 C.2   114  ASP114      0.2266
    102  O         73.9890  -45.3500  -26.0560 O.2   114  ASP114     -0.2867
    103  CB        71.2810  -46.4950  -26.7900 C.3   114  ASP114      0.1410
    104  CG        69.8730  -46.7400  -27.3800 C.2   114  ASP114      0.3668
    105  OD1       69.2820  -45.8370  -28.0270 O.co2 114  ASP114     -0.2456
    106  OD2       69.3430  -47.8560  -27.1670 O.co2 114  ASP114     -0.2456
    107  N         64.0770  -38.5720  -23.0620 N.3   135  ALA135     -0.1245
    108  CA        62.8100  -38.7710  -22.3760 C.3   135  ALA135      0.1562
    109  C         62.8920  -38.1490  -20.9890 C.2   135  ALA135      0.2260
    110  O         63.9790  -38.0820  -20.3920 O.2   135  ALA135     -0.2867
    111  CB        62.4760  -40.2540  -22.2800 C.3   135  ALA135      0.0290
    112  N         59.9470  -42.5080  -17.6320 N.3   161  MET161     -0.1230
    113  CA        59.8000  -41.2810  -18.3890 C.3   161  MET161      0.1702
    114  C         58.6800  -41.4650  -19.4040 C.2   161  MET161      0.2592
    115  O         58.5530  -42.5230  -20.0330 O.2   161  MET161     -0.2718
    116  CB        61.1080  -40.9190  -19.1000 C.3   161  MET161      0.0401
    117  CG        62.2140  -40.4280  -18.1630 C.3   161  MET161      0.0596
    118  SD        62.9750  -41.7100  -17.1330 S.3   161  MET161     -0.1393
    119  CE        63.6130  -42.7760  -18.4210 C.3   161  MET161      0.0692
    120  N         57.8770  -40.4200  -19.5630 N.am  162  ASP162     -0.1960
    121  CA        56.6410  -40.4940  -20.3300 C.3   162  ASP162      0.1840
    122  C         56.5710  -39.4870  -21.4810 C.2   162  ASP162      0.2622
    123  O         55.6230  -39.5150  -22.2650 O.2   162  ASP162     -0.2715
    124  CB        55.4590  -40.2560  -19.3850 C.3   162  ASP162      0.1450
    125  CG        55.5030  -38.8790  -18.7290 C.2   162  ASP162      0.3671
    126  OD1       56.6150  -38.4190  -18.3820 O.co2 162  ASP162     -0.2456
    127  OD2       54.4350  -38.2520  -18.5760 O.co2 162  ASP162     -0.2456
    128  N         57.5450  -38.5930  -21.5830 N.am  163  HIS163     -0.1959
    129  CA        57.4830  -37.5240  -22.5770 C.3   163  HIS163      0.1787
    130  C         58.8400  -37.2760  -23.2570 C.2   163  HIS163      0.2620
    131  O         59.8070  -36.9100  -22.6080 O.2   163  HIS163     -0.2715
    132  CB        56.9580  -36.2500  -21.9200 C.3   163  HIS163      0.0785
    133  CG        56.8000  -35.1070  -22.8660 C.ar  163  HIS163      0.0821
    134  ND1       56.5100  -35.2820  -24.2000 N.ar  163  HIS163     -0.2267
    135  CD2       56.8850  -33.7710  -22.6700 C.ar  163  HIS163      0.1154
    136  CE1       56.4290  -34.1020  -24.7890 C.ar  163  HIS163      0.1986
    137  NE2       56.6630  -33.1680  -23.8840 N.ar  163  HIS163     -0.2212
    138  N         58.8830  -37.4820  -24.5700 N.am  164  GLY164     -0.1954
    139  CA        60.0980  -37.3240  -25.3590 C.3   164  GLY164      0.1869
    140  C         60.2780  -35.9560  -25.9900 C.2   164  GLY164      0.2309
    141  O         59.3390  -35.3520  -26.5510 O.2   164  GLY164     -0.2863
    142  N         67.4570  -42.3320  -20.9760 N.3   214  ALA214     -0.1231
    143  CA        67.0080  -42.8690  -22.2560 C.3   214  ALA214      0.1694
    144  C         67.3310  -41.8980  -23.3910 C.2   214  ALA214      0.2592
    145  O         66.4500  -41.5130  -24.1560 O.2   214  ALA214     -0.2718
    146  CB        65.5040  -43.1350  -22.1900 C.3   214  ALA214      0.0304
    147  N         68.6030  -41.5230  -23.5010 N.am  215  ALA215     -0.1966
    148  CA        69.0540  -40.5900  -24.5260 C.3   215  ALA215      0.1728
    149  C         69.5910  -41.3330  -25.7550 C.2   215  ALA215      0.2616
    150  O         70.2350  -42.3860  -25.6280 O.2   215  ALA215     -0.2715
    151  CB        70.1050  -39.6560  -23.9670 C.3   215  ALA215      0.0334
    152  N         69.3300  -40.7550  -26.9320 N.am  216  SER216     -0.1950
    153  CA        69.6760  -41.3540  -28.2150 C.3   216  SER216      0.1924
    154  C         69.6600  -40.3270  -29.3780 C.2   216  SER216      0.2314
    155  O         69.0970  -39.2290  -29.2630 O.2   216  SER216     -0.2863
    156  CB        68.6920  -42.4820  -28.5220 C.3   216  SER216      0.2116
    157  OG        67.3620  -41.9920  -28.5450 O.3   216  SER216     -0.2180
@<TRIPOS>BOND
     1    90    89    2
     2    89    88    1
     3    33    32   ar
     4    33    31   ar
     5    34    35    1
     6    32    30   ar
     7    82    81    2
     8    88    91    1
     9    88    87    1
    10    31    29   ar
    11    74    73    2
    12    35    36    1
    13    81    87   am
    14    81    80    1
    15    91    92    1
    16    30    27   ar
    17    36    37    2
    18    40    39    1
    19    40    41    2
    20    38    39    1
    21    29    27   ar
    22    29    28   ar
    23    39    42    1
    24    73    79   am
    25    73    72    1
    26    92    93   ar
    27    92    94   ar
    28    80    79    1
    29    80    83    1
    30     4     3    2
    31    27    25   ar
    32    23    22    2
    33    93    95   ar
    34     2     3    1
    35     2     1    1
    36     2     5    1
    37    66    65    2
    38    22    21    1
    39    94    96   ar
    40    72    75    1
    41    72    71    1
    42    28    26   ar
    43    83    84    1
    44    95    97   ar
    45    42    43    1
    46     5     6    1
    47    75    76    1
    48    65    71   am
    49    65    64    1
    50    25    26   ar
    51    25    24    1
    52    43    44    1
    53    85    84   ar
    54    96    97   ar
    55    58    57    2
    56    97    98    1
    57    76    77    1
    58    84    86   ar
    59    21    24    1
    60    21    20    1
    61    17    16    2
    62    53    52    2
    63    63    64    1
    64    63    61   am
    65    47    48    1
    66   154   155    2
    67   154   153    1
    68    60    61    1
    69    60    59    1
    70    14    15    1
    71    16    20   am
    72    16    15    1
    73    64    67    1
    74    12    13    2
    75    12    11    1
    76    10    11    1
    77     6     7    1
    78    61    62    2
    79    15    18    1
    80    57    59   am
    81    57    56    1
    82    44    46   ar
    83    44    45   ar
    84    99   100    1
    85    67    68    1
    86    52    51    1
    87    52    54   am
    88   157   156    1
    89   156   153    1
    90   153   152    1
    91    55    56    1
    92    55    49   am
    93     9     7   am
    94    51    48    1
    95    48    49    1
    96    77    78    1
    97   105   104   ar
    98     7     8    2
    99    68    69    1
   100    68    70    1
   101    49    50    2
   102   104   106   ar
   103   104   103    1
   104   100   103    1
   105   100   101    1
   106    18    19    1
   107   152   149   am
   108   141   140    2
   109   101   102    2
   110   140   139    1
   111   149   150    2
   112   149   148    1
   113   139   138    1
   114   136   134   ar
   115   136   137   ar
   116   138   130   am
   117   148   151    1
   118   148   147    1
   119   134   133   ar
   120   145   144    2
   121   137   135   ar
   122   147   144   am
   123   144   143    1
   124   130   131    2
   125   130   129    1
   126   107   108    1
   127   133   135   ar
   128   133   132    1
   129   129   132    1
   130   129   128    1
   131   108   111    1
   132   108   109    1
   133   123   122    2
   134   143   146    1
   135   143   142    1
   136   128   122   am
   137   122   121    1
   138   109   110    2
   139   121   120    1
   140   121   124    1
   141   115   114    2
   142   120   114   am
   143   114   113    1
   144   124   125    1
   145   116   113    1
   146   116   117    1
   147   125   127   ar
   148   125   126   ar
   149   119   118    1
   150   113   112    1
   151   117   118    1
