@<TRIPOS>MOLECULE
tmp/3hwnB00.pdb
 165 160 0 0 0
SMALL
GASTEIGER

@<TRIPOS>ATOM
      1  N         -4.0150    3.9720  -10.7040 N.3    19  GLN19      -0.1245
      2  CA        -3.4710    5.2980  -10.4130 C.3    19  GLN19       0.1566
      3  C         -3.1890    6.1200  -11.6850 C.2    19  GLN19       0.2260
      4  O         -2.7930    7.2880  -11.5920 O.2    19  GLN19      -0.2867
      5  CB        -2.2200    5.1710   -9.5460 C.3    19  GLN19       0.0367
      6  CG        -0.9660    4.7320  -10.2850 C.3    19  GLN19       0.0905
      7  CD         0.2410    4.5470   -9.3780 C.2    19  GLN19       0.2608
      8  OE1        0.3950    3.5210   -8.7080 O.2    19  GLN19      -0.2717
      9  NE2        1.1200    5.5400   -9.3770 N.am   19  GLN19      -0.0878
     10  N          2.1620    9.8090  -10.8850 N.3    23  GLY23      -0.1225
     11  CA         2.9920    9.0740   -9.9200 C.3    23  GLY23       0.1811
     12  C          2.4960    9.1170   -8.4790 C.2    23  GLY23       0.2280
     13  O          3.2480    9.4390   -7.5790 O.2    23  GLY23      -0.2866
     14  N          1.4620    6.4870   -6.5660 N.3    25  CYS25      -0.1221
     15  CA         1.5570    5.1730   -5.9030 C.3    25  CYS25       0.1808
     16  C          1.5950    5.2280   -4.3870 C.2    25  CYS25       0.2601
     17  O          0.9870    4.4040   -3.7140 O.2    25  CYS25      -0.2717
     18  CB         2.8110    4.4350   -6.3570 C.3    25  CYS25       0.0970
     19  SG         4.3570    5.1500   -5.8140 S.3    25  CYS25      -0.0800
     20  N          2.3520    6.1750   -3.8570 N.am   26  TRP26      -0.1976
     21  CA         2.4340    6.3860   -2.4070 C.3    26  TRP26       0.1640
     22  C          1.0760    6.6340   -1.7190 C.2    26  TRP26       0.2290
     23  O          0.8910    6.2540   -0.5740 O.2    26  TRP26      -0.2864
     24  CB         3.3460    7.5580   -2.1230 C.3    26  TRP26       0.0576
     25  CG         2.8420    8.8450   -2.7050 C.ar   26  TRP26       0.0006
     26  CD1        3.0620    9.3190   -3.9610 C.ar   26  TRP26       0.0946
     27  CD2        2.0440    9.8290   -2.0370 C.ar   26  TRP26       0.0152
     28  NE1        2.4560   10.5280   -4.1200 N.ar   26  TRP26      -0.2442
     29  CE2        1.8200   10.8670   -2.9530 C.ar   26  TRP26       0.0810
     30  CE3        1.5030    9.9320   -0.7440 C.ar   26  TRP26       0.0012
     31  CZ2        1.0660   12.0000   -2.6330 C.ar   26  TRP26       0.0191
     32  CZ3        0.7660   11.0560   -0.4240 C.ar   26  TRP26       0.0001
     33  CH2        0.5470   12.0780   -1.3820 C.ar   26  TRP26       0.0015
     34  N          5.3090   17.1360    3.4870 N.3    61  GLY61      -0.1210
     35  CA         6.4810   16.7970    2.7080 C.3    61  GLY61       0.1956
     36  C          6.1520   16.3140    1.3160 C.2    61  GLY61       0.2612
     37  O          6.9980   16.3600    0.4500 O.2    61  GLY61      -0.2717
     38  N          4.9200   15.8730    1.0870 N.am   62  ASN62      -0.1960
     39  CA         4.5790   15.2140   -0.1570 C.3    62  ASN62       0.1819
     40  C          4.5920   16.1370   -1.3610 C.2    62  ASN62       0.2621
     41  O          4.6190   17.3570   -1.2140 O.2    62  ASN62      -0.2715
     42  CB         3.2400   14.5020   -0.0090 C.3    62  ASN62       0.1195
     43  CG         3.3220   13.3590    0.9600 C.2    62  ASN62       0.2630
     44  OD1        4.1990   12.5130    0.8480 O.2    62  ASN62      -0.2716
     45  ND2        2.4290   13.3380    1.9370 N.am   62  ASN62      -0.0877
     46  N          4.5830   15.5480   -2.5540 N.am   63  GLU63      -0.1977
     47  CA         4.8320   16.2990   -3.7690 C.3    63  GLU63       0.1602
     48  C          3.9160   15.9110   -4.9390 C.2    63  GLU63       0.2287
     49  O          4.2720   16.0810   -6.1240 O.2    63  GLU63      -0.2864
     50  CB         6.3180   16.1760   -4.1250 C.3    63  GLU63       0.0415
     51  CG         7.2260   16.7560   -3.0310 C.3    63  GLU63       0.1163
     52  CD         8.6690   16.8680   -3.4420 C.2    63  GLU63       0.3649
     53  OE1        9.1450   16.0110   -4.2180 O.co2  63  GLU63      -0.2457
     54  OE2        9.3320   17.8190   -2.9780 O.co2  63  GLU63      -0.2457
     55  N          4.4330   13.9630   -8.5480 N.3    66  ASN66      -0.1225
     56  CA         5.8680   13.8790   -8.6290 C.3    66  ASN66       0.1785
     57  C          6.3840   13.0300   -7.4720 C.2    66  ASN66       0.2598
     58  O          7.5920   12.8370   -7.3620 O.2    66  ASN66      -0.2718
     59  CB         6.5100   15.2770   -8.5810 C.3    66  ASN66       0.1169
     60  CG         5.7110   16.3490   -9.3510 C.2    66  ASN66       0.2627
     61  OD1        5.0240   17.1670   -8.7420 O.2    66  ASN66      -0.2716
     62  ND2        5.8130   16.3460  -10.6760 N.am   66  ASN66      -0.0877
     63  N          5.4810   12.5700   -6.5910 N.am   67  GLY67      -0.1942
     64  CA         5.7870   11.5260   -5.5920 C.3    67  GLY67       0.2014
     65  C          5.5180   11.9140   -4.1420 C.2    67  GLY67       0.2639
     66  O          5.1210   13.0510   -3.8540 O.2    67  GLY67      -0.2714
     67  N          5.7010   10.9480   -3.2390 N.am   68  GLY68      -0.1939
     68  CA         5.6640   11.2200   -1.7880 C.3    68  GLY68       0.2014
     69  C          5.9140    9.9730   -0.9410 C.2    68  GLY68       0.2639
     70  O          6.2380    8.9080   -1.4840 O.2    68  GLY68      -0.2714
     71  N          5.7210   10.1000    0.3770 N.am   69  LEU69      -0.1963
     72  CA         5.8780    8.9900    1.3290 C.3    69  LEU69       0.1728
     73  C          4.5970    8.6830    2.0950 C.2    69  LEU69       0.2616
     74  O          3.9280    9.5860    2.5750 O.2    69  LEU69      -0.2715
     75  CB         6.9930    9.2700    2.3420 C.3    69  LEU69       0.0311
     76  CG         8.3260    9.8120    1.7900 C.3    69  LEU69       0.0022
     77  CD1        9.2880   10.1070    2.9340 C.3    69  LEU69       0.0001
     78  CD2        8.9430    8.8510    0.7920 C.3    69  LEU69       0.0001
     79  N          4.2990    7.3840    2.2340 N.am   70  MET70      -0.1963
     80  CA         3.1540    6.8830    2.9900 C.3    70  MET70       0.1736
     81  C          3.0820    7.4450    4.3850 C.2    70  MET70       0.2616
     82  O          1.9940    7.7450    4.8780 O.2    70  MET70      -0.2715
     83  CB         3.2080    5.3560    3.0920 C.3    70  MET70       0.0427
     84  CG         2.8020    4.6520    1.8100 C.3    70  MET70       0.0599
     85  SD         4.0720    4.7660    0.5420 S.3    70  MET70      -0.1393
     86  CE         4.8070    3.1420    0.6240 C.3    70  MET70       0.0692
     87  N          4.2380    7.5750    5.0240 N.am   71  ASP71      -0.1957
     88  CA         4.2910    8.0560    6.3890 C.3    71  ASP71       0.1840
     89  C          3.8730    9.5200    6.4470 C.2    71  ASP71       0.2622
     90  O          3.1350    9.9210    7.3530 O.2    71  ASP71      -0.2715
     91  CB         5.6960    7.8610    6.9660 C.3    71  ASP71       0.1450
     92  CG         6.0630    6.3790    7.1130 C.2    71  ASP71       0.3671
     93  OD1        5.2540    5.5320    6.6600 O.co2  71  ASP71      -0.2456
     94  OD2        7.1520    6.0730    7.6690 O.co2  71  ASP71      -0.2456
     95  N          4.3240   10.2980    5.4580 N.am   72  TYR72      -0.1974
     96  CA         3.9420   11.7060    5.3160 C.3    72  TYR72       0.1639
     97  C          2.4500   11.8200    5.0590 C.2    72  TYR72       0.2290
     98  O          1.8510   12.8570    5.3420 O.2    72  TYR72      -0.2864
     99  CB         4.7030   12.3960    4.1770 C.3    72  TYR72       0.0560
    100  CG         6.1570   12.7010    4.4230 C.ar   72  TYR72      -0.0198
    101  CD1        6.6810   12.8470    5.7210 C.ar   72  TYR72      -0.0009
    102  CD2        7.0160   12.9050    3.3490 C.ar   72  TYR72      -0.0009
    103  CE1        8.0510   13.1490    5.9280 C.ar   72  TYR72       0.0417
    104  CE2        8.3840   13.2080    3.5430 C.ar   72  TYR72       0.0417
    105  CZ         8.8880   13.3340    4.8230 C.ar   72  TYR72       0.1957
    106  OH        10.2260   13.6460    4.9830 O.3    72  TYR72      -0.2866
    107  N          7.1320    2.7850   11.9640 N.3   114  ASP114     -0.1239
    108  CA         8.0410    2.3070   10.9120 C.3   114  ASP114      0.1674
    109  C          8.5360    0.9300   11.3380 C.2   114  ASP114      0.2266
    110  O          9.0390    0.7740   12.4570 O.2   114  ASP114     -0.2867
    111  CB         9.2740    3.2190   10.7820 C.3   114  ASP114      0.1410
    112  CG         8.9330    4.6670   10.4040 C.2   114  ASP114      0.3668
    113  OD1        7.7760    4.9640   10.0190 O.co2 114  ASP114     -0.2456
    114  OD2        9.8590    5.5150   10.4870 O.co2 114  ASP114     -0.2456
    115  N          7.6290   -0.0650    0.4120 N.3   135  ALA135     -0.1245
    116  CA         8.2120    0.3850   -0.8400 C.3   135  ALA135      0.1562
    117  C          8.9880   -0.7670   -1.5040 C.2   135  ALA135      0.2260
    118  O          9.7590   -1.4460   -0.8310 O.2   135  ALA135     -0.2867
    119  CB         9.1450    1.5540   -0.5850 C.3   135  ALA135      0.0290
    120  N         14.2400    1.7780   -3.6560 N.3   161  MET161     -0.1230
    121  CA        12.8310    1.3700   -3.7390 C.3   161  MET161      0.1702
    122  C         11.9780    2.4530   -4.3640 C.2   161  MET161      0.2592
    123  O         11.8800    3.5540   -3.8200 O.2   161  MET161     -0.2718
    124  CB        12.2660    1.0860   -2.3580 C.3   161  MET161      0.0401
    125  CG        12.7840   -0.1730   -1.7090 C.3   161  MET161      0.0596
    126  SD        14.1940    0.1510   -0.6710 S.3   161  MET161     -0.1393
    127  CE        13.6070    1.5090    0.3500 C.3   161  MET161      0.0692
    128  N         11.3070    2.1240   -5.4600 N.am  162  ASP162     -0.1960
    129  CA        10.6600    3.1430   -6.2850 C.3   162  ASP162      0.1840
    130  C          9.1080    3.1450   -6.2650 C.2   162  ASP162      0.2622
    131  O          8.4950    4.1260   -6.7050 O.2   162  ASP162     -0.2715
    132  CB        11.1920    3.0660   -7.7300 C.3   162  ASP162      0.1450
    133  CG        10.9770    1.6930   -8.3870 C.2   162  ASP162      0.3671
    134  OD1       10.2090    0.8680   -7.8470 O.co2 162  ASP162     -0.2456
    135  OD2       11.5810    1.4360   -9.4590 O.co2 162  ASP162     -0.2456
    136  N          8.4870    2.0810   -5.7430 N.am  163  HIS163     -0.1959
    137  CA         7.0220    1.9230   -5.8140 C.3   163  HIS163      0.1787
    138  C          6.3790    1.5680   -4.4820 C.2   163  HIS163      0.2620
    139  O          6.6600    0.5140   -3.8960 O.2   163  HIS163     -0.2715
    140  CB         6.6600    0.8590   -6.8420 C.3   163  HIS163      0.0785
    141  CG         5.2290    0.8890   -7.2780 C.ar  163  HIS163      0.0821
    142  ND1        4.5950    2.0420   -7.6920 N.ar  163  HIS163     -0.2267
    143  CD2        4.3190   -0.1080   -7.4100 C.ar  163  HIS163      0.1154
    144  CE1        3.3510    1.7570   -8.0370 C.ar  163  HIS163      0.1986
    145  NE2        3.1570    0.4610   -7.8760 N.ar  163  HIS163     -0.2212
    146  N          5.5000    2.4490   -4.0150 N.am  164  GLY164     -0.1954
    147  CA         4.6360    2.1620   -2.8750 C.3   164  GLY164      0.1869
    148  C          3.5330    1.1790   -3.2610 C.2   164  GLY164      0.2309
    149  O          2.8060    1.3840   -4.2660 O.2   164  GLY164     -0.2863
    150  N         11.2990   -0.1350    3.7380 N.3   209  ALA209     -0.1231
    151  CA        10.5290    1.0250    4.2160 C.3   209  ALA209      0.1694
    152  C          9.0790    0.6730    4.5490 C.2   209  ALA209      0.2592
    153  O          8.1500    1.2570    4.0210 O.2   209  ALA209     -0.2718
    154  CB        10.5830    2.1180    3.1930 C.3   209  ALA209      0.0304
    155  N          8.8880   -0.2880    5.4450 N.am  210  ALA210     -0.1966
    156  CA         7.5380   -0.7300    5.7980 C.3   210  ALA210      0.1728
    157  C          6.9660    0.1070    6.9550 C.2   210  ALA210      0.2616
    158  O          7.6920    0.4680    7.8860 O.2   210  ALA210     -0.2715
    159  CB         7.5430   -2.2260    6.1480 C.3   210  ALA210      0.0334
    160  N          5.6750    0.4250    6.8830 N.am  211  SER211     -0.1950
    161  CA         5.0010    1.1520    7.9500 C.3   211  SER211      0.1924
    162  C          3.4710    0.9370    7.9230 C.2   211  SER211      0.2314
    163  O          2.9090    0.4080    6.9470 O.2   211  SER211     -0.2863
    164  CB         5.3280    2.6600    7.8680 C.3   211  SER211      0.2116
    165  OG         4.8330    3.2770    6.6790 O.3   211  SER211     -0.2180
@<TRIPOS>BOND
     1     3     4    2
     2     3     2    1
     3    10    11    1
     4     1     2    1
     5    62    60   am
     6     2     5    1
     7     6     5    1
     8     6     7    1
     9    11    12    1
    10   135   133   ar
    11     7     9   am
    12     7     8    2
    13    60    61    2
    14    60    59    1
    15    56    59    1
    16    56    55    1
    17    56    57    1
    18    12    13    2
    19   133   134   ar
    20   133   132    1
    21   144   145   ar
    22   144   142   ar
    23   145   143   ar
    24   132   129    1
    25   142   141   ar
    26    57    58    2
    27    57    63   am
    28   143   141   ar
    29   141   140    1
    30   140   137    1
    31   131   130    2
    32    63    64    1
    33    14    15    1
    34    18    15    1
    35    18    19    1
    36   129   130    1
    37   129   128    1
    38   130   136   am
    39    49    48    2
    40    15    16    1
    41   137   136    1
    42   137   138    1
    43    64    65    1
    44   128   122   am
    45    48    47    1
    46   138   146   am
    47   138   139    2
    48    16    20   am
    49    16    17    2
    50   122   123    2
    51   122   121    1
    52   149   148    2
    53    53    52   ar
    54    65    66    2
    55    65    67   am
    56    50    47    1
    57    50    51    1
    58    28    26   ar
    59    28    29   ar
    60   146   147    1
    61    26    25   ar
    62    20    21    1
    63    47    46    1
    64   121   120    1
    65   121   124    1
    66    52    51    1
    67    52    54   ar
    68   148   147    1
    69    67    68    1
    70    29    31   ar
    71    29    27   ar
    72    25    24    1
    73    25    27   ar
    74    31    33   ar
    75    46    40   am
    76    21    24    1
    77    21    22    1
    78   124   125    1
    79    27    30   ar
    80    68    69    1
    81    22    23    2
    82   125   126    1
    83   117   116    1
    84   117   118    2
    85    70    69    2
    86    33    32   ar
    87    40    41    2
    88    40    39    1
    89    69    71   am
    90   116   119    1
    91   116   115    1
    92    30    32   ar
    93   126   127    1
    94    39    42    1
    95    39    38    1
    96    42    43    1
    97    71    72    1
    98    37    36    2
    99    85    86    1
   100    85    84    1
   101    78    76    1
   102    44    43    2
   103    43    45   am
   104    38    36   am
   105    36    35    1
   106    72    73    1
   107    72    75    1
   108    76    75    1
   109    76    77    1
   110    84    83    1
   111    73    79   am
   112    73    74    2
   113    79    80    1
   114    35    34    1
   115    80    83    1
   116    80    81    1
   117   154   151    1
   118   102   104   ar
   119   102   100   ar
   120   104   105   ar
   121   150   151    1
   122   153   152    2
   123    99   100    1
   124    99    96    1
   125   151   152    1
   126    81    82    2
   127    81    87   am
   128   100   101   ar
   129   152   155   am
   130   105   106    1
   131   105   103   ar
   132    87    88    1
   133    97    96    1
   134    97    98    2
   135    96    95    1
   136   155   156    1
   137    95    89   am
   138   101   103   ar
   139   156   159    1
   140   156   157    1
   141    88    89    1
   142    88    91    1
   143    89    90    2
   144    93    92   ar
   145   165   164    1
   146   160   157   am
   147   160   161    1
   148   163   162    2
   149   157   158    2
   150    91    92    1
   151    92    94   ar
   152   164   161    1
   153   162   161    1
   154   113   112   ar
   155   112   114   ar
   156   112   111    1
   157   111   108    1
   158   108   109    1
   159   108   107    1
   160   109   110    2
