@<TRIPOS>MOLECULE
tmp/3hwoA00.pdb
 146 137 0 0 0
SMALL
GASTEIGER

@<TRIPOS>ATOM
      1  N         44.3120    6.9880   31.8880 N.3   135  LYS135     -0.1245
      2  CA        43.5150    5.7760   32.0660 C.3   135  LYS135      0.1561
      3  C         42.6060    5.5250   30.8680 C.2   135  LYS135      0.2260
      4  O         41.8900    6.4340   30.4260 O.2   135  LYS135     -0.2867
      5  CB        42.6440    5.8730   33.3280 C.3   135  LYS135      0.0271
      6  CG        42.0660    4.5320   33.7650 C.3   135  LYS135      0.0035
      7  CD        40.8630    4.7090   34.6650 C.3   135  LYS135      0.0206
      8  CE        40.4870    3.3970   35.3580 C.3   135  LYS135      0.1093
      9  NZ        39.4150    3.5800   36.3840 N.3   135  LYS135     -0.1314
     10  N         39.6490    2.4490   29.7990 N.3   137  VAL137     -0.1245
     11  CA        39.0400    1.1600   30.1260 C.3   137  VAL137      0.1561
     12  C         38.7360    0.3280   28.8720 C.2   137  VAL137      0.2260
     13  O         38.1760    0.8110   27.8980 O.2   137  VAL137     -0.2867
     14  CB        37.8690    1.2280   31.2000 C.3   137  VAL137      0.0252
     15  CG1       37.5910    2.6530   31.6580 C.3   137  VAL137      0.0019
     16  CG2       36.5990    0.5110   30.7260 C.3   137  VAL137      0.0019
     17  N         26.9280   -0.1810   40.3370 N.3   185  GLU185     -0.1245
     18  CA        27.4130    1.1830   40.2660 C.3   185  GLU185      0.1567
     19  C         26.3540    2.2640   40.0530 C.2   185  GLU185      0.2260
     20  O         25.7990    2.4010   38.9630 O.2   185  GLU185     -0.2867
     21  CB        28.5270    1.3190   39.2370 C.3   185  GLU185      0.0388
     22  CG        29.2450    2.6640   39.3420 C.3   185  GLU185      0.1160
     23  CD        30.5810    2.6760   38.6210 C.2   185  GLU185      0.3649
     24  OE1       30.9320    1.6200   38.0460 O.co2 185  GLU185     -0.2457
     25  OE2       31.2690    3.7340   38.6130 O.co2 185  GLU185     -0.2457
     26  N         32.6400    3.3710   41.3660 N.3   200  LEU200     -0.1231
     27  CA        33.5000    2.2530   41.7310 C.3   200  LEU200      0.1693
     28  C         34.7170    2.2650   40.8080 C.2   200  LEU200      0.2592
     29  O         34.7020    2.9040   39.7540 O.2   200  LEU200     -0.2718
     30  CB        32.7550    0.9240   41.5790 C.3   200  LEU200      0.0284
     31  CG        31.3700    0.8070   42.2040 C.3   200  LEU200      0.0019
     32  CD1       30.7720   -0.5360   41.8820 C.3   200  LEU200      0.0001
     33  CD2       31.4250    1.0190   43.7320 C.3   200  LEU200      0.0001
     34  N         35.7620    1.5600   41.2160 N.am  201  ALA201     -0.1966
     35  CA        36.9940    1.4140   40.4310 C.3   201  ALA201      0.1728
     36  C         38.0110    0.7070   41.3120 C.2   201  ALA201      0.2617
     37  O         38.3470    1.2090   42.3660 O.2   201  ALA201     -0.2715
     38  CB        37.5300    2.7660   39.9680 C.3   201  ALA201      0.0334
     39  N         38.4730   -0.4680   40.8860 N.am  202  GLY202     -0.1940
     40  CA        39.3940   -1.2650   41.6820 C.3   202  GLY202      0.2014
     41  C         38.6510   -2.4420   42.2630 C.2   202  GLY202      0.2639
     42  O         37.6100   -2.2680   42.8800 O.2   202  GLY202     -0.2714
     43  N         39.1880   -3.6420   42.0780 N.am  203  SER203     -0.1949
     44  CA        38.4440   -4.8670   42.3610 C.3   203  SER203      0.1924
     45  C         39.3660   -5.9390   42.8600 C.2   203  SER203      0.2314
     46  O         40.5290   -5.9540   42.5110 O.2   203  SER203     -0.2863
     47  CB        37.8080   -5.4110   41.0790 C.3   203  SER203      0.2116
     48  OG        37.3670   -4.3720   40.2350 O.3   203  SER203     -0.2180
     49  N         44.0100    3.8530   40.3620 N.3   229  GLU229     -0.1245
     50  CA        42.8820    3.5970   39.4970 C.3   229  GLU229      0.1567
     51  C         41.7300    4.4210   40.0140 C.2   229  GLU229      0.2260
     52  O         41.1900    5.2580   39.3300 O.2   229  GLU229     -0.2867
     53  CB        42.5220    2.1170   39.5640 C.3   229  GLU229      0.0388
     54  CG        41.6820    1.5530   38.4340 C.3   229  GLU229      0.1160
     55  CD        41.5150    0.0540   38.5110 C.2   229  GLU229      0.3649
     56  OE1       42.3590   -0.5990   39.0950 O.co2 229  GLU229     -0.2457
     57  OE2       40.5480   -0.4900   37.9780 O.co2 229  GLU229     -0.2457
     58  N         34.9410   -4.0790   45.6930 N.3   264  HIS264     -0.1241
     59  CA        35.2750   -2.8980   44.9050 C.3   264  HIS264      0.1621
     60  C         35.5870   -1.7370   45.8430 C.2   264  HIS264      0.2264
     61  O         35.1930   -1.7530   47.0130 O.2   264  HIS264     -0.2867
     62  CB        34.1220   -2.4860   44.0030 C.3   264  HIS264      0.0745
     63  CG        33.8680   -3.4170   42.8620 C.ar  264  HIS264      0.0817
     64  ND1       34.8200   -3.7050   41.9060 N.ar  264  HIS264     -0.2268
     65  CD2       32.7460   -4.0760   42.4850 C.ar  264  HIS264      0.1154
     66  CE1       34.3040   -4.5240   41.0060 C.ar  264  HIS264      0.1986
     67  NE2       33.0470   -4.7650   41.3330 N.ar  264  HIS264     -0.2212
     68  N         35.8050    5.5280   35.1460 N.3   291  ALA291     -0.1231
     69  CA        35.6670    4.1080   35.4830 C.3   291  ALA291      0.1694
     70  C         35.1780    3.2980   34.2660 C.2   291  ALA291      0.2591
     71  O         35.3190    2.0670   34.2210 O.2   291  ALA291     -0.2718
     72  CB        34.7310    3.9190   36.6740 C.3   291  ALA291      0.0304
     73  N         34.6200    4.0010   33.2760 N.am  292  LEU292     -0.1980
     74  CA        34.0250    3.3220   32.1330 C.3   292  LEU292      0.1596
     75  C         34.6070    3.7030   30.7690 C.2   292  LEU292      0.2287
     76  O         34.4730    2.9610   29.8140 O.2   292  LEU292     -0.2864
     77  CB        32.5050    3.4910   32.1420 C.3   292  LEU292      0.0297
     78  CG        31.8360    2.1240   32.1280 C.3   292  LEU292      0.0022
     79  CD1       32.0470    1.4300   33.4520 C.3   292  LEU292      0.0001
     80  CD2       30.3810    2.3050   31.8590 C.3   292  LEU292      0.0001
     81  N         26.5600   -2.3620   33.3240 N.3   334  ILE334     -0.1231
     82  CA        27.6420   -3.3300   33.4540 C.3   334  ILE334      0.1692
     83  C         27.0510   -4.4860   34.1970 C.2   334  ILE334      0.2591
     84  O         25.9240   -4.3820   34.6540 O.2   334  ILE334     -0.2718
     85  CB        28.8400   -2.7710   34.2570 C.3   334  ILE334      0.0266
     86  CG1       28.3590   -2.1740   35.5990 C.3   334  ILE334      0.0019
     87  CG2       29.6250   -1.7420   33.3810 C.3   334  ILE334      0.0020
     88  CD1       29.5080   -1.6900   36.5400 C.3   334  ILE334      0.0001
     89  N         27.8180   -5.5670   34.3430 N.am  335  ARG335     -0.1980
     90  CA        27.3240   -6.8530   34.8590 C.3   335  ARG335      0.1597
     91  C         25.9950   -7.2180   34.2170 C.2   335  ARG335      0.2287
     92  O         25.0380   -7.5670   34.8980 O.2   335  ARG335     -0.2864
     93  CB        27.2200   -6.8740   36.3850 C.3   335  ARG335      0.0334
     94  CG        28.3860   -6.2150   37.1030 C.3   335  ARG335      0.0492
     95  CD        29.7220   -6.9550   36.9510 C.3   335  ARG335      0.2205
     96  NE        30.7950   -5.9790   37.1340 N.pl3 335  ARG335     -0.0865
     97  CZ        31.2660   -5.5950   38.3200 C.cat 335  ARG335      0.5346
     98  NH1       30.8010   -6.1430   39.4370 N.pl3 335  ARG335      0.1354
     99  NH2       32.2160   -4.6780   38.3910 N.pl3 335  ARG335      0.1354
    100  N         28.9880   -8.6980   28.6410 N.3   347  PHE347     -0.1227
    101  CA        29.9580   -7.6110   28.5740 C.3   347  PHE347      0.1736
    102  C         30.6830   -7.4030   29.9000 C.2   347  PHE347      0.2595
    103  O         30.0660   -7.4850   30.9740 O.2   347  PHE347     -0.2718
    104  CB        29.2330   -6.3240   28.1990 C.3   347  PHE347      0.0547
    105  CG        30.0730   -5.0790   28.3580 C.ar  347  PHE347     -0.0202
    106  CD1       30.9570   -4.6870   27.3610 C.ar  347  PHE347     -0.0042
    107  CD2       29.9670   -4.3000   29.5040 C.ar  347  PHE347     -0.0042
    108  CE1       31.7230   -3.5480   27.5070 C.ar  347  PHE347     -0.0003
    109  CE2       30.7340   -3.1770   29.6710 C.ar  347  PHE347     -0.0003
    110  CZ        31.6170   -2.7870   28.6700 C.ar  347  PHE347     -0.0000
    111  N         31.9870   -7.1320   29.8180 N.am  348  ALA348     -0.1966
    112  CA        32.7940   -6.7160   30.9790 C.3   348  ALA348      0.1728
    113  C         34.0090   -5.9020   30.5430 C.2   348  ALA348      0.2617
    114  O         34.5980   -6.1640   29.4970 O.2   348  ALA348     -0.2715
    115  CB        33.2410   -7.9000   31.7880 C.3   348  ALA348      0.0334
    116  N         34.3720   -4.9110   31.3530 N.am  349  GLY349     -0.1940
    117  CA        35.5530   -4.0850   31.1060 C.3   349  GLY349      0.2014
    118  C         36.3780   -3.8280   32.3550 C.2   349  GLY349      0.2639
    119  O         35.8810   -3.9640   33.4750 O.2   349  GLY349     -0.2714
    120  N         37.6510   -3.4940   32.1420 N.am  350  ALA350     -0.1963
    121  CA        38.5770   -2.9890   33.1710 C.3   350  ALA350      0.1728
    122  C         39.3550   -1.8660   32.4510 C.2   350  ALA350      0.2616
    123  O         39.4500   -1.9070   31.2260 O.2   350  ALA350     -0.2715
    124  CB        39.4950   -4.1140   33.6840 C.3   350  ALA350      0.0334
    125  N         39.9540   -0.8880   33.1300 N.am  351  GLY351     -0.1955
    126  CA        40.5100   -0.9620   34.4620 C.3   351  GLY351      0.1869
    127  C         42.0140   -0.8560   34.2060 C.2   351  GLY351      0.2309
    128  O         42.8120   -1.5530   34.8410 O.2   351  GLY351     -0.2863
    129  N         40.3280  -10.4490   35.5390 N.3   364  GLU364     -0.1245
    130  CA        39.4000   -9.5530   36.2000 C.3   364  GLU364      0.1567
    131  C         38.1070   -9.5130   35.4000 C.2   364  GLU364      0.2260
    132  O         37.0600   -9.8270   35.9030 O.2   364  GLU364     -0.2867
    133  CB        39.9700   -8.1380   36.3710 C.3   364  GLU364      0.0388
    134  CG        39.2080   -7.2690   37.3590 C.3   364  GLU364      0.1160
    135  CD        39.8450   -5.9250   37.6590 C.2   364  GLU364      0.3649
    136  OE1       40.8750   -5.8890   38.3140 O.co2 364  GLU364     -0.2457
    137  OE2       39.3070   -4.8810   37.2850 O.co2 364  GLU364     -0.2457
    138  N         34.1390  -10.5630   36.4380 N.3   368  LYS368     -0.1245
    139  CA        32.9930   -9.7220   36.1640 C.3   368  LYS368      0.1561
    140  C         31.9770  -10.3750   35.2200 C.2   368  LYS368      0.2260
    141  O         30.7740  -10.2380   35.4270 O.2   368  LYS368     -0.2867
    142  CB        33.4350   -8.3780   35.6200 C.3   368  LYS368      0.0271
    143  CG        34.3360   -7.6560   36.5580 C.3   368  LYS368      0.0035
    144  CD        34.9300   -6.4390   35.8660 C.3   368  LYS368      0.0206
    145  CE        35.7880   -5.6520   36.8410 C.3   368  LYS368      0.1093
    146  NZ        36.1600   -4.3360   36.2670 N.3   368  LYS368     -0.1314
@<TRIPOS>BOND
     1   106   108   ar
     2   106   105   ar
     3   108   110   ar
     4    13    12    2
     5   104   105    1
     6   104   101    1
     7   105   107   ar
     8   101   100    1
     9   101   102    1
    10   110   109   ar
    11    12    11    1
    12   114   113    2
    13   107   109   ar
    14    10    11    1
    15    76    75    2
    16   111   102   am
    17   111   112    1
    18   102   103    2
    19    11    14    1
    20     4     3    2
    21   113   112    1
    22   113   116   am
    23    16    14    1
    24    75    74    1
    25     3     2    1
    26   112   115    1
    27   117   116    1
    28   117   118    1
    29    14    15    1
    30   123   122    2
    31    80    78    1
    32     1     2    1
    33     2     5    1
    34    78    77    1
    35    78    79    1
    36    74    77    1
    37    74    73    1
    38   120   118   am
    39   120   121    1
    40   118   119    2
    41   122   125   am
    42   122   121    1
    43   125   126    1
    44   121   124    1
    45    73    70   am
    46    81    82    1
    47     5     6    1
    48    87    85    1
    49    82    83    1
    50    82    85    1
    51     6     7    1
    52    83    89   am
    53    83    84    2
    54   127   126    1
    55   127   128    2
    56    91    90    1
    57    91    92    2
    58    71    70    2
    59    85    86    1
    60    70    69    1
    61    89    90    1
    62     7     8    1
    63    90    93    1
    64    68    69    1
    65   140   141    2
    66   140   139    1
    67     8     9    1
    68   131   132    2
    69   131   130    1
    70    69    72    1
    71   129   130    1
    72    86    88    1
    73   142   139    1
    74   142   143    1
    75   144   143    1
    76   144   145    1
    77   139   138    1
    78   130   133    1
    79   146   145    1
    80   133   134    1
    81    93    94    1
    82    95    94    1
    83    95    96    1
    84    96    97    2
    85   137   135   ar
    86   134   135    1
    87   135   136   ar
    88    57    55   ar
    89    24    23   ar
    90    97    99    1
    91    97    98    1
    92    54    55    1
    93    54    53    1
    94    55    56   ar
    95    25    23   ar
    96    23    22    1
    97    20    19    2
    98    21    22    1
    99    21    18    1
   100    52    51    2
   101    50    53    1
   102    50    51    1
   103    50    49    1
   104    29    28    2
   105    38    35    1
   106    19    18    1
   107    48    47    1
   108    18    17    1
   109    35    34    1
   110    35    36    1
   111    28    34   am
   112    28    27    1
   113    39    36   am
   114    39    40    1
   115    66    67   ar
   116    66    64   ar
   117    47    44    1
   118    36    37    2
   119    67    65   ar
   120    26    27    1
   121    30    27    1
   122    30    31    1
   123    40    41    1
   124    32    31    1
   125    64    63   ar
   126    43    41   am
   127    43    44    1
   128    31    33    1
   129    41    42    2
   130    44    45    1
   131    65    63   ar
   132    46    45    2
   133    63    62    1
   134    62    59    1
   135    59    58    1
   136    59    60    1
   137    60    61    2
