@<TRIPOS>MOLECULE
tmp/3hwrA00.pdb
 200 187 0 0 0
SMALL
GASTEIGER

@<TRIPOS>ATOM
      1  N         64.3390   50.7990  -16.6530 N.3     5  GLY5       -0.1210
      2  CA        65.5510   51.5330  -16.9560 C.3     5  GLY5        0.1956
      3  C         66.4050   51.5880  -15.7100 C.2     5  GLY5        0.2612
      4  O         66.7340   52.6580  -15.2170 O.2     5  GLY5       -0.2717
      5  N         66.7440   50.4200  -15.1850 N.am    6  ALA6       -0.1965
      6  CA        67.5640   50.3170  -13.9790 C.3     6  ALA6        0.1728
      7  C         69.0210   50.7100  -14.2340 C.2     6  ALA6        0.2617
      8  O         69.8670   49.8670  -14.5180 O.2     6  ALA6       -0.2715
      9  CB        67.4900   48.9140  -13.4100 C.3     6  ALA6        0.0334
     10  N         69.2600   52.0100  -14.2030 N.am    7  GLY7       -0.1940
     11  CA        70.5920   52.5940  -14.2780 C.3     7  GLY7        0.2014
     12  C         70.9010   53.1430  -12.8870 C.2     7  GLY7        0.2639
     13  O         70.5380   52.5130  -11.8810 O.2     7  GLY7       -0.2714
     14  N         71.5520   54.3010  -12.8200 N.am    8  ALA8       -0.1963
     15  CA        71.9540   54.9370  -11.5520 C.3     8  ALA8        0.1728
     16  C         70.8150   55.2410  -10.5390 C.2     8  ALA8        0.2616
     17  O         70.8960   54.8640   -9.3680 O.2     8  ALA8       -0.2715
     18  CB        72.7250   56.2190  -11.8770 C.3     8  ALA8        0.0334
     19  N         69.7770   55.9490  -11.0080 N.am    9  VAL9       -0.1963
     20  CA        68.5960   56.3130  -10.2020 C.3     9  VAL9        0.1727
     21  C         67.7430   55.0480   -9.9370 C.2     9  VAL9        0.2616
     22  O         67.4330   54.7160   -8.7980 O.2     9  VAL9       -0.2715
     23  CB        67.7800   57.4350  -10.9500 C.3     9  VAL9        0.0290
     24  CG1       66.4220   57.7710  -10.2600 C.3     9  VAL9        0.0023
     25  CG2       68.6430   58.6820  -11.1210 C.3     9  VAL9        0.0023
     26  N         67.4050   54.3240  -11.0000 N.am   10  GLY10      -0.1955
     27  CA        66.6090   53.1020  -10.8870 C.3    10  GLY10       0.1869
     28  C         67.1480   52.0800   -9.9050 C.2    10  GLY10       0.2309
     29  O         66.3820   51.4900   -9.1230 O.2    10  GLY10      -0.2863
     30  N         64.3850   46.2320  -14.8410 N.3    26  ILE26      -0.1231
     31  CA        64.4990   46.0590  -16.2960 C.3    26  ILE26       0.1692
     32  C         65.7460   46.8720  -16.6520 C.2    26  ILE26       0.2592
     33  O         65.6930   48.1050  -16.7670 O.2    26  ILE26      -0.2718
     34  CB        63.2710   46.5250  -17.1410 C.3    26  ILE26       0.0266
     35  CG1       62.0240   45.6920  -16.8780 C.3    26  ILE26       0.0019
     36  CG2       63.5550   46.3520  -18.6160 C.3    26  ILE26       0.0020
     37  CD1       61.3480   45.9450  -15.5930 C.3    26  ILE26       0.0001
     38  N         66.8770   46.1710  -16.7600 N.am   27  ALA27      -0.1966
     39  CA        68.1710   46.7940  -17.0600 C.3    27  ALA27       0.1728
     40  C         68.7330   46.2640  -18.3760 C.2    27  ALA27       0.2616
     41  O         68.1600   45.3580  -18.9790 O.2    27  ALA27      -0.2715
     42  CB        69.1540   46.5100  -15.9230 C.3    27  ALA27       0.0334
     43  N         69.8450   46.8500  -18.8180 N.am   28  ARG28      -0.1977
     44  CA        70.5440   46.3770  -20.0080 C.3    28  ARG28       0.1597
     45  C         71.2340   45.0700  -19.6450 C.2    28  ARG28       0.2287
     46  O         71.4780   44.8300  -18.4630 O.2    28  ARG28      -0.2864
     47  CB        71.5910   47.3930  -20.4850 C.3    28  ARG28       0.0334
     48  CG        71.0330   48.6860  -21.0340 C.3    28  ARG28       0.0492
     49  CD        69.9820   48.4290  -22.1260 C.3    28  ARG28       0.2205
     50  NE        69.6680   49.6300  -22.9070 N.pl3  28  ARG28      -0.0865
     51  CZ        68.6400   49.7420  -23.7510 C.cat  28  ARG28       0.5346
     52  NH1       67.8030   48.7230  -23.9370 N.pl3  28  ARG28       0.1354
     53  NH2       68.4360   50.8880  -24.4120 N.pl3  28  ARG28       0.1354
     54  N         74.2860   44.6830  -17.1360 N.3    31  HIS31      -0.1241
     55  CA        73.9310   44.6650  -15.7150 C.3    31  HIS31       0.1621
     56  C         73.1460   43.4380  -15.3020 C.2    31  HIS31       0.2264
     57  O         73.4350   42.8620  -14.2610 O.2    31  HIS31      -0.2867
     58  CB        73.1370   45.9160  -15.3520 C.3    31  HIS31       0.0745
     59  CG        73.8320   47.1890  -15.7110 C.ar   31  HIS31       0.0817
     60  ND1       75.0130   47.5780  -15.1200 N.ar   31  HIS31      -0.2268
     61  CD2       73.5140   48.1620  -16.5980 C.ar   31  HIS31       0.1154
     62  CE1       75.3940   48.7410  -15.6210 C.ar   31  HIS31       0.1986
     63  NE2       74.5010   49.1180  -16.5200 N.ar   31  HIS31      -0.2212
     64  N         65.9160   41.9570  -19.0680 N.3    57  SER57      -0.1217
     65  CA        66.0450   42.9240  -20.1750 C.3    57  SER57       0.1889
     66  C         64.7650   42.9770  -21.0110 C.2    57  SER57       0.2288
     67  O         64.6540   43.7770  -21.9310 O.2    57  SER57      -0.2866
     68  CB        67.2620   42.6170  -21.0580 C.3    57  SER57       0.2089
     69  OG        68.4710   42.9510  -20.3950 O.3    57  SER57      -0.2183
     70  N         61.2260   44.1660  -21.3630 N.3    59  PRO59      -0.2116
     71  CA        60.3990   45.2100  -20.7220 C.3    59  PRO59       0.1372
     72  C         58.9940   44.7100  -20.3380 C.2    59  PRO59       0.2244
     73  O         58.2730   45.3940  -19.6140 O.2    59  PRO59      -0.2868
     74  CB        60.3700   46.3330  -21.7630 C.3    59  PRO59       0.0268
     75  CG        60.5440   45.6390  -23.0550 C.3    59  PRO59       0.0207
     76  CD        61.4470   44.4590  -22.7930 C.3    59  PRO59       0.0892
     77  N         62.7470   55.3240  -14.9260 N.3    71  CYS71      -0.1221
     78  CA        63.9910   56.0360  -14.6660 C.3    71  CYS71       0.1808
     79  C         64.9360   56.0600  -15.8340 C.2    71  CYS71       0.2601
     80  O         66.1350   56.0550  -15.6290 O.2    71  CYS71      -0.2717
     81  CB        64.7260   55.3500  -13.5140 C.3    71  CYS71       0.0970
     82  SG        63.7400   54.9070  -12.0690 S.3    71  CYS71      -0.0800
     83  N         64.4220   56.0670  -17.0570 N.am   72  VAL72      -0.1965
     84  CA        65.2790   56.1240  -18.2370 C.3    72  VAL72       0.1727
     85  C         65.6020   57.5870  -18.4770 C.2    72  VAL72       0.2616
     86  O         64.9630   58.4820  -17.9130 O.2    72  VAL72      -0.2715
     87  CB        64.6040   55.4870  -19.4940 C.3    72  VAL72       0.0290
     88  CG1       64.2330   54.0420  -19.2330 C.3    72  VAL72       0.0023
     89  CG2       63.3520   56.2580  -19.9250 C.3    72  VAL72       0.0023
     90  N         66.6280   57.8440  -19.2750 N.am   73  LYS73      -0.1977
     91  CA        66.9290   59.2080  -19.6900 C.3    73  LYS73       0.1596
     92  C         65.7820   59.6660  -20.6100 C.2    73  LYS73       0.2287
     93  O         65.1140   58.8450  -21.2340 O.2    73  LYS73      -0.2864
     94  CB        68.2930   59.2820  -20.4080 C.3    73  LYS73       0.0298
     95  CG        69.5460   59.2790  -19.4640 C.3    73  LYS73       0.0038
     96  CD        70.8650   59.1680  -20.2750 C.3    73  LYS73       0.0206
     97  CE        72.1300   59.3200  -19.4200 C.3    73  LYS73       0.1093
     98  NZ        72.4180   60.7660  -19.0810 N.3    73  LYS73      -0.1314
     99  N         64.9500   58.3680  -24.1580 N.3    76  ASP76      -0.1239
    100  CA        64.3040   57.0530  -24.2460 C.3    76  ASP76       0.1674
    101  C         62.8860   56.9270  -23.6530 C.2    76  ASP76       0.2266
    102  O         62.3340   55.8340  -23.6710 O.2    76  ASP76      -0.2867
    103  CB        65.1980   55.9790  -23.5680 C.3    76  ASP76       0.1410
    104  CG        66.6210   55.9190  -24.1550 C.2    76  ASP76       0.3668
    105  OD1       66.7660   56.0690  -25.3970 O.co2  76  ASP76      -0.2456
    106  OD2       67.5830   55.7060  -23.3630 O.co2  76  ASP76      -0.2456
    107  N         60.2500   55.2900  -26.4240 N.3    79  SER79      -0.1202
    108  CA        60.6210   53.9040  -26.7600 C.3    79  SER79       0.2020
    109  C         60.4140   52.9940  -25.5600 C.2    79  SER79       0.2618
    110  O         59.7640   51.9600  -25.6780 O.2    79  SER79      -0.2717
    111  CB        62.0830   53.8210  -27.2390 C.3    79  SER79       0.2103
    112  OG        62.9910   54.3930  -26.3010 O.3    79  SER79      -0.2182
    113  N         60.9370   53.3890  -24.3990 N.am   80  ALA80      -0.1979
    114  CA        60.7580   52.5800  -23.1870 C.3    80  ALA80       0.1597
    115  C         59.2870   52.4770  -22.7760 C.2    80  ALA80       0.2287
    116  O         58.8480   51.4150  -22.3840 O.2    80  ALA80      -0.2864
    117  CB        61.6030   53.1140  -22.0380 C.3    80  ALA80       0.0319
    118  N         57.6130   50.0950  -25.0920 N.3    83  ALA83      -0.1245
    119  CA        58.1560   48.7400  -24.8170 C.3    83  ALA83       0.1562
    120  C         57.3740   48.0020  -23.7230 C.2    83  ALA83       0.2260
    121  O         57.0560   46.8130  -23.8650 O.2    83  ALA83      -0.2867
    122  CB        59.6520   48.8140  -24.4250 C.3    83  ALA83       0.0290
    123  N         60.8270   59.2760  -12.5070 N.3    96  LEU96      -0.1231
    124  CA        61.9840   59.7280  -11.7330 C.3    96  LEU96       0.1693
    125  C         62.9780   60.0810  -12.8060 C.2    96  LEU96       0.2592
    126  O         63.8510   59.2950  -13.1580 O.2    96  LEU96      -0.2718
    127  CB        62.5350   58.6460  -10.8040 C.3    96  LEU96       0.0284
    128  CG        61.8450   58.3020   -9.4660 C.3    96  LEU96       0.0019
    129  CD1       60.4410   57.8090   -9.6160 C.3    96  LEU96       0.0001
    130  CD2       62.6590   57.2600   -8.7640 C.3    96  LEU96       0.0001
    131  N         62.7920   61.2540  -13.3760 N.am   97  GLN97      -0.1966
    132  CA        63.6270   61.7340  -14.4580 C.3    97  GLN97       0.1733
    133  C         63.7720   63.2600  -14.3570 C.2    97  GLN97       0.2616
    134  O         63.0420   63.9390  -13.6140 O.2    97  GLN97      -0.2715
    135  CB        62.9640   61.4060  -15.8190 C.3    97  GLN97       0.0408
    136  CG        62.6180   59.9780  -16.0870 C.3    97  GLN97       0.0908
    137  CD        61.7290   59.7960  -17.2870 C.2    97  GLN97       0.2608
    138  OE1       60.5050   59.9410  -17.2000 O.2    97  GLN97      -0.2717
    139  NE2       62.3240   59.4160  -18.4030 N.am   97  GLN97      -0.0878
    140  N         64.7180   63.7630  -15.1350 N.am   98  ASN98      -0.1972
    141  CA        64.9570   65.1690  -15.2970 C.3    98  ASN98       0.1688
    142  C         64.3760   65.5360  -16.6400 C.2    98  ASN98       0.2292
    143  O         64.3600   64.7200  -17.5520 O.2    98  ASN98      -0.2864
    144  CB        66.4600   65.5060  -15.2950 C.3    98  ASN98       0.1181
    145  CG        67.0800   65.6180  -13.8580 C.2    98  ASN98       0.2629
    146  OD1       66.3820   65.5710  -12.8340 O.2    98  ASN98      -0.2716
    147  ND2       68.4040   65.8040  -13.8130 N.am   98  ASN98      -0.0877
    148  N         63.9100   64.1720   -8.5680 N.3   119  VAL119     -0.1245
    149  CA        64.9060   63.3160   -7.9680 C.3   119  VAL119      0.1561
    150  C         66.0760   64.1540   -7.4570 C.2   119  VAL119      0.2260
    151  O         66.7160   64.8610   -8.2340 O.2   119  VAL119     -0.2867
    152  CB        65.4240   62.2720   -9.0120 C.3   119  VAL119      0.0252
    153  CG1       66.3980   61.3130   -8.3600 C.3   119  VAL119      0.0019
    154  CG2       64.2540   61.4910   -9.6610 C.3   119  VAL119      0.0019
    155  N         69.4110   63.3850   -5.8590 N.3   121  VAL121     -0.1231
    156  CA        70.3920   62.3590   -5.5250 C.3   121  VAL121      0.1692
    157  C         71.6630   62.5380   -6.3560 C.2   121  VAL121      0.2592
    158  O         71.6970   63.3090   -7.3150 O.2   121  VAL121     -0.2718
    159  CB        69.8010   60.9630   -5.8150 C.3   121  VAL121      0.0266
    160  CG1       69.7050   60.7140   -7.3300 C.3   121  VAL121      0.0020
    161  CG2       70.5990   59.8630   -5.1280 C.3   121  VAL121      0.0020
    162  N         72.7260   61.8780   -5.9240 N.am  122  ALA122     -0.1966
    163  CA        73.9660   61.7760   -6.6860 C.3   122  ALA122      0.1728
    164  C         74.2310   60.2580   -6.6940 C.2   122  ALA122      0.2616
    165  O         74.3710   59.6470   -5.6330 O.2   122  ALA122     -0.2715
    166  CB        75.1050   62.5800   -6.0320 C.3   122  ALA122      0.0334
    167  N         74.1740   59.6600   -7.8880 N.am  123  THR123     -0.1951
    168  CA        74.3750   58.2210   -8.0650 C.3   123  THR123      0.1897
    169  C         75.0340   57.9340   -9.4010 C.2   123  THR123      0.2313
    170  O         74.7800   58.6240  -10.3960 O.2   123  THR123     -0.2863
    171  CB        73.0480   57.3900   -7.9850 C.3   123  THR123      0.1794
    172  OG1       72.0070   58.0360   -8.7410 O.3   123  THR123     -0.2208
    173  CG2       72.5940   57.2040   -6.5350 C.3   123  THR123      0.0378
    174  N         65.5260   72.7360  -11.8300 N.3   173  LYS173     -0.1245
    175  CA        66.5850   71.7710  -12.0900 C.3   173  LYS173      0.1561
    176  C         66.9740   71.9350  -13.5310 C.2   173  LYS173      0.2260
    177  O         68.1400   71.9840  -13.8420 O.2   173  LYS173     -0.2867
    178  CB        66.0970   70.3500  -11.7410 C.3   173  LYS173      0.0271
    179  CG        67.1900   69.2970  -11.6560 C.3   173  LYS173      0.0035
    180  CD        66.8150   68.2690  -10.5770 C.3   173  LYS173      0.0206
    181  CE        67.9630   67.2990  -10.3500 C.3   173  LYS173      0.1093
    182  NZ        69.1400   67.9930   -9.7420 N.3   173  LYS173     -0.1314
    183  N         78.7190   58.5310  -25.6820 N.3   249  LYS249     -0.1245
    184  CA        77.2950   58.2360  -25.5180 C.3   249  LYS249      0.1561
    185  C         76.4730   59.4970  -25.8590 C.2   249  LYS249      0.2260
    186  O         76.9660   60.6260  -25.7660 O.2   249  LYS249     -0.2867
    187  CB        77.0350   57.7610  -24.0710 C.3   249  LYS249      0.0271
    188  CG        75.6780   57.1370  -23.8680 C.3   249  LYS249      0.0035
    189  CD        75.2730   57.1550  -22.3930 C.3   249  LYS249      0.0206
    190  CE        73.7570   56.9420  -22.2240 C.3   249  LYS249      0.1093
    191  NZ        72.9490   57.7840  -23.1840 N.3   249  LYS249     -0.1314
    192  N         71.4700   64.0210  -23.0940 N.3   252  GLU252     -0.1245
    193  CA        70.0930   64.4830  -22.9860 C.3   252  GLU252      0.1567
    194  C         69.9330   65.9420  -23.4100 C.2   252  GLU252      0.2260
    195  O         68.9690   66.5740  -23.0260 O.2   252  GLU252     -0.2867
    196  CB        69.6160   64.3420  -21.5340 C.3   252  GLU252      0.0388
    197  CG        69.0840   62.9260  -21.1450 C.3   252  GLU252      0.1160
    198  CD        68.4540   62.9190  -19.7110 C.2   252  GLU252      0.3649
    199  OE1       69.2100   63.0770  -18.7040 O.co2 252  GLU252     -0.2457
    200  OE2       67.2030   62.7610  -19.5940 O.co2 252  GLU252     -0.2457
@<TRIPOS>BOND
     1   111   108    1
     2   111   112    1
     3   108   107    1
     4   108   109    1
     5   185   186    2
     6   185   184    1
     7   183   184    1
     8   110   109    2
     9   109   113   am
    10   184   187    1
    11   105   104   ar
    12   118   119    1
    13   119   122    1
    14   119   120    1
    15    53    51    1
    16   113   114    1
    17   100    99    1
    18   100   101    1
    19   100   103    1
    20   104   103    1
    21   104   106   ar
    22   187   188    1
    23    52    51    1
    24   188   189    1
    25   121   120    2
    26    51    50    2
    27   102   101    2
    28   194   195    2
    29   194   193    1
    30   114   115    1
    31   114   117    1
    32   191   190    1
    33   192   193    1
    34    75    76    1
    35    75    74    1
    36   193   196    1
    37    50    49    1
    38    76    70    1
    39   115   116    2
    40   189   190    1
    41    49    48    1
    42    67    66    2
    43    74    71    1
    44   196   197    1
    45    70    71    1
    46    93    92    2
    47   197   198    1
    48    68    69    1
    49    68    65    1
    50    48    47    1
    51    66    65    1
    52    71    72    1
    53    92    91    1
    54    47    44    1
    55    94    91    1
    56    94    95    1
    57    72    73    2
    58    96    95    1
    59    96    97    1
    60    65    64    1
    61    44    45    1
    62    44    43    1
    63    89    87    1
    64   198   200   ar
    65   198   199   ar
    66    91    90    1
    67    45    46    2
    68    87    88    1
    69    87    84    1
    70    97    98    1
    71    90    85   am
    72    41    40    2
    73    43    40   am
    74    36    34    1
    75    85    84    1
    76    85    86    2
    77   139   137   am
    78    40    39    1
    79    84    83    1
    80   143   142    2
    81   137   138    2
    82   137   136    1
    83    34    35    1
    84    34    31    1
    85    54    55    1
    86    39    38    1
    87    39    42    1
    88    83    79   am
    89     2     1    1
    90     2     3    1
    91    35    37    1
    92    33    32    2
    93    38    32   am
    94    32    31    1
    95   142   141    1
    96    61    63   ar
    97    61    59   ar
    98    63    62   ar
    99    31    30    1
   100   136   135    1
   101    79    80    2
   102    79    78    1
   103   135   132    1
   104    55    58    1
   105    55    56    1
   106    59    58    1
   107    59    60   ar
   108     3     4    2
   109     3     5   am
   110    62    60   ar
   111    56    57    2
   112   141   144    1
   113   141   140    1
   114   144   145    1
   115     5     6    1
   116   140   133   am
   117    77    78    1
   118    78    81    1
   119     8     7    2
   120   132   133    1
   121   132   131    1
   122   133   134    2
   123    11    10    1
   124    11    12    1
   125     7    10   am
   126     7     6    1
   127     6     9    1
   128   145   147   am
   129   145   146    2
   130   177   176    2
   131   176   175    1
   132    81    82    1
   133   131   125   am
   134   126   125    2
   135    12    14   am
   136    12    13    2
   137    14    15    1
   138   125   124    1
   139   123   124    1
   140   175   174    1
   141   175   178    1
   142    18    15    1
   143   178   179    1
   144   124   127    1
   145   179   180    1
   146    15    16    1
   147    25    23    1
   148    19    16   am
   149    19    20    1
   150    26    27    1
   151    26    21   am
   152    23    24    1
   153    23    20    1
   154    27    28    1
   155   127   128    1
   156   180   181    1
   157    16    17    2
   158   170   169    2
   159   181   182    1
   160    20    21    1
   161    21    22    2
   162    28    29    2
   163   154   152    1
   164   129   128    1
   165   128   130    1
   166   169   168    1
   167   152   153    1
   168   152   149    1
   169   172   171    1
   170   148   149    1
   171   151   150    2
   172   168   171    1
   173   168   167    1
   174   171   173    1
   175   149   150    1
   176   167   164   am
   177   160   159    1
   178   158   157    2
   179   164   163    1
   180   164   165    2
   181   163   166    1
   182   163   162    1
   183   157   162   am
   184   157   156    1
   185   155   156    1
   186   159   156    1
   187   159   161    1
