@<TRIPOS>MOLECULE
tmp/3hwrA02.pdb
 74 68 0 0 0
SMALL
GASTEIGER

@<TRIPOS>ATOM
      1  N         66.3200   64.0830   -6.1480 N.3   120  TYR120     -0.1241
      2  CA        67.4500   64.7630   -5.5170 C.3   120  TYR120      0.1605
      3  C         68.4080   63.6880   -5.0360 C.2   120  TYR120      0.2264
      4  O         68.2180   63.1170   -3.9640 O.2   120  TYR120     -0.2867
      5  CB        67.0060   65.6930   -4.3690 C.3   120  TYR120      0.0534
      6  CG        66.1590   66.8560   -4.8500 C.ar  120  TYR120     -0.0201
      7  CD1       66.6910   67.8400   -5.6830 C.ar  120  TYR120     -0.0009
      8  CD2       64.8250   66.9650   -4.4880 C.ar  120  TYR120     -0.0009
      9  CE1       65.9070   68.9150   -6.1410 C.ar  120  TYR120      0.0417
     10  CE2       64.0320   68.0240   -4.9470 C.ar  120  TYR120      0.0417
     11  CZ        64.5740   68.9980   -5.7650 C.ar  120  TYR120      0.1957
     12  OH        63.7610   70.0360   -6.1940 O.3   120  TYR120     -0.2866
     13  N         59.7260   72.9500   -9.5820 N.3   169  ALA169     -0.1245
     14  CA        60.8950   72.1980   -9.1040 C.3   169  ALA169      0.1562
     15  C         61.6370   71.5820  -10.2970 C.2   169  ALA169      0.2260
     16  O         62.8400   71.6720  -10.4090 O.2   169  ALA169     -0.2867
     17  CB        60.4810   71.1370   -8.1220 C.3   169  ALA169      0.0290
     18  N         63.3550   74.3810  -12.1840 N.3   172  ALA172     -0.1231
     19  CA        64.4960   74.9060  -11.4950 C.3   172  ALA172      0.1694
     20  C         65.7290   74.0560  -11.7960 C.2   172  ALA172      0.2591
     21  O         66.8290   74.5870  -11.9950 O.2   172  ALA172     -0.2718
     22  CB        64.2450   74.9780  -10.0100 C.3   172  ALA172      0.0304
     23  N         65.5260   72.7360  -11.8300 N.am  173  LYS173     -0.1980
     24  CA        66.5850   71.7710  -12.0900 C.3   173  LYS173      0.1596
     25  C         66.9740   71.9350  -13.5310 C.2   173  LYS173      0.2287
     26  O         68.1400   71.9840  -13.8420 O.2   173  LYS173     -0.2864
     27  CB        66.0970   70.3500  -11.7410 C.3   173  LYS173      0.0298
     28  CG        67.1900   69.2970  -11.6560 C.3   173  LYS173      0.0038
     29  CD        66.8150   68.2690  -10.5770 C.3   173  LYS173      0.0206
     30  CE        67.9630   67.2990  -10.3500 C.3   173  LYS173      0.1093
     31  NZ        69.1400   67.9930   -9.7420 N.3   173  LYS173     -0.1314
     32  N         69.2250   75.0760  -13.9610 N.3   176  LEU176     -0.1245
     33  CA        70.5140   74.7600  -13.4240 C.3   176  LEU176      0.1561
     34  C         71.3440   73.9800  -14.4600 C.2   176  LEU176      0.2260
     35  O         72.4600   74.3480  -14.7620 O.2   176  LEU176     -0.2867
     36  CB        70.3690   73.9350  -12.1140 C.3   176  LEU176      0.0270
     37  CG        71.6410   73.3500  -11.4990 C.3   176  LEU176      0.0019
     38  CD1       72.4330   74.4500  -10.8410 C.3   176  LEU176      0.0001
     39  CD2       71.3590   72.2090  -10.4720 C.3   176  LEU176      0.0001
     40  N         61.3830   78.7910   -7.5340 N.3   221  PRO221     -0.2116
     41  CA        61.7680   79.2330   -6.1980 C.3   221  PRO221      0.1372
     42  C         62.3530   80.6660   -6.2460 C.2   221  PRO221      0.2244
     43  O         62.8700   81.1390   -7.2940 O.2   221  PRO221     -0.2868
     44  CB        62.8040   78.1850   -5.7490 C.3   221  PRO221      0.0268
     45  CG        62.6090   77.0210   -6.6260 C.3   221  PRO221      0.0207
     46  CD        62.1020   77.5710   -7.9300 C.3   221  PRO221      0.0892
     47  N         66.2650   81.3150   -6.9790 N.3   224  VAL224     -0.1245
     48  CA        66.7530   80.3050   -7.9190 C.3   224  VAL224      0.1561
     49  C         68.0920   80.7070   -8.6040 C.2   224  VAL224      0.2260
     50  O         68.9530   79.8570   -8.8200 O.2   224  VAL224     -0.2867
     51  CB        65.6180   79.8640   -8.9790 C.3   224  VAL224      0.0252
     52  CG1       65.2020   81.0150   -9.8820 C.3   224  VAL224      0.0019
     53  CG2       66.0820   78.7240   -9.8480 C.3   224  VAL224      0.0019
     54  N         70.9390   80.2960   -6.1480 N.3   227  ALA227     -0.1231
     55  CA        71.1690   78.8670   -5.8570 C.3   227  ALA227      0.1694
     56  C         71.9390   78.2120   -7.0220 C.2   227  ALA227      0.2591
     57  O         72.8220   77.4120   -6.8250 O.2   227  ALA227     -0.2718
     58  CB        69.8320   78.1350   -5.5850 C.3   227  ALA227      0.0304
     59  N         71.6160   78.5860   -8.2390 N.am  228  ILE228     -0.1980
     60  CA        72.3320   78.0790   -9.4140 C.3   228  ILE228      0.1595
     61  C         73.8210   78.5450   -9.4340 C.2   228  ILE228      0.2287
     62  O         74.7240   77.7370   -9.6970 O.2   228  ILE228     -0.2864
     63  CB        71.6430   78.4830  -10.7080 C.3   228  ILE228      0.0276
     64  CG1       70.3380   77.7120  -10.8600 C.3   228  ILE228      0.0022
     65  CG2       72.5450   78.1780  -11.9010 C.3   228  ILE228      0.0022
     66  CD1       69.4120   78.2180  -11.9890 C.3   228  ILE228      0.0001
     67  N         76.1690   76.5950   -7.0580 N.3   231  ILE231     -0.1245
     68  CA        76.5720   75.2290   -7.3790 C.3   231  ILE231      0.1561
     69  C         78.0790   75.1330   -7.7140 C.2   231  ILE231      0.2260
     70  O         78.7080   74.1850   -7.3530 O.2   231  ILE231     -0.2867
     71  CB        75.6380   74.5880   -8.4780 C.3   231  ILE231      0.0252
     72  CG1       74.2830   74.2070   -7.8520 C.3   231  ILE231      0.0019
     73  CG2       76.2740   73.3180   -9.1250 C.3   231  ILE231      0.0019
     74  CD1       74.3730   73.2280   -6.6750 C.3   231  ILE231      0.0001
@<TRIPOS>BOND
     1    35    34    2
     2    34    33    1
     3    32    33    1
     4    26    25    2
     5    25    24    1
     6    33    36    1
     7    18    19    1
     8    36    37    1
     9    24    23    1
    10    24    27    1
    11    21    20    2
    12    66    64    1
    13    65    63    1
    14    23    20   am
    15    20    19    1
    16    27    28    1
    17    28    29    1
    18    37    38    1
    19    37    39    1
    20    19    22    1
    21    64    63    1
    22    63    60    1
    23    29    30    1
    24    16    15    2
    25    30    31    1
    26    15    14    1
    27    52    51    1
    28    53    51    1
    29    62    61    2
    30    13    14    1
    31    61    60    1
    32    60    59    1
    33    73    71    1
    34    14    17    1
    35    51    48    1
    36    50    49    2
    37    49    48    1
    38    71    72    1
    39    71    68    1
    40    59    56   am
    41    46    40    1
    42    46    45    1
    43    48    47    1
    44    72    74    1
    45    69    68    1
    46    69    70    2
    47    40    41    1
    48    68    67    1
    49    43    42    2
    50    56    57    2
    51    56    55    1
    52    45    44    1
    53    42    41    1
    54    41    44    1
    55    12    11    1
    56     1     2    1
    57    54    55    1
    58     9    11   ar
    59     9     7   ar
    60    55    58    1
    61    11    10   ar
    62     7     6   ar
    63     2     3    1
    64     2     5    1
    65     3     4    2
    66    10     8   ar
    67     6     8   ar
    68     6     5    1
