@<TRIPOS>MOLECULE
tmp/3hwrA01.pdb
 109 103 0 0 0
SMALL
GASTEIGER

@<TRIPOS>ATOM
      1  N         64.7180   63.7630  -15.1350 N.3    98  ASN98      -0.1240
      2  CA        64.9570   65.1690  -15.2970 C.3    98  ASN98       0.1653
      3  C         64.3760   65.5360  -16.6400 C.2    98  ASN98       0.2266
      4  O         64.3600   64.7200  -17.5520 O.2    98  ASN98      -0.2867
      5  CB        66.4600   65.5060  -15.2950 C.3    98  ASN98       0.1155
      6  CG        67.0800   65.6180  -13.8580 C.2    98  ASN98       0.2627
      7  OD1       66.3820   65.5710  -12.8340 O.2    98  ASN98      -0.2716
      8  ND2       68.4040   65.8040  -13.8130 N.am   98  ASN98      -0.0877
      9  N         65.5260   72.7360  -11.8300 N.3   173  LYS173     -0.1245
     10  CA        66.5850   71.7710  -12.0900 C.3   173  LYS173      0.1561
     11  C         66.9740   71.9350  -13.5310 C.2   173  LYS173      0.2260
     12  O         68.1400   71.9840  -13.8420 O.2   173  LYS173     -0.2867
     13  CB        66.0970   70.3500  -11.7410 C.3   173  LYS173      0.0271
     14  CG        67.1900   69.2970  -11.6560 C.3   173  LYS173      0.0035
     15  CD        66.8150   68.2690  -10.5770 C.3   173  LYS173      0.0206
     16  CE        67.9630   67.2990  -10.3500 C.3   173  LYS173      0.1093
     17  NZ        69.1400   67.9930   -9.7420 N.3   173  LYS173     -0.1314
     18  N         69.2250   75.0760  -13.9610 N.3   176  LEU176     -0.1231
     19  CA        70.5140   74.7600  -13.4240 C.3   176  LEU176      0.1693
     20  C         71.3440   73.9800  -14.4600 C.2   176  LEU176      0.2592
     21  O         72.4600   74.3480  -14.7620 O.2   176  LEU176     -0.2718
     22  CB        70.3690   73.9350  -12.1140 C.3   176  LEU176      0.0284
     23  CG        71.6410   73.3500  -11.4990 C.3   176  LEU176      0.0019
     24  CD1       72.4330   74.4500  -10.8410 C.3   176  LEU176      0.0001
     25  CD2       71.3590   72.2090  -10.4720 C.3   176  LEU176      0.0001
     26  N         70.7770   72.9210  -15.0190 N.am  177  ASN177     -0.1974
     27  CA        71.4480   72.1080  -16.0670 C.3   177  ASN177      0.1688
     28  C         71.7410   72.9120  -17.3630 C.2   177  ASN177      0.2292
     29  O         72.7090   72.6880  -18.0290 O.2   177  ASN177     -0.2864
     30  CB        70.6040   70.8640  -16.4190 C.3   177  ASN177      0.1181
     31  CG        70.3350   69.8970  -15.2230 C.2   177  ASN177      0.2629
     32  OD1       71.0490   69.8500  -14.2110 O.2   177  ASN177     -0.2716
     33  ND2       69.3060   69.0980  -15.3890 N.am  177  ASN177     -0.0877
     34  N         75.0540   75.0180  -16.5400 N.3   180  TYR180     -0.1227
     35  CA        76.3130   74.2850  -16.4500 C.3   180  TYR180      0.1736
     36  C         76.6480   73.1060  -17.3730 C.2   180  TYR180      0.2595
     37  O         77.8210   72.8910  -17.6560 O.2   180  TYR180     -0.2718
     38  CB        76.4070   73.6900  -15.0600 C.3   180  TYR180      0.0548
     39  CG        76.5550   74.7110  -13.9740 C.ar  180  TYR180     -0.0200
     40  CD1       77.8000   75.2590  -13.6880 C.ar  180  TYR180     -0.0009
     41  CD2       75.4680   75.1210  -13.2180 C.ar  180  TYR180     -0.0009
     42  CE1       77.9570   76.1790  -12.6930 C.ar  180  TYR180      0.0417
     43  CE2       75.6350   76.0480  -12.1760 C.ar  180  TYR180      0.0417
     44  CZ        76.8650   76.5780  -11.9340 C.ar  180  TYR180      0.1957
     45  OH        77.0600   77.5030  -10.9150 O.3   180  TYR180     -0.2866
     46  N         75.6630   72.3480  -17.8410 N.am  181  ASN181     -0.1974
     47  CA        75.9770   71.0540  -18.4670 C.3   181  ASN181      0.1688
     48  C         76.7400   71.0530  -19.7660 C.2   181  ASN181      0.2292
     49  O         77.6940   70.2870  -19.9190 O.2   181  ASN181     -0.2864
     50  CB        74.7200   70.1990  -18.6460 C.3   181  ASN181      0.1181
     51  CG        74.2490   69.5350  -17.3500 C.2   181  ASN181      0.2629
     52  OD1       74.2670   70.1320  -16.2710 O.2   181  ASN181     -0.2716
     53  ND2       73.7870   68.2880  -17.4730 N.am  181  ASN181     -0.0877
     54  N         82.8100   72.4430  -12.7390 N.3   191  TYR191     -0.1241
     55  CA        82.0860   73.6880  -12.4990 C.3   191  TYR191      0.1605
     56  C         82.9110   74.8490  -11.9290 C.2   191  TYR191      0.2264
     57  O         82.6950   76.0070  -12.3260 O.2   191  TYR191     -0.2867
     58  CB        80.8640   73.4650  -11.6300 C.3   191  TYR191      0.0534
     59  CG        79.9260   72.4020  -12.1300 C.ar  191  TYR191     -0.0201
     60  CD1       79.7590   72.1660  -13.4830 C.ar  191  TYR191     -0.0009
     61  CD2       79.1680   71.6600  -11.2380 C.ar  191  TYR191     -0.0009
     62  CE1       78.8660   71.2010  -13.9480 C.ar  191  TYR191      0.0417
     63  CE2       78.3050   70.6760  -11.6810 C.ar  191  TYR191      0.0417
     64  CZ        78.1590   70.4550  -13.0500 C.ar  191  TYR191      0.1957
     65  OH        77.3060   69.4980  -13.5350 O.3   191  TYR191     -0.2866
     66  N         76.1690   76.5950   -7.0580 N.3   231  ILE231     -0.1245
     67  CA        76.5720   75.2290   -7.3790 C.3   231  ILE231      0.1561
     68  C         78.0790   75.1330   -7.7140 C.2   231  ILE231      0.2260
     69  O         78.7080   74.1850   -7.3530 O.2   231  ILE231     -0.2867
     70  CB        75.6380   74.5880   -8.4780 C.3   231  ILE231      0.0252
     71  CG1       74.2830   74.2070   -7.8520 C.3   231  ILE231      0.0019
     72  CG2       76.2740   73.3180   -9.1250 C.3   231  ILE231      0.0019
     73  CD1       74.3730   73.2280   -6.6750 C.3   231  ILE231      0.0001
     74  N         83.1580   68.9300   -9.7440 N.3   237  GLN237     -0.1231
     75  CA        82.1680   68.1500  -10.4710 C.3   237  GLN237      0.1698
     76  C         82.0200   68.5570  -11.9380 C.2   237  GLN237      0.2593
     77  O         81.9540   69.7380  -12.2540 O.2   237  GLN237     -0.2718
     78  CB        80.8160   68.3560   -9.8070 C.3   237  GLN237      0.0381
     79  CG        79.6800   67.5000  -10.3570 C.3   237  GLN237      0.0905
     80  CD        79.8240   66.0460   -9.9940 C.2   237  GLN237      0.2608
     81  OE1       80.0170   65.7130   -8.8290 O.2   237  GLN237     -0.2717
     82  NE2       79.7100   65.1630  -10.9900 N.am  237  GLN237     -0.0878
     83  N         81.9940   67.5630  -12.8220 N.am  238  SER238     -0.1938
     84  CA        81.7390   67.7390  -14.2460 C.3   238  SER238      0.2055
     85  C         80.3340   67.2280  -14.4300 C.2   238  SER238      0.2644
     86  O         79.8590   66.4580  -13.6120 O.2   238  SER238     -0.2714
     87  CB        82.6970   66.9340  -15.1160 C.3   238  SER238      0.2130
     88  OG        83.9560   67.5500  -15.2120 O.3   238  SER238     -0.2179
     89  N         79.6720   67.6510  -15.5080 N.am  239  SER239     -0.1935
     90  CA        78.2910   67.3020  -15.7250 C.3   239  SER239      0.2055
     91  C         78.0650   65.9050  -16.3090 C.2   239  SER239      0.2643
     92  O         78.9620   65.2730  -16.8550 O.2   239  SER239     -0.2714
     93  CB        77.6220   68.3340  -16.6150 C.3   239  SER239      0.2130
     94  OG        78.1360   68.2710  -17.9340 O.3   239  SER239     -0.2179
     95  N         76.8400   65.4310  -16.1410 N.am  240  SER240     -0.1949
     96  CA        76.4280   64.1730  -16.7110 C.3   240  SER240      0.1924
     97  C         76.6360   64.2550  -18.2400 C.2   240  SER240      0.2314
     98  O         77.0870   63.2920  -18.8310 O.2   240  SER240     -0.2863
     99  CB        74.9690   63.9340  -16.3770 C.3   240  SER240      0.2116
    100  OG        74.2040   65.0550  -16.7900 O.3   240  SER240     -0.2180
    101  N         80.2150   63.6540  -19.1190 N.3   243  GLN243     -0.1245
    102  CA        80.5800   62.2480  -18.9710 C.3   243  GLN243      0.1566
    103  C         80.0620   61.4490  -20.1660 C.2   243  GLN243      0.2260
    104  O         80.7190   60.5580  -20.6470 O.2   243  GLN243     -0.2867
    105  CB        80.0790   61.7210  -17.6130 C.3   243  GLN243      0.0367
    106  CG        80.7120   62.4980  -16.3850 C.3   243  GLN243      0.0905
    107  CD        79.8980   62.3930  -15.0710 C.2   243  GLN243      0.2608
    108  OE1       79.2690   61.3650  -14.7970 O.2   243  GLN243     -0.2717
    109  NE2       79.9170   63.4610  -14.2660 N.am  243  GLN243     -0.0878
@<TRIPOS>BOND
     1   104   103    2
     2   103   102    1
     3    49    48    2
     4    48    47    1
     5   101   102    1
     6   102   105    1
     7    98    97    2
     8    50    47    1
     9    50    51    1
    10    47    46    1
    11    97    96    1
    12    29    28    2
    13    94    93    1
    14    46    36   am
    15    37    36    2
    16   105   106    1
    17     4     3    2
    18    53    51   am
    19    36    35    1
    20    28    27    1
    21    51    52    2
    22    92    91    2
    23   100    99    1
    24    96    99    1
    25    96    95    1
    26     3     2    1
    27    93    90    1
    28    34    35    1
    29    35    38    1
    30    30    27    1
    31    30    31    1
    32   106   107    1
    33    91    95   am
    34    91    90    1
    35    27    26    1
    36    90    89    1
    37    89    85   am
    38    33    31   am
    39     2     5    1
    40     2     1    1
    41     5     6    1
    42    31    32    2
    43    88    87    1
    44    87    84    1
    45   107   108    2
    46   107   109   am
    47    38    39    1
    48    26    20   am
    49    21    20    2
    50    20    19    1
    51    85    84    1
    52    85    86    2
    53    84    83    1
    54    39    40   ar
    55    39    41   ar
    56    18    19    1
    57    62    60   ar
    58    62    64   ar
    59     6     8   am
    60     6     7    2
    61    12    11    2
    62    40    42   ar
    63    65    64    1
    64    11    10    1
    65    60    59   ar
    66    19    22    1
    67    41    43   ar
    68    64    63   ar
    69    83    76   am
    70    54    55    1
    71    42    44   ar
    72    55    56    1
    73    55    58    1
    74    57    56    2
    75    77    76    2
    76    43    44   ar
    77    59    58    1
    78    59    61   ar
    79    22    23    1
    80    10     9    1
    81    10    13    1
    82    76    75    1
    83    44    45    1
    84    13    14    1
    85    63    61   ar
    86    14    15    1
    87    23    24    1
    88    23    25    1
    89    82    80   am
    90    15    16    1
    91    75    78    1
    92    75    74    1
    93    79    80    1
    94    79    78    1
    95    16    17    1
    96    80    81    2
    97    72    70    1
    98    70    71    1
    99    70    67    1
   100    71    73    1
   101    68    67    1
   102    68    69    2
   103    67    66    1
