@<TRIPOS>MOLECULE
tmp/3hwsA00.pdb
 130 127 0 0 0
SMALL
GASTEIGER

@<TRIPOS>ATOM
      1  N        -33.6110  -43.8440   83.8150 N.3    15  TYR15      -0.1227
      2  CA       -32.6270  -43.5680   82.7790 C.3    15  TYR15       0.1736
      3  C        -31.2140  -43.4920   83.3410 C.2    15  TYR15       0.2595
      4  O        -30.2380  -43.6850   82.6170 O.2    15  TYR15      -0.2718
      5  CB       -32.9780  -42.2720   82.0510 C.3    15  TYR15       0.0548
      6  CG       -34.2930  -42.3250   81.3060 C.ar   15  TYR15      -0.0200
      7  CD1      -35.4800  -42.6050   81.9710 C.ar   15  TYR15      -0.0009
      8  CD2      -34.3510  -42.0800   79.9410 C.ar   15  TYR15      -0.0009
      9  CE1      -36.6860  -42.6490   81.2940 C.ar   15  TYR15       0.0417
     10  CE2      -35.5520  -42.1200   79.2570 C.ar   15  TYR15       0.0417
     11  CZ       -36.7150  -42.4050   79.9380 C.ar   15  TYR15       0.1957
     12  OH       -37.9110  -42.4450   79.2590 O.3    15  TYR15      -0.2866
     13  N        -31.1050  -43.2180   84.6350 N.am   16  VAL16      -0.1966
     14  CA       -29.8010  -43.0380   85.2530 C.3    16  VAL16       0.1727
     15  C        -29.5980  -43.9840   86.4290 C.2    16  VAL16       0.2616
     16  O        -30.4650  -44.1110   87.2900 O.2    16  VAL16      -0.2715
     17  CB       -29.6120  -41.5880   85.7270 C.3    16  VAL16       0.0290
     18  CG1      -28.2360  -41.4040   86.3500 C.3    16  VAL16       0.0023
     19  CG2      -29.8160  -40.6250   84.5660 C.3    16  VAL16       0.0023
     20  N        -28.4450  -44.6440   86.4580 N.am   17  ILE17      -0.1977
     21  CA       -28.1090  -45.5480   87.5480 C.3    17  ILE17       0.1596
     22  C        -27.3140  -44.8190   88.6270 C.2    17  ILE17       0.2287
     23  O        -26.3230  -44.1520   88.3340 O.2    17  ILE17      -0.2864
     24  CB       -27.2960  -46.7480   87.0460 C.3    17  ILE17       0.0276
     25  CG1      -27.9930  -47.3940   85.8510 C.3    17  ILE17       0.0022
     26  CG2      -27.0990  -47.7610   88.1590 C.3    17  ILE17       0.0022
     27  CD1      -27.3230  -48.6600   85.3750 C.3    17  ILE17       0.0001
     28  N        -17.0690  -36.9390   87.5740 N.3    58  PRO58      -0.2102
     29  CA       -16.0780  -37.5000   86.6490 C.3    58  PRO58       0.1504
     30  C        -16.6620  -37.7220   85.2570 C.2    58  PRO58       0.2576
     31  O        -17.8770  -37.6420   85.0760 O.2    58  PRO58      -0.2718
     32  CB       -15.7260  -38.8480   87.2890 C.3    58  PRO58       0.0282
     33  CG       -16.0830  -38.6950   88.7250 C.3    58  PRO58       0.0208
     34  CD       -17.2950  -37.8190   88.7320 C.3    58  PRO58       0.0893
     35  N        -15.8000  -37.9980   84.2850 N.am   59  THR59      -0.1939
     36  CA       -16.2610  -38.2400   82.9280 C.3    59  THR59       0.2028
     37  C        -17.0690  -39.5310   82.8970 C.2    59  THR59       0.2643
     38  O        -16.7450  -40.4880   83.5970 O.2    59  THR59      -0.2714
     39  CB       -15.0880  -38.3380   81.9460 C.3    59  THR59       0.1808
     40  OG1      -14.1230  -37.3250   82.2550 O.3    59  THR59      -0.2208
     41  CG2      -15.5750  -38.1540   80.5190 C.3    59  THR59       0.0379
     42  N        -18.1280  -39.5470   82.0950 N.am   60  GLY60      -0.1939
     43  CA       -18.9850  -40.7120   81.9920 C.3    60  GLY60       0.2014
     44  C        -19.6200  -41.0950   83.3160 C.2    60  GLY60       0.2640
     45  O        -19.6300  -42.2690   83.6920 O.2    60  GLY60      -0.2714
     46  N        -20.1450  -40.1030   84.0290 N.am   61  SER61      -0.1935
     47  CA       -20.8450  -40.3580   85.2810 C.3    61  SER61       0.2055
     48  C        -22.3520  -40.1610   85.1290 C.2    61  SER61       0.2644
     49  O        -23.1330  -40.7280   85.8880 O.2    61  SER61      -0.2714
     50  CB       -20.2960  -39.4810   86.4070 C.3    61  SER61       0.2130
     51  OG       -20.5430  -38.1100   86.1580 O.3    61  SER61      -0.2179
     52  N        -22.7610  -39.3600   84.1490 N.am   62  GLY62      -0.1939
     53  CA       -24.1750  -39.1850   83.8700 C.3    62  GLY62       0.2014
     54  C        -24.6520  -37.7470   83.7710 C.2    62  GLY62       0.2639
     55  O        -25.8370  -37.5050   83.5440 O.2    62  GLY62      -0.2714
     56  N        -23.7340  -36.7970   83.9370 N.am   63  LYS63      -0.1963
     57  CA       -24.0580  -35.3710   83.8660 C.3    63  LYS63       0.1728
     58  C        -24.9210  -35.0150   82.6530 C.2    63  LYS63       0.2617
     59  O        -25.9870  -34.4140   82.7930 O.2    63  LYS63      -0.2715
     60  CB       -22.7800  -34.5250   83.8380 C.3    63  LYS63       0.0311
     61  CG       -21.8120  -34.7820   84.9840 C.3    63  LYS63       0.0038
     62  CD       -20.7530  -33.6820   85.0700 C.3    63  LYS63       0.0206
     63  CE       -19.7570  -33.7550   83.9230 C.3    63  LYS63       0.1093
     64  NZ       -18.9300  -34.9910   83.9790 N.3    63  LYS63      -0.1314
     65  N        -24.4500  -35.3760   81.4640 N.am   64  THR64      -0.1937
     66  CA       -25.1690  -35.0630   80.2330 C.3    64  THR64       0.2028
     67  C        -26.5210  -35.7590   80.2160 C.2    64  THR64       0.2642
     68  O        -27.5450  -35.1470   79.9110 O.2    64  THR64      -0.2714
     69  CB       -24.3810  -35.4930   78.9810 C.3    64  THR64       0.1808
     70  OG1      -23.0320  -35.0220   79.0720 O.3    64  THR64      -0.2208
     71  CG2      -25.0300  -34.9270   77.7280 C.3    64  THR64       0.0379
     72  N        -26.5170  -37.0430   80.5530 N.am   65  LEU65      -0.1977
     73  CA       -27.7380  -37.8350   80.5380 C.3    65  LEU65       0.1596
     74  C        -28.7990  -37.2240   81.4480 C.2    65  LEU65       0.2287
     75  O        -29.9560  -37.0690   81.0530 O.2    65  LEU65      -0.2864
     76  CB       -27.4460  -39.2750   80.9580 C.3    65  LEU65       0.0297
     77  CG       -28.6290  -40.2370   80.8930 C.3    65  LEU65       0.0022
     78  CD1      -29.1770  -40.2940   79.4820 C.3    65  LEU65       0.0001
     79  CD2      -28.2090  -41.6130   81.3590 C.3    65  LEU65       0.0001
     80  N        -27.5870  -26.9560   78.6540 N.3   120  TYR120     -0.1241
     81  CA       -26.4760  -27.5890   79.3520 C.3   120  TYR120      0.1605
     82  C        -25.1430  -27.1970   78.7290 C.2   120  TYR120      0.2264
     83  O        -24.9080  -27.4350   77.5440 O.2   120  TYR120     -0.2867
     84  CB       -26.6310  -29.1090   79.3380 C.3   120  TYR120      0.0534
     85  CG       -25.4410  -29.8570   79.8950 C.ar  120  TYR120     -0.0201
     86  CD1      -25.2760  -30.0190   81.2640 C.ar  120  TYR120     -0.0009
     87  CD2      -24.4850  -30.4100   79.0520 C.ar  120  TYR120     -0.0009
     88  CE1      -24.1880  -30.7080   81.7780 C.ar  120  TYR120      0.0417
     89  CE2      -23.3960  -31.0990   79.5570 C.ar  120  TYR120      0.0417
     90  CZ       -23.2530  -31.2450   80.9200 C.ar  120  TYR120      0.1957
     91  OH       -22.1730  -31.9300   81.4270 O.3   120  TYR120     -0.2866
     92  N        -19.0980  -43.7830   88.8160 N.3   224  LEU224     -0.1245
     93  CA       -19.9180  -44.9790   88.6470 C.3   224  LEU224      0.1561
     94  C        -19.1500  -46.2320   89.0610 C.2   224  LEU224      0.2260
     95  O        -18.0270  -46.4600   88.6140 O.2   224  LEU224     -0.2867
     96  CB       -20.4220  -45.0980   87.2050 C.3   224  LEU224      0.0270
     97  CG       -21.5710  -44.1620   86.8120 C.3   224  LEU224      0.0019
     98  CD1      -21.7640  -44.1320   85.3040 C.3   224  LEU224      0.0001
     99  CD2      -22.8560  -44.5740   87.5060 C.3   224  LEU224      0.0001
    100  N        -24.9140  -51.0100   82.9770 N.3   232  ILE232     -0.1245
    101  CA       -25.0200  -50.1640   81.7950 C.3   232  ILE232      0.1561
    102  C        -24.6990  -50.9490   80.5250 C.2   232  ILE232      0.2260
    103  O        -25.1900  -50.6280   79.4400 O.2   232  ILE232     -0.2867
    104  CB       -24.0990  -48.9340   81.9130 C.3   232  ILE232      0.0252
    105  CG1      -24.5390  -48.0620   83.0900 C.3   232  ILE232      0.0019
    106  CG2      -24.1060  -48.1300   80.6260 C.3   232  ILE232      0.0019
    107  CD1      -23.6370  -46.8820   83.3470 C.3   232  ILE232      0.0001
    108  N        -29.6940  -51.4830   79.9250 N.3   236  PRO236     -0.2116
    109  CA       -30.3350  -50.5030   79.0430 C.3   236  PRO236      0.1372
    110  C        -30.8640  -51.1460   77.7680 C.2   236  PRO236      0.2244
    111  O        -30.2980  -52.1340   77.2990 O.2   236  PRO236     -0.2868
    112  CB       -29.1970  -49.5370   78.7080 C.3   236  PRO236      0.0268
    113  CG       -28.2670  -49.6420   79.8550 C.3   236  PRO236      0.0207
    114  CD       -28.3270  -51.0760   80.2940 C.3   236  PRO236      0.0892
    115  N        -18.5780  -44.3820   81.6080 N.3   276  ALA276     -0.1231
    116  CA       -19.3680  -45.1320   80.6350 C.3   276  ALA276      0.1694
    117  C        -18.9810  -44.7890   79.1930 C.2   276  ALA276      0.2591
    118  O        -19.1150  -45.6210   78.2940 O.2   276  ALA276     -0.2718
    119  CB       -20.8570  -44.8970   80.8570 C.3   276  ALA276      0.0304
    120  N        -18.5020  -43.5690   78.9700 N.am  277  ARG277     -0.1980
    121  CA       -18.1670  -43.1350   77.6190 C.3   277  ARG277      0.1597
    122  C        -17.0660  -44.0110   77.0420 C.2   277  ARG277      0.2287
    123  O        -17.0080  -44.2480   75.8330 O.2   277  ARG277     -0.2864
    124  CB       -17.7500  -41.6640   77.5990 C.3   277  ARG277      0.0334
    125  CG       -18.9640  -40.8580   78.1270 C.3   277  ARG277      0.0492
    126  CD       -18.6060  -39.3880   78.0380 C.3   277  ARG277      0.2205
    127  NE       -19.6300  -38.6620   78.7800 N.pl3 277  ARG277     -0.0865
    128  CZ       -19.8030  -37.3390   78.8550 C.cat 277  ARG277      0.5346
    129  NH1      -19.0010  -36.4800   78.2410 N.pl3 277  ARG277      0.1354
    130  NH2      -20.8120  -36.8690   79.5920 N.pl3 277  ARG277      0.1354
@<TRIPOS>BOND
     1   123   122    2
     2   122   121    1
     3   111   110    2
     4    83    82    2
     5   124   121    1
     6   124   125    1
     7   121   120    1
     8    71    69    1
     9   110   109    1
    10   126   125    1
    11   126   127    1
    12   129   128    1
    13   118   117    2
    14    80    81    1
    15   112   109    1
    16   112   113    1
    17    82    81    1
    18   127   128    2
    19   128   130    1
    20   120   117   am
    21    69    70    1
    22    69    66    1
    23   109   108    1
    24    87    89   ar
    25    87    85   ar
    26   117   116    1
    27    10    11   ar
    28    10     8   ar
    29    12    11    1
    30    84    81    1
    31    84    85    1
    32   103   102    2
    33    78    77    1
    34    89    90   ar
    35   113   114    1
    36    85    86   ar
    37    68    67    2
    38   108   114    1
    39    11     9   ar
    40     8     6   ar
    41    67    66    1
    42    67    72   am
    43    66    65    1
    44    41    39    1
    45   102   101    1
    46    73    72    1
    47    73    76    1
    48    73    74    1
    49   106   104    1
    50   116   119    1
    51   116   115    1
    52    77    76    1
    53    77    79    1
    54    90    91    1
    55    90    88   ar
    56    75    74    2
    57    86    88   ar
    58     9     7   ar
    59     6     7   ar
    60     6     5    1
    61    65    58   am
    62   101   104    1
    63   101   100    1
    64   104   105    1
    65    39    40    1
    66    39    36    1
    67    43    42    1
    68    43    44    1
    69     5     2    1
    70    42    37   am
    71     4     3    2
    72    58    59    2
    73    58    57    1
    74     2     3    1
    75     2     1    1
    76    37    36    1
    77    37    38    2
    78    36    35    1
    79   105   107    1
    80    44    45    2
    81    44    46   am
    82     3    13   am
    83    55    54    2
    84    54    53    1
    85    54    56   am
    86    60    57    1
    87    60    61    1
    88    57    56    1
    89    53    52    1
    90    63    64    1
    91    63    62    1
    92    46    47    1
    93    52    48   am
    94    35    30   am
    95    19    17    1
    96    13    14    1
    97    61    62    1
    98    31    30    2
    99    48    47    1
   100    48    49    2
   101    14    17    1
   102    14    15    1
   103    30    29    1
   104    47    50    1
   105    98    97    1
   106    27    25    1
   107    17    18    1
   108    25    24    1
   109    51    50    1
   110    15    20   am
   111    15    16    2
   112    20    21    1
   113    29    32    1
   114    29    28    1
   115    97    96    1
   116    97    99    1
   117    24    21    1
   118    24    26    1
   119    96    93    1
   120    32    33    1
   121    21    22    1
   122    28    34    1
   123    23    22    2
   124    95    94    2
   125    93    92    1
   126    93    94    1
   127    33    34    1
