@<TRIPOS>MOLECULE
tmp/3hwwA00.pdb
 95 87 0 0 0
SMALL
GASTEIGER

@<TRIPOS>ATOM
      1  N        -54.7460    3.8610   16.6580 N.3   369  GLU369     -0.1245
      2  CA       -53.9630    2.7570   16.1230 C.3   369  GLU369      0.1567
      3  C        -54.4070    1.3610   16.5830 C.2   369  GLU369      0.2260
      4  O        -54.5940    0.4540   15.7730 O.2   369  GLU369     -0.2867
      5  CB       -52.4910    3.0060   16.5450 C.3   369  GLU369      0.0388
      6  CG       -51.4910    2.0530   15.9710 C.3   369  GLU369      0.1160
      7  CD       -50.0620    2.6090   15.9410 C.2   369  GLU369      0.3649
      8  OE1      -49.1600    1.8660   15.5160 O.co2 369  GLU369     -0.2457
      9  OE2      -49.8300    3.7740   16.3170 O.co2 369  GLU369     -0.2457
     10  N        -44.0060   -3.8490    8.7650 N.3   390  ASN390     -0.1225
     11  CA       -43.1860   -4.1670    9.9280 C.3   390  ASN390      0.1785
     12  C        -43.2820   -3.1450   11.0430 C.2   390  ASN390      0.2598
     13  O        -42.2750   -2.5750   11.4210 O.2   390  ASN390     -0.2718
     14  CB       -41.7450   -4.4380    9.4580 C.3   390  ASN390      0.1169
     15  CG       -41.6890   -5.6880    8.5580 C.2   390  ASN390      0.2627
     16  OD1      -42.4340   -6.6550    8.8330 O.2   390  ASN390     -0.2716
     17  ND2      -40.8870   -5.6680    7.4670 N.am  390  ASN390     -0.0877
     18  N        -44.4880   -2.9390   11.5790 N.am  391  SER391     -0.1938
     19  CA       -44.7730   -1.7730   12.4240 C.3   391  SER391      0.2055
     20  C        -45.4100   -2.1790   13.7260 C.2   391  SER391      0.2642
     21  O        -45.6600   -3.3770   13.9320 O.2   391  SER391     -0.2714
     22  CB       -45.7030   -0.7980   11.7070 C.3   391  SER391      0.2130
     23  OG       -44.9780    0.0290   10.8200 O.3   391  SER391     -0.2179
     24  N        -45.6690   -1.2090   14.6120 N.am  392  LEU392     -0.1977
     25  CA       -46.3830   -1.5280   15.8580 C.3   392  LEU392      0.1596
     26  C        -47.7490   -2.0560   15.4870 C.2   392  LEU392      0.2287
     27  O        -48.2370   -3.0410   16.0660 O.2   392  LEU392     -0.2864
     28  CB       -46.6100   -0.3040   16.7450 C.3   392  LEU392      0.0297
     29  CG       -46.5300   -0.5260   18.2620 C.3   392  LEU392      0.0022
     30  CD1      -47.0450    0.7320   18.9900 C.3   392  LEU392      0.0001
     31  CD2      -47.1720   -1.7830   18.8640 C.3   392  LEU392      0.0001
     32  N        -48.0540   -5.7030   15.0500 N.3   395  ARG395     -0.1245
     33  CA       -48.1220   -6.3850   16.3270 C.3   395  ARG395      0.1563
     34  C        -49.4980   -6.1450   16.9860 C.2   395  ARG395      0.2260
     35  O        -50.0790   -7.0400   17.5840 O.2   395  ARG395     -0.2867
     36  CB       -47.0100   -5.9180   17.2500 C.3   395  ARG395      0.0307
     37  CG       -45.5990   -6.4160   16.8490 C.3   395  ARG395      0.0489
     38  CD       -44.5860   -6.0900   17.9530 C.3   395  ARG395      0.2205
     39  NE       -44.2490   -4.6700   17.9610 N.pl3 395  ARG395     -0.0865
     40  CZ       -43.6760   -4.0320   16.9350 C.cat 395  ARG395      0.5346
     41  NH1      -43.3900   -4.6810   15.8110 N.pl3 395  ARG395      0.1354
     42  NH2      -43.3810   -2.7370   17.0210 N.pl3 395  ARG395      0.1354
     43  N        -37.6770   -2.4240    6.3910 N.3   418  ILE418     -0.1245
     44  CA       -38.7970   -1.5120    6.1670 C.3   418  ILE418      0.1561
     45  C        -38.5040   -0.7470    4.8890 C.2   418  ILE418      0.2260
     46  O        -39.1150    0.2980    4.5770 O.2   418  ILE418     -0.2867
     47  CB       -39.1070   -0.5880    7.3960 C.3   418  ILE418      0.0252
     48  CG1      -37.9590    0.3490    7.6920 C.3   418  ILE418      0.0019
     49  CG2      -39.3950   -1.3910    8.6820 C.3   418  ILE418      0.0019
     50  CD1      -38.4890    1.6470    8.3810 C.3   418  ILE418      0.0001
     51  N        -46.3130    1.7830    8.1740 N.3   441  GLY441     -0.1210
     52  CA       -46.1050    3.0010    8.9620 C.3   441  GLY441      0.1956
     53  C        -45.5910    4.1040    8.0560 C.2   441  GLY441      0.2612
     54  O        -45.2610    3.8560    6.9270 O.2   441  GLY441     -0.2717
     55  N        -45.4910    5.3400    8.5380 N.am  442  ASP442     -0.1959
     56  CA       -44.9920    6.4430    7.6880 C.3   442  ASP442      0.1840
     57  C        -43.5210    6.2850    7.3170 C.2   442  ASP442      0.2622
     58  O        -43.1580    6.6790    6.2640 O.2   442  ASP442     -0.2715
     59  CB       -45.1630    7.8210    8.3710 C.3   442  ASP442      0.1450
     60  CG       -44.5240    7.8680    9.7840 C.2   442  ASP442      0.3671
     61  OD1      -45.0750    7.2620   10.7320 O.co2 442  ASP442     -0.2456
     62  OD2      -43.4640    8.4830    9.9350 O.co2 442  ASP442     -0.2456
     63  N        -42.6470    5.7890    8.1680 N.am  443  LEU443     -0.1963
     64  CA       -41.2640    5.6740    7.7170 C.3   443  LEU443      0.1728
     65  C        -41.1060    4.7090    6.5770 C.2   443  LEU443      0.2616
     66  O        -40.2970    4.9310    5.7100 O.2   443  LEU443     -0.2715
     67  CB       -40.2950    5.2530    8.8270 C.3   443  LEU443      0.0311
     68  CG       -39.7980    6.2700    9.8650 C.3   443  LEU443      0.0022
     69  CD1      -38.7790    5.5160   10.7980 C.3   443  LEU443      0.0001
     70  CD2      -39.2220    7.5910    9.3110 C.3   443  LEU443      0.0001
     71  N        -41.8990    3.6470    6.5510 N.am  444  SER444     -0.1950
     72  CA       -41.8030    2.6350    5.4830 C.3   444  SER444      0.1924
     73  C        -42.2570    3.2210    4.1570 C.2   444  SER444      0.2314
     74  O        -41.7630    2.8610    3.0840 O.2   444  SER444     -0.2863
     75  CB       -42.6720    1.4710    5.8230 C.3   444  SER444      0.2116
     76  OG       -42.3730    0.9920    7.1250 O.3   444  SER444     -0.2180
     77  N        -50.1310    4.4490    8.5610 N.3   467  VAL467     -0.1301
     78  CA       -50.2340    4.8910    9.9330 C.3   467  VAL467      0.1246
     79  C        -49.0870    5.8660   10.2390 C.3   467  VAL467      0.2009
     80  O        -47.5570    5.4250   10.4750 O.3   467  VAL467     -0.2188
     81  CB       -50.3020    3.6870   10.8680 C.3   467  VAL467      0.0202
     82  CG1      -50.3690    4.1440   12.3500 C.3   467  VAL467      0.0016
     83  CG2      -51.4860    2.7500   10.4870 C.3   467  VAL467      0.0016
     84  N        -47.3460    8.4400   12.6400 N.3   469  ASN469     -0.1240
     85  CA       -47.0920    9.1090   13.9340 C.3   469  ASN469      0.1653
     86  C        -45.8820   10.0540   13.9810 C.2   469  ASN469      0.2266
     87  O        -45.3790   10.3580   15.0740 O.2   469  ASN469     -0.2867
     88  CB       -47.0070    8.0900   15.0560 C.3   469  ASN469      0.1155
     89  CG       -45.9160    7.0990   14.8450 C.2   469  ASN469      0.2627
     90  OD1      -44.8730    7.4330   14.2810 O.2   469  ASN469     -0.2716
     91  ND2      -46.1340    5.8590   15.2950 N.am  469  ASN469     -0.0877
     92  N        -42.3770   10.7850   13.1440 N.3   471  GLY471     -0.1225
     93  CA       -42.7730    9.4680   12.6660 C.3   471  GLY471      0.1811
     94  C        -42.3230    8.3960   13.6440 C.2   471  GLY471      0.2280
     95  O        -42.2990    7.4990   13.3170 O.2   471  GLY471     -0.2866
@<TRIPOS>BOND
     1    74    73    2
     2    73    72    1
     3    46    45    2
     4    45    44    1
     5    72    75    1
     6    72    71    1
     7    66    65    2
     8    75    76    1
     9    44    43    1
    10    44    47    1
    11    58    57    2
    12    71    65   am
    13    65    64    1
    14    54    53    2
    15    57    56    1
    16    57    63   am
    17    47    48    1
    18    47    49    1
    19    17    15   am
    20    56    59    1
    21    56    55    1
    22    48    50    1
    23    64    63    1
    24    64    67    1
    25    53    55   am
    26    53    52    1
    27    51    52    1
    28    59    60    1
    29    15    16    2
    30    15    14    1
    31    77    78    1
    32    10    11    1
    33    67    68    1
    34    70    68    1
    35    14    11    1
    36    60    62   ar
    37    60    61   ar
    38    68    69    1
    39    11    12    1
    40    78    79    1
    41    78    81    1
    42    79    80    1
    43    83    81    1
    44    23    22    1
    45    81    82    1
    46    12    13    2
    47    12    18   am
    48    18    19    1
    49    22    19    1
    50    19    20    1
    51    84    85    1
    52    93    92    1
    53    93    94    1
    54    95    94    2
    55    20    21    2
    56    20    24   am
    57    85    86    1
    58    85    88    1
    59    86    87    2
    60    90    89    2
    61    24    25    1
    62    89    88    1
    63    89    91   am
    64    32    33    1
    65    26    25    1
    66    26    27    2
    67     8     7   ar
    68     4     3    2
    69    41    40    1
    70    25    28    1
    71     7     6    1
    72     7     9   ar
    73     6     5    1
    74     2     5    1
    75     2     3    1
    76     2     1    1
    77    33    34    1
    78    33    36    1
    79    28    29    1
    80    37    36    1
    81    37    38    1
    82    40    42    1
    83    40    39    2
    84    34    35    2
    85    38    39    1
    86    29    31    1
    87    29    30    1
