@<TRIPOS>MOLECULE
tmp/3hwwB00.pdb
 98 91 0 0 0
SMALL
GASTEIGER

@<TRIPOS>ATOM
      1  N        -32.4760   21.7570  -23.3320 N.3   366  GLU366     -0.1245
      2  CA       -31.4190   21.0690  -22.5960 C.3   366  GLU366      0.1567
      3  C        -29.9980   21.5370  -23.0130 C.2   366  GLU366      0.2260
      4  O        -29.1380   21.8310  -22.1740 O.2   366  GLU366     -0.2867
      5  CB       -31.5630   19.5840  -22.8780 C.3   366  GLU366      0.0388
      6  CG       -30.7640   18.6950  -22.0150 C.3   366  GLU366      0.1160
      7  CD       -31.2110   17.2580  -22.1210 C.2   366  GLU366      0.3649
      8  OE1      -30.6860   16.4420  -21.3340 O.co2 366  GLU366     -0.2457
      9  OE2      -32.0880   16.9400  -22.9800 O.co2 366  GLU366     -0.2457
     10  N        -25.4120   12.1170  -13.5730 N.3   387  ASN387     -0.1225
     11  CA       -24.8830   11.1520  -14.5370 C.3   387  ASN387      0.1785
     12  C        -25.8890   11.0390  -15.6700 C.2   387  ASN387      0.2598
     13  O        -26.5860   10.0220  -15.7940 O.2   387  ASN387     -0.2718
     14  CB       -24.6810    9.7920  -13.8290 C.3   387  ASN387      0.1169
     15  CG       -23.6320    9.8980  -12.6990 C.2   387  ASN387      0.2627
     16  OD1      -22.5960   10.5420  -12.9150 O.2   387  ASN387     -0.2716
     17  ND2      -23.9020    9.3190  -11.5030 N.am  387  ASN387     -0.0877
     18  N        -25.9450   12.0820  -16.5000 N.am  388  SER388     -0.1938
     19  CA       -27.1540   12.4050  -17.2570 C.3   388  SER388      0.2055
     20  C        -26.7540   13.0470  -18.5570 C.2   388  SER388      0.2643
     21  O        -25.6810   13.6760  -18.6140 O.2   388  SER388     -0.2714
     22  CB       -27.9190   13.4750  -16.4780 C.3   388  SER388      0.2130
     23  OG       -29.3060   13.1970  -16.4740 O.3   388  SER388     -0.2179
     24  N        -27.6110   12.9670  -19.5830 N.am  389  LEU389     -0.1963
     25  CA       -27.2650   13.6030  -20.8750 C.3   389  LEU389      0.1728
     26  C        -26.8230   15.0520  -20.6520 C.2   389  LEU389      0.2616
     27  O        -25.8040   15.4810  -21.1750 O.2   389  LEU389     -0.2715
     28  CB       -28.4500   13.5750  -21.8440 C.3   389  LEU389      0.0311
     29  CG       -28.3050   13.7960  -23.3710 C.3   389  LEU389      0.0022
     30  CD1      -29.4630   14.6200  -23.8850 C.3   389  LEU389      0.0001
     31  CD2      -27.0520   14.4560  -23.7670 C.3   389  LEU389      0.0001
     32  N        -27.5840   15.7670  -19.8310 N.am  390  VAL390     -0.1977
     33  CA       -27.3610   17.2010  -19.5580 C.3   390  VAL390      0.1596
     34  C        -25.9100   17.5430  -19.1180 C.2   390  VAL390      0.2287
     35  O        -25.3540   18.6030  -19.5020 O.2   390  VAL390     -0.2864
     36  CB       -28.4620   17.7850  -18.5910 C.3   390  VAL390      0.0276
     37  CG1      -28.3190   17.1990  -17.1740 C.3   390  VAL390      0.0022
     38  CG2      -28.4300   19.3050  -18.5730 C.3   390  VAL390      0.0022
     39  N        -22.9760   15.3090  -19.7830 N.3   392  ARG392     -0.1245
     40  CA       -22.3170   15.2360  -21.1160 C.3   392  ARG392      0.1563
     41  C        -22.4320   16.5690  -21.9340 C.2   392  ARG392      0.2260
     42  O        -21.4540   17.0050  -22.5080 O.2   392  ARG392     -0.2867
     43  CB       -22.8450   14.0680  -21.9340 C.3   392  ARG392      0.0307
     44  CG       -22.0450   12.7670  -21.6970 C.3   392  ARG392      0.0489
     45  CD       -22.8150   11.5460  -22.1860 C.3   392  ARG392      0.2205
     46  NE       -23.6330   11.0200  -21.0980 N.pl3 392  ARG392     -0.0865
     47  CZ       -24.9430   10.7440  -21.1690 C.cat 392  ARG392      0.5346
     48  NH1      -25.6390   10.9290  -22.2900 N.pl3 392  ARG392      0.1354
     49  NH2      -25.5580   10.2620  -20.0920 N.pl3 392  ARG392      0.1354
     50  N        -27.2920    6.0590  -10.8780 N.3   415  ILE415     -0.1245
     51  CA       -28.2360    7.1510  -10.7590 C.3   415  ILE415      0.1561
     52  C        -28.9920    7.0700   -9.4330 C.2   415  ILE415      0.2260
     53  O        -29.9640    7.7940   -9.2070 O.2   415  ILE415     -0.2867
     54  CB       -29.1110    7.2540  -12.0330 C.3   415  ILE415      0.0252
     55  CG1      -30.0220    6.0520  -12.1680 C.3   415  ILE415      0.0019
     56  CG2      -28.2010    7.3150  -13.2650 C.3   415  ILE415      0.0019
     57  CD1      -31.1210    6.2370  -13.2030 C.3   415  ILE415      0.0001
     58  N        -31.2730   14.6050  -13.6010 N.3   438  GLY438     -0.1210
     59  CA       -32.3430   14.2270  -14.4880 C.3   438  GLY438      0.1956
     60  C        -33.5390   13.7770  -13.6940 C.2   438  GLY438      0.2612
     61  O        -33.4110   13.5260  -12.4980 O.2   438  GLY438     -0.2717
     62  N        -34.7010   13.6610  -14.3440 N.am  439  ASP439     -0.1959
     63  CA       -35.9440   13.3210  -13.6580 C.3   439  ASP439      0.1840
     64  C        -35.8030   11.9580  -13.0600 C.2   439  ASP439      0.2622
     65  O        -36.1900   11.7600  -11.9460 O.2   439  ASP439     -0.2715
     66  CB       -37.2000   13.3370  -14.5780 C.3   439  ASP439      0.1450
     67  CG       -36.9690   12.6520  -15.9440 C.2   439  ASP439      0.3671
     68  OD1      -36.2070   13.1880  -16.7410 O.co2 439  ASP439     -0.2456
     69  OD2      -37.5220   11.5530  -16.2480 O.co2 439  ASP439     -0.2456
     70  N        -35.2590   11.0110  -13.8000 N.am  440  LEU440     -0.1963
     71  CA       -35.1430    9.6390  -13.3090 C.3   440  LEU440      0.1728
     72  C        -34.2360    9.5120  -12.0750 C.2   440  LEU440      0.2616
     73  O        -34.5030    8.7040  -11.1750 O.2   440  LEU440     -0.2715
     74  CB       -34.6330    8.7090  -14.4130 C.3   440  LEU440      0.0311
     75  CG       -35.5370    7.7460  -15.1730 C.3   440  LEU440      0.0022
     76  CD1      -35.1130    6.3520  -14.7910 C.3   440  LEU440      0.0001
     77  CD2      -37.0770    7.9640  -15.0250 C.3   440  LEU440      0.0001
     78  N        -33.1850   10.3180  -12.0340 N.am  441  SER441     -0.1950
     79  CA       -32.3240   10.4000  -10.8660 C.3   441  SER441      0.1924
     80  C        -33.0940   10.9820   -9.6590 C.2   441  SER441      0.2314
     81  O        -33.0430   10.4550   -8.5180 O.2   441  SER441     -0.2863
     82  CB       -31.1630   11.3390  -11.1720 C.3   441  SER441      0.2116
     83  OG       -30.2940   10.7460  -12.1140 O.3   441  SER441     -0.2180
     84  N        -33.8990   18.2290  -14.5840 N.3   464  VAL464     -0.1301
     85  CA       -34.0120   18.2120  -16.0590 C.3   464  VAL464      0.1246
     86  C        -34.9010   16.9940  -16.5500 C.3   464  VAL464      0.2009
     87  O        -34.4640   15.4250  -16.6530 O.3   464  VAL464     -0.2188
     88  CB       -32.6590   18.0850  -16.6760 C.3   464  VAL464      0.0202
     89  CG1      -32.7420   18.0960  -18.2030 C.3   464  VAL464      0.0016
     90  CG2      -31.8370   19.2500  -16.2010 C.3   464  VAL464      0.0016
     91  N        -37.1770   15.0630  -19.0960 N.3   466  ASN466     -0.1240
     92  CA       -37.5050   14.7780  -20.5010 C.3   466  ASN466      0.1653
     93  C        -38.4800   13.6180  -20.5960 C.2   466  ASN466      0.2266
     94  O        -38.4500   12.8540  -21.5530 O.2   466  ASN466     -0.2867
     95  CB       -36.2380   14.5020  -21.3210 C.3   466  ASN466      0.1155
     96  CG       -35.4710   13.2920  -20.8190 C.2   466  ASN466      0.2627
     97  OD1      -36.0480   12.2340  -20.5700 O.2   466  ASN466     -0.2716
     98  ND2      -34.1590   13.4460  -20.6560 N.am  466  ASN466     -0.0877
@<TRIPOS>BOND
     1    30    29    1
     2    31    29    1
     3    29    28    1
     4     1     2    1
     5     3     2    1
     6     3     4    2
     7     9     7   ar
     8     5     2    1
     9     5     6    1
    10    42    41    2
    11    48    47    1
    12    45    44    1
    13    45    46    1
    14     7     6    1
    15     7     8   ar
    16    41    40    1
    17    43    44    1
    18    43    40    1
    19    28    25    1
    20    94    93    2
    21    95    96    1
    22    95    92    1
    23    27    26    2
    24    47    46    2
    25    47    49    1
    26    40    39    1
    27    25    26    1
    28    25    24    1
    29    96    98   am
    30    96    97    2
    31    26    32   am
    32    93    92    1
    33    92    91    1
    34    32    33    1
    35    24    20   am
    36    33    34    1
    37    33    36    1
    38    35    34    2
    39    21    20    2
    40    36    38    1
    41    36    37    1
    42    20    19    1
    43    89    88    1
    44    19    18    1
    45    19    22    1
    46    68    67   ar
    47    88    90    1
    48    88    85    1
    49    87    86    1
    50    86    85    1
    51    18    12   am
    52    22    23    1
    53    69    67   ar
    54    85    84    1
    55    67    66    1
    56    13    12    2
    57    12    11    1
    58    75    77    1
    59    75    76    1
    60    75    74    1
    61    66    63    1
    62    11    14    1
    63    11    10    1
    64    59    60    1
    65    59    58    1
    66    74    71    1
    67    62    60   am
    68    62    63    1
    69    14    15    1
    70    70    71    1
    71    70    64   am
    72    60    61    2
    73    63    64    1
    74    71    72    1
    75    56    54    1
    76    57    55    1
    77    64    65    2
    78    16    15    2
    79    15    17   am
    80    55    54    1
    81    83    82    1
    82    72    78   am
    83    72    73    2
    84    78    79    1
    85    54    51    1
    86    82    79    1
    87    50    51    1
    88    79    80    1
    89    51    52    1
    90    80    81    2
    91    52    53    2
