@<TRIPOS>MOLECULE
tmp/3hwxB00.pdb
 73 68 0 0 0
SMALL
GASTEIGER

@<TRIPOS>ATOM
      1  N         14.5570   -4.7000    0.6470 N.3    30  PRO30      -0.2102
      2  CA        15.7640   -3.9390    0.4080 C.3    30  PRO30       0.1504
      3  C         15.7610   -2.5940    1.0680 C.2    30  PRO30       0.2576
      4  O         14.6810   -2.0420    1.3730 O.2    30  PRO30      -0.2718
      5  CB        15.7360   -3.7020   -1.1070 C.3    30  PRO30       0.0282
      6  CG        14.4180   -4.1270   -1.5610 C.3    30  PRO30       0.0208
      7  CD        13.9540   -5.1460   -0.6140 C.3    30  PRO30       0.0893
      8  N         16.9290   -2.0200    1.2460 N.am   31  GLY31      -0.1957
      9  CA        17.0660   -0.6740    1.7380 C.3    31  GLY31       0.1869
     10  C         18.4410   -0.3400    2.2060 C.2    31  GLY31       0.2309
     11  O         19.1930   -1.1880    2.3820 O.2    31  GLY31      -0.2863
     12  N         10.1550   -7.6840   -2.6210 N.3    53  PHE53      -0.1241
     13  CA        10.5060   -6.3370   -3.1210 C.3    53  PHE53       0.1605
     14  C          9.3890   -5.3410   -2.7960 C.2    53  PHE53       0.2264
     15  O          9.6210   -4.1240   -2.7470 O.2    53  PHE53      -0.2867
     16  CB        10.7980   -6.3230   -4.6500 C.3    53  PHE53       0.0534
     17  CG         9.7240   -6.9840   -5.4660 C.ar   53  PHE53      -0.0203
     18  CD1        8.4970   -6.3640   -5.6660 C.ar   53  PHE53      -0.0042
     19  CD2        9.9100   -8.2800   -5.9790 C.ar   53  PHE53      -0.0042
     20  CE1        7.4740   -7.0270   -6.3540 C.ar   53  PHE53      -0.0003
     21  CE2        8.9040   -8.9390   -6.6770 C.ar   53  PHE53      -0.0003
     22  CZ         7.6860   -8.3150   -6.8710 C.ar   53  PHE53      -0.0000
     23  N          6.6880   -3.8650   -0.2060 N.3    55  GLU55      -0.1245
     24  CA         6.5630   -3.7880    1.2580 C.3    55  GLU55       0.1567
     25  C          5.1490   -4.0190    1.7870 C.2    55  GLU55       0.2260
     26  O          4.9570   -4.3520    2.9640 O.2    55  GLU55      -0.2867
     27  CB         7.1590   -2.4870    1.7890 C.3    55  GLU55       0.0388
     28  CG         8.6840   -2.5180    1.8600 C.3    55  GLU55       0.1160
     29  CD         9.3470   -1.6860    0.7640 C.2    55  GLU55       0.3649
     30  OE1        8.6590   -0.9140    0.0640 O.co2  55  GLU55      -0.2457
     31  OE2       10.5830   -1.7760    0.6320 O.co2  55  GLU55      -0.2457
     32  N         12.9740   -0.1280    5.1090 N.3    78  THR78      -0.1203
     33  CA        13.7090    1.1110    5.1580 C.3    78  THR78       0.1994
     34  C         12.7350    2.2920    5.3530 C.2    78  THR78       0.2618
     35  O         11.4940    2.1240    5.3000 O.2    78  THR78      -0.2717
     36  CB        14.6140    1.2570    3.9140 C.3    78  THR78       0.1784
     37  OG1       15.2810    2.5150    3.9370 O.3    78  THR78      -0.2211
     38  CG2       13.8100    1.1660    2.6350 C.3    78  THR78       0.0376
     39  N         13.3220    3.4760    5.5780 N.am   79  SER79      -0.1951
     40  CA        12.5860    4.6850    5.8470 C.3    79  SER79       0.1924
     41  C         11.9090    5.1460    4.5610 C.2    79  SER79       0.2314
     42  O         12.3290    4.7580    3.4660 O.2    79  SER79      -0.2863
     43  CB        13.5220    5.7550    6.3680 C.3    79  SER79       0.2116
     44  OG        14.1670    6.4050    5.2800 O.3    79  SER79      -0.2180
     45  N          8.1540    5.7640    2.2410 N.3    81  THR81      -0.1203
     46  CA         6.8850    5.1690    1.8540 C.3    81  THR81       0.1994
     47  C          6.9310    3.6460    2.0020 C.2    81  THR81       0.2617
     48  O          5.8810    2.9810    2.0960 O.2    81  THR81      -0.2717
     49  CB         6.5050    5.4980    0.3820 C.3    81  THR81       0.1784
     50  OG1        7.4790    4.9500   -0.5130 O.3    81  THR81      -0.2211
     51  CG2        6.4010    7.0080    0.1640 C.3    81  THR81       0.0376
     52  N          8.1360    3.0770    2.0210 N.am   82  ALA82      -0.1979
     53  CA         8.2900    1.6870    2.4430 C.3    82  ALA82       0.1597
     54  C          7.5690    1.4260    3.7970 C.2    82  ALA82       0.2287
     55  O          6.9420    0.3800    3.9720 O.2    82  ALA82      -0.2864
     56  CB         9.7410    1.3380    2.5440 C.3    82  ALA82       0.0319
     57  N          3.7370    1.4710    3.3930 N.3    85  ASN85      -0.1240
     58  CA         3.2150    0.2540    2.7410 C.3    85  ASN85       0.1653
     59  C          2.9510   -0.9400    3.7050 C.2    85  ASN85       0.2266
     60  O          2.4580   -1.9900    3.2630 O.2    85  ASN85      -0.2867
     61  CB         4.1700   -0.2140    1.6560 C.3    85  ASN85       0.1155
     62  CG         3.9560    0.4920    0.3310 C.2    85  ASN85       0.2627
     63  OD1        3.3250   -0.0570   -0.5470 O.2    85  ASN85      -0.2716
     64  ND2        4.5160    1.6750    0.1640 N.am   85  ASN85      -0.0877
     65  N         14.2040   11.0770    1.0800 N.3   118  GLN118     -0.1245
     66  CA        13.7070    9.8640    1.7380 C.3   118  GLN118      0.1566
     67  C         13.5660   10.0120    3.2960 C.2   118  GLN118      0.2260
     68  O         13.8940    9.0840    4.0710 O.2   118  GLN118     -0.2867
     69  CB        14.5570    8.6610    1.2800 C.3   118  GLN118      0.0367
     70  CG        13.8700    7.3170    1.3720 C.3   118  GLN118      0.0905
     71  CD        14.7950    6.1910    1.0020 C.2   118  GLN118      0.2608
     72  OE1       15.6140    6.3340    0.1150 O.2   118  GLN118     -0.2717
     73  NE2       14.6760    5.0610    1.6830 N.am  118  GLN118     -0.0878
@<TRIPOS>BOND
     1    22    21   ar
     2    22    20   ar
     3    21    19   ar
     4    20    18   ar
     5    19    17   ar
     6    18    17   ar
     7    17    16    1
     8    16    13    1
     9    13    14    1
    10    13    12    1
    11    14    15    2
    12     6     5    1
    13     6     7    1
    14     5     2    1
    15     7     1    1
    16    63    62    2
    17    50    49    1
    18    23    24    1
    19    30    29   ar
    20    72    71    2
    21    64    62   am
    22    51    49    1
    23    62    61    1
    24    49    46    1
    25     2     1    1
    26     2     3    1
    27    31    29   ar
    28    29    28    1
    29    71    70    1
    30    71    73   am
    31     3     8   am
    32     3     4    2
    33    65    66    1
    34     8     9    1
    35    24    25    1
    36    24    27    1
    37    69    70    1
    38    69    66    1
    39    61    58    1
    40     9    10    1
    41    66    67    1
    42    25    26    2
    43    27    28    1
    44    46    47    1
    45    46    45    1
    46    47    52   am
    47    47    48    2
    48    52    53    1
    49    10    11    2
    50    53    56    1
    51    53    54    1
    52    38    36    1
    53    58    57    1
    54    58    59    1
    55    60    59    2
    56    67    68    2
    57    42    41    2
    58    54    55    2
    59    36    37    1
    60    36    33    1
    61    41    40    1
    62    32    33    1
    63    33    34    1
    64    44    43    1
    65    35    34    2
    66    34    39   am
    67    39    40    1
    68    40    43    1
