@<TRIPOS>MOLECULE
tmp/3hwxB01.pdb
 162 156 0 0 0
SMALL
GASTEIGER

@<TRIPOS>ATOM
      1  N        -19.1770  -20.4960  -10.2640 N.3   369  GLU369     -0.1245
      2  CA       -18.5090  -20.2700   -8.9900 C.3   369  GLU369      0.1567
      3  C        -19.3120  -20.6780   -7.7440 C.2   369  GLU369      0.2260
      4  O        -18.7650  -21.1500   -6.7420 O.2   369  GLU369     -0.2867
      5  CB       -17.9930  -18.8280   -8.9160 C.3   369  GLU369      0.0388
      6  CG       -18.9900  -17.6950   -8.7810 C.3   369  GLU369      0.1160
      7  CD       -18.2820  -16.3080   -8.6360 C.2   369  GLU369      0.3649
      8  OE1      -17.4410  -16.1850   -7.7100 O.co2 369  GLU369     -0.2457
      9  OE2      -18.5550  -15.3520   -9.4290 O.co2 369  GLU369     -0.2457
     10  N        -11.5170  -12.9530   -0.1340 N.3   390  ASN390     -0.1225
     11  CA       -12.6270  -12.0740    0.2310 C.3   390  ASN390      0.1785
     12  C        -13.7290  -12.0930   -0.8140 C.2   390  ASN390      0.2598
     13  O        -13.7540  -13.0080   -1.6590 O.2   390  ASN390     -0.2718
     14  CB       -12.0630  -10.7730    0.7940 C.3   390  ASN390      0.1169
     15  CG       -11.5330  -10.9390    2.2060 C.2   390  ASN390      0.2627
     16  OD1      -12.0600  -11.7330    2.9750 O.2   390  ASN390     -0.2716
     17  ND2      -10.4810  -10.1910    2.5410 N.am  390  ASN390     -0.0877
     18  N        -14.6420  -11.1030   -0.7270 N.am  391  SER391     -0.1938
     19  CA       -15.7070  -10.8860   -1.7190 C.3   391  SER391      0.2055
     20  C        -16.5240  -12.1600   -1.8620 C.2   391  SER391      0.2643
     21  O        -16.7860  -12.8070   -0.8720 O.2   391  SER391     -0.2714
     22  CB       -15.1170  -10.4480   -3.1050 C.3   391  SER391      0.2130
     23  OG       -16.1450  -10.2520   -4.0680 O.3   391  SER391     -0.2179
     24  N        -16.9270  -12.5410   -3.0810 N.am  392  LEU392     -0.1963
     25  CA       -17.9060  -13.6100   -3.2560 C.3   392  LEU392      0.1728
     26  C        -17.4380  -14.9560   -2.6720 C.2   392  LEU392      0.2616
     27  O        -18.1880  -15.6390   -1.9510 O.2   392  LEU392     -0.2715
     28  CB       -18.2420  -13.8110   -4.7320 C.3   392  LEU392      0.0311
     29  CG       -19.1220  -12.8100   -5.4530 C.3   392  LEU392      0.0022
     30  CD1      -19.2120  -13.2170   -6.9350 C.3   392  LEU392      0.0001
     31  CD2      -20.4920  -12.6940   -4.8010 C.3   392  LEU392      0.0001
     32  N        -16.2090  -15.3520   -2.9850 N.am  393  VAL393     -0.1977
     33  CA       -15.7780  -16.6830   -2.5930 C.3   393  VAL393      0.1596
     34  C        -16.0570  -17.0620   -1.1190 C.2   393  VAL393      0.2287
     35  O        -16.5430  -18.1790   -0.8620 O.2   393  VAL393     -0.2864
     36  CB       -14.3380  -16.9870   -3.0180 C.3   393  VAL393      0.0276
     37  CG1      -13.3100  -15.9920   -2.3710 C.3   393  VAL393      0.0022
     38  CG2      -14.0250  -18.4440   -2.7420 C.3   393  VAL393      0.0022
     39  N        -18.3310  -15.8090    0.8690 N.3   395  ARG395     -0.1245
     40  CA       -19.7660  -15.7770    1.1170 C.3   395  ARG395      0.1563
     41  C        -20.4540  -16.9620    0.4480 C.2   395  ARG395      0.2260
     42  O        -21.4010  -17.5340    1.0040 O.2   395  ARG395     -0.2867
     43  CB       -20.3880  -14.4610    0.6310 C.3   395  ARG395      0.0307
     44  CG       -19.9480  -13.2090    1.3740 C.3   395  ARG395      0.0489
     45  CD       -20.3820  -11.9140    0.6560 C.3   395  ARG395      0.2205
     46  NE       -20.1610  -10.6990    1.4520 N.pl3 395  ARG395     -0.0865
     47  CZ       -19.0030  -10.0330    1.5390 C.cat 395  ARG395      0.5346
     48  NH1      -17.9060  -10.4460    0.8930 N.pl3 395  ARG395      0.1354
     49  NH2      -18.9410   -8.9500    2.3080 N.pl3 395  ARG395      0.1354
     50  N        -10.4780   -6.5910    8.4730 N.3   415  ALA415     -0.1231
     51  CA       -10.9200   -5.4490    7.6740 C.3   415  ALA415      0.1694
     52  C        -11.3920   -5.9070    6.2770 C.2   415  ALA415      0.2593
     53  O        -11.9380   -5.1250    5.4860 O.2   415  ALA415     -0.2718
     54  CB        -9.7840   -4.4620    7.5530 C.3   415  ALA415      0.0304
     55  N        -11.1710   -7.1740    5.9680 N.am  416  SER416     -0.1938
     56  CA       -11.6870   -7.7450    4.7430 C.3   416  SER416      0.2055
     57  C        -11.1170   -7.1220    3.4930 C.2   416  SER416      0.2644
     58  O        -11.7400   -7.1600    2.4540 O.2   416  SER416     -0.2714
     59  CB       -13.2070   -7.6790    4.7150 C.3   416  SER416      0.2130
     60  OG       -13.7150   -8.5930    5.6600 O.3   416  SER416     -0.2179
     61  N         -9.9090   -6.5750    3.5910 N.am  417  GLY417     -0.1939
     62  CA        -9.2330   -6.0190    2.4160 C.3   417  GLY417      0.2014
     63  C         -8.8800   -7.0380    1.3580 C.2   417  GLY417      0.2639
     64  O         -8.3990   -8.0990    1.6840 O.2   417  GLY417     -0.2714
     65  N         -9.1160   -6.7170    0.0880 N.am  418  ILE418     -0.1963
     66  CA        -8.6070   -7.5820   -1.0050 C.3   418  ILE418      0.1727
     67  C         -7.2250   -7.1700   -1.4670 C.2   418  ILE418      0.2616
     68  O         -6.7870   -7.5470   -2.5580 O.2   418  ILE418     -0.2715
     69  CB        -9.5370   -7.6150   -2.2360 C.3   418  ILE418      0.0290
     70  CG1       -9.5180   -6.2780   -2.9730 C.3   418  ILE418      0.0022
     71  CG2      -10.9430   -7.9410   -1.8080 C.3   418  ILE418      0.0023
     72  CD1       -9.7940   -6.3880   -4.4850 C.3   418  ILE418      0.0001
     73  N         -6.5440   -6.3790   -0.6450 N.am  419  ASP419     -0.1971
     74  CA        -5.2450   -5.8340   -1.0140 C.3   419  ASP419      0.1709
     75  C         -4.0070   -6.7340   -0.7950 C.2   419  ASP419      0.2293
     76  O         -2.9420   -6.3930   -1.3140 O.2   419  ASP419     -0.2864
     77  CB        -5.0250   -4.4750   -0.3700 C.3   419  ASP419      0.1436
     78  CG        -5.1600   -4.5260    1.1200 C.2   419  ASP419      0.3671
     79  OD1       -6.0540   -5.2210    1.6240 O.co2 419  ASP419     -0.2456
     80  OD2       -4.3600   -3.8730    1.8110 O.co2 419  ASP419     -0.2456
     81  N        -10.6130  -14.1230   -6.1500 N.3   441  GLY441     -0.1210
     82  CA       -11.2560  -13.5260   -7.3130 C.3   441  GLY441      0.1956
     83  C        -10.3370  -12.6620   -8.1430 C.2   441  GLY441      0.2612
     84  O         -9.3280  -12.1910   -7.6570 O.2   441  GLY441     -0.2717
     85  N        -10.7180  -12.4360   -9.3960 N.am  442  ASP442     -0.1959
     86  CA        -9.9090  -11.7580  -10.4290 C.3   442  ASP442      0.1840
     87  C         -9.3040  -10.3750  -10.0470 C.2   442  ASP442      0.2622
     88  O         -8.0870  -10.1890  -10.1430 O.2   442  ASP442     -0.2715
     89  CB       -10.7120  -11.7160  -11.7400 C.3   442  ASP442      0.1450
     90  CG       -12.0410  -10.9690  -11.5920 C.2   442  ASP442      0.3671
     91  OD1      -12.9540  -11.4270  -10.8350 O.co2 442  ASP442     -0.2456
     92  OD2      -12.1620   -9.8920  -12.2270 O.co2 442  ASP442     -0.2456
     93  N        -10.1100   -9.4160   -9.5960 N.am  443  LEU443     -0.1963
     94  CA        -9.5180   -8.1630   -9.0840 C.3   443  LEU443      0.1728
     95  C         -8.5880   -8.4070   -7.9020 C.2   443  LEU443      0.2616
     96  O         -7.6440   -7.6680   -7.7140 O.2   443  LEU443     -0.2715
     97  CB       -10.5780   -7.1370   -8.6340 C.3   443  LEU443      0.0311
     98  CG       -11.5940   -6.4770   -9.5710 C.3   443  LEU443      0.0022
     99  CD1      -12.4170   -5.4620   -8.7950 C.3   443  LEU443      0.0001
    100  CD2      -10.9750   -5.8500  -10.8180 C.3   443  LEU443      0.0001
    101  N         -8.8820   -9.4160   -7.0840 N.am  444  SER444     -0.1950
    102  CA        -8.0720   -9.7450   -5.9110 C.3   444  SER444      0.1924
    103  C         -6.7250  -10.2750   -6.3280 C.2   444  SER444      0.2314
    104  O         -5.7290  -10.0310   -5.6670 O.2   444  SER444     -0.2863
    105  CB        -8.8000  -10.7440   -5.0140 C.3   444  SER444      0.2116
    106  OG        -9.8600  -10.0440   -4.3680 O.3   444  SER444     -0.2180
    107  N         -4.6800   -7.1630   -7.7070 N.3   447  TYR447     -0.1241
    108  CA        -4.2390   -6.3570   -6.6000 C.3   447  TYR447      0.1605
    109  C         -2.9080   -6.8590   -6.0510 C.2   447  TYR447      0.2264
    110  O         -2.0930   -6.0590   -5.6680 O.2   447  TYR447     -0.2867
    111  CB        -5.3080   -6.3150   -5.4790 C.3   447  TYR447      0.0534
    112  CG        -5.4380   -4.9720   -4.7600 C.ar  447  TYR447     -0.0201
    113  CD1       -4.3580   -4.3990   -4.1320 C.ar  447  TYR447     -0.0009
    114  CD2       -6.6440   -4.3040   -4.7190 C.ar  447  TYR447     -0.0009
    115  CE1       -4.4580   -3.1740   -3.4980 C.ar  447  TYR447      0.0417
    116  CE2       -6.7730   -3.0810   -4.0610 C.ar  447  TYR447      0.0417
    117  CZ        -5.6740   -2.5100   -3.4520 C.ar  447  TYR447      0.1957
    118  OH        -5.7690   -1.2920   -2.8060 O.3   447  TYR447     -0.2866
    119  N        -14.6310  -13.7360  -13.0080 N.3   469  ASN469     -0.1240
    120  CA       -15.9340  -13.2900  -13.5070 C.3   469  ASN469      0.1653
    121  C        -15.8840  -11.9080  -14.0680 C.2   469  ASN469      0.2266
    122  O        -16.8390  -11.1680  -13.9220 O.2   469  ASN469     -0.2867
    123  CB       -16.9710  -13.2910  -12.3960 C.3   469  ASN469      0.1155
    124  CG       -16.4900  -12.5920  -11.1220 C.2   469  ASN469      0.2627
    125  OD1      -15.6100  -11.6900  -11.1380 O.2   469  ASN469     -0.2716
    126  ND2      -17.0670  -13.0050  -10.0100 N.am  469  ASN469     -0.0877
    127  N        -14.5170   -8.9060  -13.1930 N.3   471  GLY471     -0.1210
    128  CA       -14.9080   -7.8420  -12.3010 C.3   471  GLY471      0.1956
    129  C        -15.1460   -8.1950  -10.8600 C.2   471  GLY471      0.2612
    130  O        -14.9630   -9.3650  -10.4000 O.2   471  GLY471     -0.2717
    131  N        -15.5510   -7.1570  -10.1360 N.am  472  GLY472     -0.1942
    132  CA       -15.9030   -7.2630   -8.7370 C.3   472  GLY472      0.2014
    133  C        -17.3840   -7.5850   -8.5630 C.2   472  GLY472      0.2639
    134  O        -18.1580   -6.7870   -8.0080 O.2   472  GLY472     -0.2714
    135  N        -17.7570   -8.7820   -9.0060 N.am  473  GLN473     -0.1963
    136  CA       -19.1690   -9.1660   -9.0980 C.3   473  GLN473      0.1733
    137  C        -20.0000   -9.1860   -7.8090 C.2   473  GLN473      0.2616
    138  O        -21.1900   -9.5060   -7.8720 O.2   473  GLN473     -0.2715
    139  CB       -19.2950  -10.5040   -9.8260 C.3   473  GLN473      0.0408
    140  CG       -18.7880  -10.4520  -11.2260 C.3   473  GLN473      0.0908
    141  CD       -19.4840   -9.4380  -12.0990 C.2   473  GLN473      0.2608
    142  OE1      -20.5590   -8.9400  -11.7790 O.2   473  GLN473     -0.2717
    143  NE2      -18.8890   -9.1580  -13.2340 N.am  473  GLN473     -0.0878
    144  N        -19.3730   -8.8650   -6.6670 N.am  474  ILE474     -0.1963
    145  CA       -20.0860   -8.6200   -5.4030 C.3   474  ILE474      0.1727
    146  C        -20.9570   -7.3630   -5.5550 C.2   474  ILE474      0.2616
    147  O        -21.9370   -7.1470   -4.8310 O.2   474  ILE474     -0.2715
    148  CB       -19.0920   -8.5070   -4.1630 C.3   474  ILE474      0.0290
    149  CG1      -19.7890   -8.0320   -2.8620 C.3   474  ILE474      0.0022
    150  CG2      -17.9360   -7.5660   -4.4440 C.3   474  ILE474      0.0023
    151  CD1      -20.8090   -8.9920   -2.2930 C.3   474  ILE474      0.0001
    152  N        -20.5980   -6.5420   -6.5330 N.am  475  PHE475     -0.1974
    153  CA       -21.3210   -5.3200   -6.8110 C.3   475  PHE475      0.1639
    154  C        -22.5380   -5.5630   -7.7390 C.2   475  PHE475      0.2290
    155  O        -23.3630   -4.6410   -7.9540 O.2   475  PHE475     -0.2864
    156  CB       -20.3540   -4.2420   -7.3030 C.3   475  PHE475      0.0560
    157  CG       -19.3270   -3.8400   -6.2680 C.ar  475  PHE475     -0.0200
    158  CD1      -19.7220   -3.4800   -4.9480 C.ar  475  PHE475     -0.0042
    159  CD2      -17.9600   -3.8210   -6.5850 C.ar  475  PHE475     -0.0042
    160  CE1      -18.7560   -3.0970   -3.9440 C.ar  475  PHE475     -0.0003
    161  CE2      -17.0000   -3.4380   -5.5960 C.ar  475  PHE475     -0.0003
    162  CZ       -17.4050   -3.0790   -4.2690 C.ar  475  PHE475     -0.0000
@<TRIPOS>BOND
     1   121   122    2
     2   121   120    1
     3   120   119    1
     4   120   123    1
     5   143   141   am
     6   127   128    1
     7   123   124    1
     8   128   129    1
     9    92    90   ar
    10   141   142    2
    11   141   140    1
    12    89    90    1
    13    89    86    1
    14    90    91   ar
    15   140   139    1
    16   125   124    2
    17   124   126   am
    18   129   130    2
    19   129   131   am
    20   100    98    1
    21    86    87    1
    22    86    85    1
    23     1     2    1
    24    88    87    2
    25   131   132    1
    26    87    93   am
    27   139   136    1
    28    93    94    1
    29    98    99    1
    30    98    97    1
    31     9     7   ar
    32    85    83   am
    33   136   135    1
    34   136   137    1
    35    94    97    1
    36    94    95    1
    37   135   133   am
    38     2     5    1
    39     2     3    1
    40     5     6    1
    41     6     7    1
    42   132   133    1
    43     7     8   ar
    44   133   134    2
    45    83    84    2
    46    83    82    1
    47   155   154    2
    48    95    96    2
    49    95   101   am
    50   138   137    2
    51   137   144   am
    52     3     4    2
    53   154   153    1
    54   107   108    1
    55    82    81    1
    56   156   153    1
    57   156   157    1
    58   101   102    1
    59    30    29    1
    60   153   152    1
    61   144   145    1
    62   108   109    1
    63   108   111    1
    64   159   157   ar
    65   159   161   ar
    66   152   146   am
    67   103   102    1
    68   103   104    2
    69   157   158   ar
    70   109   110    2
    71   102   105    1
    72   161   162   ar
    73   146   145    1
    74   146   147    2
    75   111   112    1
    76    29    31    1
    77    29    28    1
    78   145   148    1
    79   105   106    1
    80   158   160   ar
    81   112   114   ar
    82   112   113   ar
    83    28    25    1
    84   114   116   ar
    85    72    70    1
    86   150   148    1
    87   162   160   ar
    88   148   149    1
    89   113   115   ar
    90    23    22    1
    91   116   117   ar
    92   115   117   ar
    93   117   118    1
    94    25    24    1
    95    25    26    1
    96    22    19    1
    97    24    20   am
    98    36    38    1
    99    36    33    1
   100    36    37    1
   101    32    26   am
   102    32    33    1
   103    70    69    1
   104   149   151    1
   105    26    27    2
   106    33    34    1
   107    68    67    2
   108    69    71    1
   109    69    66    1
   110    20    19    1
   111    20    21    2
   112    19    18    1
   113    13    12    2
   114    67    66    1
   115    67    73   am
   116    76    75    2
   117    34    35    2
   118    74    75    1
   119    74    73    1
   120    74    77    1
   121    66    65    1
   122    12    18   am
   123    12    11    1
   124    77    78    1
   125    10    11    1
   126    65    63   am
   127    11    14    1
   128    41    42    2
   129    41    40    1
   130    43    40    1
   131    43    44    1
   132    45    44    1
   133    45    46    1
   134    14    15    1
   135    39    40    1
   136    48    47    1
   137    78    79   ar
   138    78    80   ar
   139    63    64    2
   140    63    62    1
   141    46    47    2
   142    47    49    1
   143    15    17   am
   144    15    16    2
   145    62    61    1
   146    58    57    2
   147    57    61   am
   148    57    56    1
   149    59    56    1
   150    59    60    1
   151    56    55    1
   152    53    52    2
   153    55    52   am
   154    52    51    1
   155    54    51    1
   156    51    50    1
