@<TRIPOS>MOLECULE
tmp/3hx0E01.pdb
 135 127 0 0 0
SMALL
GASTEIGER

@<TRIPOS>ATOM
      1  N         71.0170  -32.5680   33.5110 N.3   140  ARG140     -0.1245
      2  CA        69.6030  -32.3720   33.8130 C.3   140  ARG140      0.1563
      3  C         69.3050  -33.0930   35.1230 C.2   140  ARG140      0.2260
      4  O         70.1280  -33.8730   35.6040 O.2   140  ARG140     -0.2867
      5  CB        68.7220  -32.9420   32.6990 C.3   140  ARG140      0.0307
      6  CG        68.8620  -32.2390   31.3580 C.3   140  ARG140      0.0489
      7  CD        67.9510  -32.8700   30.3120 C.3   140  ARG140      0.2205
      8  NE        66.5340  -32.6400   30.5880 N.pl3 140  ARG140     -0.0865
      9  CZ        65.9090  -31.4850   30.3830 C.cat 140  ARG140      0.5346
     10  NH1       66.5700  -30.4460   29.8930 N.pl3 140  ARG140      0.1354
     11  NH2       64.6220  -31.3650   30.6750 N.pl3 140  ARG140      0.1354
     12  N         56.9660  -25.3330   33.0260 N.3   170  GLY170     -0.1210
     13  CA        58.0360  -25.7700   32.1540 C.3   170  GLY170      0.1956
     14  C         57.9990  -27.2590   31.8920 C.2   170  GLY170      0.2612
     15  O         56.9440  -27.8880   31.9730 O.2   170  GLY170     -0.2717
     16  N         59.1600  -27.8210   31.5810 N.am  171  SER171     -0.1952
     17  CA        59.2730  -29.2430   31.2960 C.3   171  SER171      0.1924
     18  C         58.5880  -30.0750   32.3680 C.2   171  SER171      0.2314
     19  O         58.0020  -31.1170   32.0750 O.2   171  SER171     -0.2863
     20  CB        60.7430  -29.6450   31.2130 C.3   171  SER171      0.2116
     21  OG        61.3860  -29.4460   32.4580 O.3   171  SER171     -0.2180
     22  N         54.8890  -30.3370   31.9070 N.3   174  ARG174     -0.1245
     23  CA        54.6320  -31.0720   30.6750 C.3   174  ARG174      0.1563
     24  C         54.8760  -32.5600   30.9260 C.2   174  ARG174      0.2260
     25  O         54.9270  -33.3640   29.9950 O.2   174  ARG174     -0.2867
     26  CB        55.5350  -30.5720   29.5420 C.3   174  ARG174      0.0307
     27  CG        55.3240  -29.1060   29.1820 C.3   174  ARG174      0.0489
     28  CD        55.5470  -28.8400   27.6930 C.3   174  ARG174      0.2205
     29  NE        56.9190  -29.0850   27.2560 N.pl3 174  ARG174     -0.0865
     30  CZ        57.9540  -28.3020   27.5440 C.cat 174  ARG174      0.5346
     31  NH1       57.7850  -27.2100   28.2750 N.pl3 174  ARG174      0.1354
     32  NH2       59.1620  -28.6090   27.0970 N.pl3 174  ARG174      0.1354
     33  N         65.5770  -29.4720   33.0680 N.3   180  GLY180     -0.1210
     34  CA        66.8130  -28.7150   33.0030 C.3   180  GLY180      0.1956
     35  C         66.8690  -27.8090   34.2160 C.2   180  GLY180      0.2611
     36  O         67.8960  -27.6940   34.8820 O.2   180  GLY180     -0.2717
     37  N         65.7440  -27.1620   34.5020 N.am  181  ASP181     -0.1973
     38  CA        65.6260  -26.2700   35.6480 C.3   181  ASP181      0.1709
     39  C         64.2330  -26.4540   36.2280 C.2   181  ASP181      0.2293
     40  O         63.4520  -27.2610   35.7280 O.2   181  ASP181     -0.2864
     41  CB        65.8000  -24.8110   35.2210 C.3   181  ASP181      0.1436
     42  CG        64.6710  -24.3260   34.3330 C.2   181  ASP181      0.3671
     43  OD1       64.6080  -23.1110   34.0560 O.co2 181  ASP181     -0.2456
     44  OD2       63.8470  -25.1610   33.9070 O.co2 181  ASP181     -0.2456
     45  N         60.8640  -24.3620   37.0030 N.3   183  ASP183     -0.1239
     46  CA        60.1530  -23.1080   36.7850 C.3   183  ASP183      0.1674
     47  C         58.9180  -23.0130   37.6730 C.2   183  ASP183      0.2266
     48  O         57.9300  -23.7160   37.4570 O.2   183  ASP183     -0.2867
     49  CB        59.7500  -23.0020   35.3150 C.3   183  ASP183      0.1410
     50  CG        60.9200  -23.2310   34.3790 C.2   183  ASP183      0.3668
     51  OD1       61.8900  -22.4460   34.4340 O.co2 183  ASP183     -0.2456
     52  OD2       60.8700  -24.2000   33.5920 O.co2 183  ASP183     -0.2456
     53  N         69.4410  -24.7980   38.3860 N.3   242  ARG242     -0.1245
     54  CA        68.9720  -23.4900   37.9480 C.3   242  ARG242      0.1563
     55  C         67.5050  -23.3330   38.3190 C.2   242  ARG242      0.2260
     56  O         66.6720  -24.1650   37.9600 O.2   242  ARG242     -0.2867
     57  CB        69.1520  -23.3340   36.4360 C.3   242  ARG242      0.0307
     58  CG        70.6000  -23.1800   36.0130 C.3   242  ARG242      0.0489
     59  CD        70.7520  -22.9630   34.5130 C.3   242  ARG242      0.2205
     60  NE        70.3690  -24.1340   33.7280 N.pl3 242  ARG242     -0.0865
     61  CZ        69.1650  -24.3250   33.1970 C.cat 242  ARG242      0.5346
     62  NH1       68.2130  -23.4180   33.3620 N.pl3 242  ARG242      0.1354
     63  NH2       68.9150  -25.4220   32.4980 N.pl3 242  ARG242      0.1354
     64  N         63.9960  -20.7790   38.4750 N.3   244  ASP244     -0.1239
     65  CA        63.3290  -19.6650   37.8110 C.3   244  ASP244      0.1674
     66  C         61.9740  -19.4140   38.4800 C.2   244  ASP244      0.2266
     67  O         61.0780  -20.2520   38.4080 O.2   244  ASP244     -0.2867
     68  CB        63.1280  -20.0120   36.3360 C.3   244  ASP244      0.1410
     69  CG        62.7920  -18.8080   35.4910 C.2   244  ASP244      0.3668
     70  OD1       61.9260  -18.0100   35.9020 O.co2 244  ASP244     -0.2456
     71  OD2       63.3910  -18.6710   34.4040 O.co2 244  ASP244     -0.2456
     72  N         52.0410  -19.7160   29.2810 N.3   259  TYR259     -0.1227
     73  CA        53.3610  -19.2580   28.8770 C.3   259  TYR259      0.1736
     74  C         54.4890  -20.0560   29.5160 C.2   259  TYR259      0.2595
     75  O         55.3740  -20.5560   28.8230 O.2   259  TYR259     -0.2718
     76  CB        53.5360  -17.7850   29.2410 C.3   259  TYR259      0.0548
     77  CG        54.9810  -17.3610   29.3880 C.ar  259  TYR259     -0.0200
     78  CD1       55.8190  -17.2690   28.2790 C.ar  259  TYR259     -0.0009
     79  CD2       55.5150  -17.0730   30.6430 C.ar  259  TYR259     -0.0009
     80  CE1       57.1550  -16.9000   28.4150 C.ar  259  TYR259      0.0417
     81  CE2       56.8470  -16.7050   30.7910 C.ar  259  TYR259      0.0417
     82  CZ        57.6610  -16.6210   29.6730 C.ar  259  TYR259      0.1957
     83  OH        58.9810  -16.2610   29.8150 O.3   259  TYR259     -0.2866
     84  N         54.4630  -20.1590   30.8420 N.am  260  PHE260     -0.1962
     85  CA        55.5050  -20.8740   31.5690 C.3   260  PHE260      0.1771
     86  C         55.4970  -22.3770   31.3180 C.2   260  PHE260      0.2620
     87  O         56.5070  -23.0490   31.5190 O.2   260  PHE260     -0.2715
     88  CB        55.3830  -20.6100   33.0720 C.3   260  PHE260      0.0574
     89  CG        56.6840  -20.2210   33.7290 C.ar  260  PHE260     -0.0200
     90  CD1       56.8200  -20.2710   35.1130 C.ar  260  PHE260     -0.0042
     91  CD2       57.7670  -19.7840   32.9660 C.ar  260  PHE260     -0.0042
     92  CE1       58.0140  -19.8950   35.7270 C.ar  260  PHE260     -0.0003
     93  CE2       58.9630  -19.4060   33.5710 C.ar  260  PHE260     -0.0003
     94  CZ        59.0860  -19.4600   34.9520 C.ar  260  PHE260     -0.0000
     95  N         54.3590  -22.9060   30.8830 N.am  261  THR261     -0.1937
     96  CA        54.2500  -24.3320   30.6070 C.3   261  THR261      0.2028
     97  C         55.0110  -24.6670   29.3300 C.2   261  THR261      0.2643
     98  O         55.5720  -25.7520   29.1940 O.2   261  THR261     -0.2714
     99  CB        52.7820  -24.7550   30.4380 C.3   261  THR261      0.1808
    100  OG1       52.0630  -24.4590   31.6390 O.3   261  THR261     -0.2208
    101  CG2       52.6840  -26.2430   30.1590 C.3   261  THR261      0.0379
    102  N         55.0280  -23.7240   28.3960 N.am  262  GLY262     -0.1939
    103  CA        55.7260  -23.9400   27.1450 C.3   262  GLY262      0.2014
    104  C         55.0830  -25.0110   26.2880 C.2   262  GLY262      0.2640
    105  O         53.8820  -25.2620   26.4090 O.2   262  GLY262     -0.2714
    106  N         55.8720  -25.6480   25.4240 N.am  263  SER263     -0.1935
    107  CA        57.3000  -25.3560   25.2860 C.3   263  SER263      0.2055
    108  C         57.5280  -24.0260   24.5820 C.2   263  SER263      0.2642
    109  O         56.5790  -23.3640   24.1670 O.2   263  SER263     -0.2714
    110  CB        57.9850  -26.4610   24.4880 C.3   263  SER263      0.2130
    111  OG        57.4770  -26.5080   23.1660 O.3   263  SER263     -0.2179
    112  N         58.7910  -23.6400   24.4440 N.am  264  ALA264     -0.1977
    113  CA        59.1310  -22.3890   23.7780 C.3   264  ALA264      0.1597
    114  C         58.5220  -22.3720   22.3810 C.2   264  ALA264      0.2287
    115  O         57.7920  -21.4480   22.0200 O.2   264  ALA264     -0.2864
    116  CB        60.6410  -22.2390   23.6920 C.3   264  ALA264      0.0319
    117  N         54.8140  -21.8720   22.2430 N.3   267  ASN267     -0.1240
    118  CA        54.3990  -20.4900   22.4530 C.3   267  ASN267      0.1653
    119  C         54.6200  -19.6360   21.2120 C.2   267  ASN267      0.2266
    120  O         53.6640  -19.1470   20.6100 O.2   267  ASN267     -0.2867
    121  CB        55.1450  -19.8740   23.6390 C.3   267  ASN267      0.1155
    122  CG        54.8030  -20.5440   24.9530 C.2   267  ASN267      0.2627
    123  OD1       53.6490  -20.8960   25.2000 O.2   267  ASN267     -0.2716
    124  ND2       55.8010  -20.7110   25.8110 N.am  267  ASN267     -0.0877
    125  N         51.5020  -18.0550   19.5810 N.3   271  ARG271     -0.1245
    126  CA        51.4130  -16.6030   19.6100 C.3   271  ARG271      0.1563
    127  C         51.3260  -16.0840   18.1780 C.2   271  ARG271      0.2260
    128  O         50.4990  -15.2270   17.8650 O.2   271  ARG271     -0.2867
    129  CB        52.6360  -16.0070   20.3130 C.3   271  ARG271      0.0307
    130  CG        52.6470  -16.2060   21.8240 C.3   271  ARG271      0.0489
    131  CD        53.8750  -15.5640   22.4460 C.3   271  ARG271      0.2205
    132  NE        53.8450  -15.5930   23.9050 N.pl3 271  ARG271     -0.0865
    133  CZ        54.8060  -15.0970   24.6800 C.cat 271  ARG271      0.5346
    134  NH1       55.8780  -14.5360   24.1350 N.pl3 271  ARG271      0.1354
    135  NH2       54.6930  -15.1530   26.0000 N.pl3 271  ARG271      0.1354
@<TRIPOS>BOND
     1   128   127    2
     2   127   126    1
     3   125   126    1
     4   126   129    1
     5   129   130    1
     6   120   119    2
     7   119   118    1
     8   130   131    1
     9   115   114    2
    10   117   118    1
    11   114   113    1
    12   131   132    1
    13   118   121    1
    14   111   110    1
    15   121   122    1
    16   116   113    1
    17   113   112    1
    18   132   133    2
    19   134   133    1
    20   109   108    2
    21   112   108   am
    22   110   107    1
    23   108   107    1
    24   133   135    1
    25   122   123    2
    26   122   124   am
    27   107   106    1
    28   106   104   am
    29   104   105    2
    30   104   103    1
    31    32    30    1
    32   103   102    1
    33    29    30    2
    34    29    28    1
    35    30    31    1
    36    28    27    1
    37    78    80   ar
    38    78    77   ar
    39   102    97   am
    40    80    82   ar
    41    75    74    2
    42    73    76    1
    43    73    72    1
    44    73    74    1
    45    27    26    1
    46    98    97    2
    47    76    77    1
    48    97    96    1
    49    77    79   ar
    50    74    84   am
    51    26    23    1
    52    82    83    1
    53    82    81   ar
    54    10     9    1
    55    25    24    2
    56   101    99    1
    57     7     8    1
    58     7     6    1
    59     9     8    2
    60     9    11    1
    61    99    96    1
    62    99   100    1
    63    96    95    1
    64    79    81   ar
    65    23    24    1
    66    23    22    1
    67    84    85    1
    68    95    86   am
    69    20    17    1
    70    20    21    1
    71    17    16    1
    72    17    18    1
    73    86    87    2
    74    86    85    1
    75     6     5    1
    76    85    88    1
    77    16    14   am
    78    14    15    2
    79    14    13    1
    80    19    18    2
    81    13    12    1
    82    63    61    1
    83     5     2    1
    84    91    93   ar
    85    91    89   ar
    86    34    33    1
    87    34    35    1
    88    88    89    1
    89    61    62    1
    90    61    60    2
    91     1     2    1
    92    93    94   ar
    93    52    50   ar
    94    60    59    1
    95    89    90   ar
    96     2     3    1
    97    44    42   ar
    98    43    42   ar
    99    35    37   am
   100    35    36    2
   101    42    41    1
   102    50    51   ar
   103    50    49    1
   104    71    69   ar
   105    37    38    1
   106    59    58    1
   107    94    92   ar
   108    90    92   ar
   109     3     4    2
   110    41    38    1
   111    49    46    1
   112    69    70   ar
   113    69    68    1
   114    38    39    1
   115    40    39    2
   116    58    57    1
   117    68    65    1
   118    57    54    1
   119    46    45    1
   120    46    47    1
   121    48    47    2
   122    65    64    1
   123    65    66    1
   124    54    55    1
   125    54    53    1
   126    56    55    2
   127    67    66    2
