@<TRIPOS>MOLECULE
tmp/3hx8B00.pdb
 73 69 0 0 0
SMALL
GASTEIGER

@<TRIPOS>ATOM
      1  N         16.6610   18.6900   39.1610 N.3    61  LYS61      -0.1231
      2  CA        16.3220   18.3180   37.7870 C.3    61  LYS61       0.1693
      3  C         17.1930   17.1360   37.3730 C.2    61  LYS61       0.2592
      4  O         18.3680   17.0880   37.6790 O.2    61  LYS61      -0.2718
      5  CB        16.5800   19.4760   36.8570 C.3    61  LYS61       0.0285
      6  CG        15.6280   20.6090   37.0810 C.3    61  LYS61       0.0035
      7  CD        15.7570   21.6800   35.9880 C.3    61  LYS61       0.0206
      8  CE        14.4680   22.5630   35.9610 C.3    61  LYS61       0.1093
      9  NZ        14.3820   23.4430   37.1480 N.3    61  LYS61      -0.1314
     10  N         16.5840   16.1500   36.7530 N.am   62  LEU62      -0.1966
     11  CA        17.2480   14.9510   36.2870 C.3    62  LEU62       0.1728
     12  C         17.0560   14.8200   34.7870 C.2    62  LEU62       0.2616
     13  O         15.9160   15.0040   34.2710 O.2    62  LEU62      -0.2715
     14  CB        16.6970   13.7090   36.9790 C.3    62  LEU62       0.0311
     15  CG        16.7720   13.5920   38.5110 C.3    62  LEU62       0.0022
     16  CD1       16.0350   12.3780   39.0250 C.3    62  LEU62       0.0001
     17  CD2       18.2300   13.5320   38.9730 C.3    62  LEU62       0.0001
     18  N         18.1400   14.4950   34.0780 N.am   63  THR63      -0.1951
     19  CA        18.0590   14.2230   32.6500 C.3    63  THR63       0.1897
     20  C         18.6450   12.8290   32.4190 C.2    63  THR63       0.2313
     21  O         19.8310   12.5970   32.6550 O.2    63  THR63      -0.2863
     22  CB        18.8410   15.2560   31.8350 C.3    63  THR63       0.1794
     23  OG1       18.2990   16.5580   32.0630 O.3    63  THR63      -0.2208
     24  CG2       18.7770   14.9500   30.3210 C.3    63  THR63       0.0378
     25  N         22.3470   13.0220   33.9910 N.3    79  SER79      -0.1202
     26  CA        22.8790   14.2210   34.6010 C.3    79  SER79       0.2020
     27  C         21.8530   14.8330   35.5620 C.2    79  SER79       0.2619
     28  O         20.6410   14.6380   35.4340 O.2    79  SER79      -0.2717
     29  CB        23.2500   15.2300   33.4840 C.3    79  SER79       0.2103
     30  OG        22.0690   15.5370   32.7430 O.3    79  SER79      -0.2182
     31  N         22.3450   15.5910   36.5270 N.am   80  PHE80      -0.1961
     32  CA        21.4650   16.3530   37.3850 C.3    80  PHE80       0.1771
     33  C         21.9310   17.8050   37.5060 C.2    80  PHE80       0.2620
     34  O         23.1130   18.1280   37.3150 O.2    80  PHE80      -0.2715
     35  CB        21.3350   15.6920   38.7720 C.3    80  PHE80       0.0574
     36  CG        22.5580   15.8320   39.6650 C.ar   80  PHE80      -0.0200
     37  CD1       22.7550   16.9860   40.4170 C.ar   80  PHE80      -0.0042
     38  CD2       23.4660   14.8120   39.7750 C.ar   80  PHE80      -0.0042
     39  CE1       23.8600   17.1290   41.2200 C.ar   80  PHE80      -0.0003
     40  CE2       24.5700   14.9330   40.5760 C.ar   80  PHE80      -0.0003
     41  CZ        24.7740   16.0980   41.3300 C.ar   80  PHE80      -0.0000
     42  N         20.9620   18.6520   37.8610 N.am   81  SER81      -0.1950
     43  CA        21.2350   19.9960   38.3220 C.3    81  SER81       0.1924
     44  C         20.3870   20.2710   39.5560 C.2    81  SER81       0.2314
     45  O         19.3310   19.6570   39.7740 O.2    81  SER81      -0.2863
     46  CB        21.0050   21.0030   37.2070 C.3    81  SER81       0.2116
     47  OG        19.6500   21.0500   36.8660 O.3    81  SER81      -0.2180
     48  N         25.8310   21.0000   39.4640 N.3    95  ALA95      -0.1231
     49  CA        25.5010   19.9370   38.5320 C.3    95  ALA95       0.1694
     50  C         26.3070   18.7080   38.7870 C.2    95  ALA95       0.2592
     51  O         27.3350   18.7550   39.4350 O.2    95  ALA95      -0.2718
     52  CB        25.7800   20.4350   37.1010 C.3    95  ALA95       0.0304
     53  N         25.8480   17.5900   38.2460 N.am   96  GLY96      -0.1957
     54  CA        26.6470   16.3710   38.3130 C.3    96  GLY96       0.1869
     55  C         26.0510   15.2810   37.4500 C.2    96  GLY96       0.2309
     56  O         25.2650   15.5350   36.5300 O.2    96  GLY96      -0.2863
     57  N         29.9510   17.4910   38.8050 N.3   120  ASP120     -0.1239
     58  CA        30.6540   18.0190   37.5960 C.3   120  ASP120      0.1674
     59  C         31.0910   19.4320   37.8280 C.2   120  ASP120      0.2266
     60  O         30.4200   20.1520   38.5630 O.2   120  ASP120     -0.2867
     61  CB        29.7190   18.1560   36.4040 C.3   120  ASP120      0.1410
     62  CG        29.3450   16.8680   35.7620 C.2   120  ASP120      0.3668
     63  OD1       29.6970   15.8100   36.2690 O.co2 120  ASP120     -0.2456
     64  OD2       28.6460   16.9180   34.7110 O.co2 120  ASP120     -0.2456
     65  N         29.6170   24.5270   33.5390 N.3   123  LYS123     -0.1245
     66  CA        29.8230   24.6930   32.1000 C.3   123  LYS123      0.1561
     67  C         28.7630   25.6780   31.5390 C.2   123  LYS123      0.2260
     68  O         27.7650   25.9930   32.2360 O.2   123  LYS123     -0.2867
     69  CB        29.7420   23.3450   31.4070 C.3   123  LYS123      0.0271
     70  CG        28.3300   22.8350   31.2630 C.3   123  LYS123      0.0035
     71  CD        28.3240   21.4770   30.6530 C.3   123  LYS123      0.0206
     72  CE        26.9250   20.9340   30.6540 C.3   123  LYS123      0.1093
     73  NZ        26.9260   19.5920   30.0490 N.3   123  LYS123     -0.1314
@<TRIPOS>BOND
     1    73    72    1
     2    24    22    1
     3    71    72    1
     4    71    70    1
     5    70    69    1
     6    69    66    1
     7    67    66    1
     8    67    68    2
     9    22    23    1
    10    22    19    1
    11    66    65    1
    12    20    19    1
    13    20    21    2
    14    19    18    1
    15    30    29    1
    16    29    26    1
    17    25    26    1
    18    18    12   am
    19    13    12    2
    20    26    27    1
    21    64    62   ar
    22    12    11    1
    23    28    27    2
    24    27    31   am
    25    62    63   ar
    26    62    61    1
    27     8     7    1
    28     8     9    1
    29     7     6    1
    30    11    10    1
    31    11    14    1
    32    61    58    1
    33    31    32    1
    34    56    55    2
    35    10     3   am
    36     5     6    1
    37     5     2    1
    38    47    46    1
    39    14    15    1
    40    52    49    1
    41    46    43    1
    42    34    33    2
    43     3     4    2
    44     3     2    1
    45    32    33    1
    46    32    35    1
    47    55    54    1
    48    33    42   am
    49    58    59    1
    50    58    57    1
    51     2     1    1
    52    59    60    2
    53    42    43    1
    54    53    54    1
    55    53    50   am
    56    43    44    1
    57    15    17    1
    58    15    16    1
    59    49    50    1
    60    49    48    1
    61    35    36    1
    62    50    51    2
    63    44    45    2
    64    36    38   ar
    65    36    37   ar
    66    38    40   ar
    67    37    39   ar
    68    40    41   ar
    69    39    41   ar
