@<TRIPOS>MOLECULE
tmp/3hx9B00.pdb
 124 121 0 0 0
SMALL
GASTEIGER

@<TRIPOS>ATOM
      1  N          8.2320  -22.0990   12.1600 N.3    21  ARG21      -0.1245
      2  CA         8.2880  -21.6310   10.7660 C.3    21  ARG21       0.1563
      3  C          9.1060  -20.3510   10.6150 C.2    21  ARG21       0.2260
      4  O          9.9200  -20.2670    9.7070 O.2    21  ARG21      -0.2867
      5  CB         6.8980  -21.3850   10.2440 C.3    21  ARG21       0.0307
      6  CG         6.0560  -22.6540   10.1540 C.3    21  ARG21       0.0489
      7  CD         4.7100  -22.3870    9.4790 C.3    21  ARG21       0.2205
      8  NE         3.9960  -23.6670    9.4600 N.pl3  21  ARG21      -0.0865
      9  CZ         2.9120  -23.9020    8.7240 C.cat  21  ARG21       0.5346
     10  NH1        2.4110  -22.9400    7.9680 N.pl3  21  ARG21       0.1354
     11  NH2        2.3340  -25.1030    8.7560 N.pl3  21  ARG21       0.1354
     12  N         12.9300  -21.0710   11.2360 N.3    24  HIS24      -0.1226
     13  CA        13.4980  -21.7660   10.0550 C.3    24  HIS24       0.1752
     14  C         13.7840  -20.7640    8.9300 C.2    24  HIS24       0.2595
     15  O         14.8050  -20.8890    8.2540 O.2    24  HIS24      -0.2718
     16  CB        12.5850  -22.9480    9.5870 C.3    24  HIS24       0.0759
     17  CG        13.1070  -23.7190    8.3960 C.ar   24  HIS24       0.0818
     18  ND1       14.2800  -24.4560    8.4370 N.ar   24  HIS24      -0.2268
     19  CD2       12.6150  -23.8670    7.1360 C.ar   24  HIS24       0.1154
     20  CE1       14.4890  -25.0150    7.2540 C.ar   24  HIS24       0.1986
     21  NE2       13.4910  -24.6800    6.4510 N.ar   24  HIS24      -0.2212
     22  N         12.9550  -19.7270    8.7910 N.am   25  ARG25      -0.1980
     23  CA        13.0130  -18.8300    7.6500 C.3    25  ARG25       0.1597
     24  C         13.5540  -17.4650    8.0670 C.2    25  ARG25       0.2287
     25  O         13.3920  -16.4750    7.3750 O.2    25  ARG25      -0.2864
     26  CB        11.6250  -18.6900    7.0350 C.3    25  ARG25       0.0334
     27  CG        11.2140  -19.9610    6.2910 C.3    25  ARG25       0.0492
     28  CD         9.9440  -19.7650    5.4980 C.3    25  ARG25       0.2205
     29  NE         9.5250  -20.9890    4.7850 N.pl3  25  ARG25      -0.0865
     30  CZ         9.9010  -21.3400    3.5420 C.cat  25  ARG25       0.5346
     31  NH1       10.7250  -20.5820    2.8010 N.pl3  25  ARG25       0.1354
     32  NH2        9.4460  -22.4700    3.0260 N.pl3  25  ARG25       0.1354
     33  N         15.4200  -15.1280    5.7570 N.3    28  ALA28      -0.1231
     34  CA        14.8520  -14.9860    4.4140 C.3    28  ALA28       0.1694
     35  C         15.0100  -13.5920    3.7700 C.2    28  ALA28       0.2591
     36  O         15.0100  -13.4660    2.5270 O.2    28  ALA28      -0.2718
     37  CB        13.3840  -15.4200    4.4270 C.3    28  ALA28       0.0304
     38  N         15.1060  -12.5480    4.5660 N.am   29  VAL29      -0.1980
     39  CA        15.0760  -11.1930    4.0400 C.3    29  VAL29       0.1595
     40  C         16.4780  -10.5860    4.0710 C.2    29  VAL29       0.2287
     41  O         16.6820   -9.4400    3.6400 O.2    29  VAL29      -0.2864
     42  CB        14.0430  -10.3250    4.8450 C.3    29  VAL29       0.0276
     43  CG1       13.8280   -8.9140    4.2220 C.3    29  VAL29       0.0022
     44  CG2       12.7220  -11.0950    4.9040 C.3    29  VAL29       0.0022
     45  N         11.2470   -0.4000    1.7760 N.3    62  PHE62      -0.1241
     46  CA        10.2190   -1.3910    2.1590 C.3    62  PHE62       0.1605
     47  C          9.2900   -1.6850    0.9680 C.2    62  PHE62       0.2264
     48  O          9.0360   -2.8570    0.6510 O.2    62  PHE62      -0.2867
     49  CB         9.3870   -0.9300    3.3280 C.3    62  PHE62       0.0534
     50  CG         8.1340   -1.7590    3.5030 C.ar   62  PHE62      -0.0203
     51  CD1        8.2120   -3.0780    4.0160 C.ar   62  PHE62      -0.0042
     52  CD2        6.9250   -1.2340    3.1470 C.ar   62  PHE62      -0.0042
     53  CE1        7.0430   -3.8510    4.1600 C.ar   62  PHE62      -0.0003
     54  CE2        5.7180   -1.9680    3.2750 C.ar   62  PHE62      -0.0003
     55  CZ         5.8170   -3.2960    3.8130 C.ar   62  PHE62      -0.0000
     56  N         10.7170   -3.9620   -1.7150 N.3    65  TRP65      -0.1227
     57  CA        10.7600   -5.3420   -1.2900 C.3    65  TRP65       0.1737
     58  C          9.3790   -5.9830   -1.2730 C.2    65  TRP65       0.2595
     59  O          9.1800   -7.0610   -1.8660 O.2    65  TRP65      -0.2718
     60  CB        11.3630   -5.4130    0.1050 C.3    65  TRP65       0.0564
     61  CG        11.3070   -6.7760    0.6660 C.ar   65  TRP65       0.0003
     62  CD1       12.1430   -7.8460    0.3500 C.ar   65  TRP65       0.0946
     63  CD2       10.4530   -7.2240    1.7160 C.ar   65  TRP65       0.0152
     64  NE1       11.8190   -8.9490    1.1340 N.ar   65  TRP65      -0.2442
     65  CE2       10.7820   -8.6060    1.9660 C.ar   65  TRP65       0.0810
     66  CE3        9.4300   -6.6170    2.4530 C.ar   65  TRP65       0.0012
     67  CZ2       10.1460   -9.3610    2.9590 C.ar   65  TRP65       0.0191
     68  CZ3        8.7590   -7.4020    3.4260 C.ar   65  TRP65       0.0001
     69  CH2        9.1260   -8.7520    3.6460 C.ar   65  TRP65       0.0015
     70  N          8.4330   -5.3340   -0.5880 N.am   66  ALA66      -0.1980
     71  CA         7.0810   -5.8610   -0.4260 C.3    66  ALA66       0.1597
     72  C          6.3900   -6.0660   -1.7530 C.2    66  ALA66       0.2287
     73  O          5.5760   -6.9800   -1.8820 O.2    66  ALA66      -0.2864
     74  CB         6.2640   -4.8850    0.4460 C.3    66  ALA66       0.0319
     75  N          9.3910   -9.8600   -2.3260 N.3    70  ALA70      -0.1231
     76  CA         8.6670  -10.6050   -1.2310 C.3    70  ALA70       0.1694
     77  C          7.5880  -11.4970   -1.8460 C.2    70  ALA70       0.2591
     78  O          7.3670  -12.6180   -1.3940 O.2    70  ALA70      -0.2718
     79  CB         7.9840   -9.6240   -0.2040 C.3    70  ALA70       0.0304
     80  N          6.9050  -10.9600   -2.8600 N.am   71  ILE71      -0.1980
     81  CA         5.8280  -11.7430   -3.4670 C.3    71  ILE71       0.1595
     82  C          6.4340  -12.8910   -4.3100 C.2    71  ILE71       0.2287
     83  O          6.0250  -14.0570   -4.1720 O.2    71  ILE71      -0.2864
     84  CB         4.9320  -10.8950   -4.3240 C.3    71  ILE71       0.0276
     85  CG1        4.2270   -9.8610   -3.4130 C.3    71  ILE71       0.0022
     86  CG2        3.9630  -11.7940   -5.1100 C.3    71  ILE71       0.0022
     87  CD1        3.4670   -8.7380   -4.1180 C.3    71  ILE71       0.0001
     88  N          9.0440  -14.5310   -4.0490 N.3    73  ALA73      -0.1231
     89  CA         9.7050  -15.5840   -3.2740 C.3    73  ALA73       0.1694
     90  C          8.7270  -16.6520   -2.8080 C.2    73  ALA73       0.2592
     91  O          9.1480  -17.6310   -2.2070 O.2    73  ALA73      -0.2718
     92  CB        10.4210  -14.9870   -2.1330 C.3    73  ALA73       0.0304
     93  N          7.4330  -16.5150   -3.1070 N.am   74  HIS74      -0.1976
     94  CA         6.4920  -17.5190   -2.6700 C.3    74  HIS74       0.1656
     95  C          6.3420  -18.7200   -3.6300 C.2    74  HIS74       0.2291
     96  O          5.8110  -19.7450   -3.2180 O.2    74  HIS74      -0.2864
     97  CB         5.0950  -16.9250   -2.4460 C.3    74  HIS74       0.0771
     98  CG         4.9690  -16.0830   -1.2030 C.ar   74  HIS74       0.0820
     99  ND1        5.3540  -14.7630   -1.1600 N.ar   74  HIS74      -0.2267
    100  CD2        4.4310  -16.3590    0.0160 C.ar   74  HIS74       0.1154
    101  CE1        5.0490  -14.2560    0.0290 C.ar   74  HIS74       0.1986
    102  NE2        4.5200  -15.2070    0.7620 N.ar   74  HIS74      -0.2212
    103  N          6.5910  -23.0950   -3.4990 N.3    77  HIS77      -0.1241
    104  CA         6.4960  -23.4300   -2.0930 C.3    77  HIS77       0.1621
    105  C          5.0310  -23.6020   -1.7620 C.2    77  HIS77       0.2264
    106  O          4.1510  -22.8940   -2.3000 O.2    77  HIS77      -0.2867
    107  CB         7.0590  -22.3140   -1.2090 C.3    77  HIS77       0.0745
    108  CG         8.5360  -22.1260   -1.3320 C.ar   77  HIS77       0.0817
    109  ND1        9.1140  -20.8930   -1.5670 N.ar   77  HIS77      -0.2268
    110  CD2        9.5590  -23.0120   -1.2410 C.ar   77  HIS77       0.1154
    111  CE1       10.4300  -21.0260   -1.6110 C.ar   77  HIS77       0.1986
    112  NE2       10.7250  -22.3040   -1.4250 N.ar   77  HIS77      -0.2212
    113  N          3.0760  -24.2550    2.0480 N.3    79  ALA79      -0.1245
    114  CA         2.7730  -24.6640    3.4050 C.3    79  ALA79       0.1562
    115  C          1.3310  -24.1830    3.6040 C.2    79  ALA79       0.2260
    116  O          0.9180  -23.1910    2.9980 O.2    79  ALA79      -0.2867
    117  CB         3.7390  -24.0270    4.4020 C.3    79  ALA79       0.0290
    118  N         -0.6470  -22.0480    5.5430 N.3    81  PRO81      -0.2116
    119  CA        -0.4390  -20.9120    6.4850 C.3    81  PRO81       0.1372
    120  C         -1.4090  -20.9450    7.6810 C.2    81  PRO81       0.2244
    121  O         -2.6410  -21.1200    7.4890 O.2    81  PRO81      -0.2868
    122  CB        -0.7070  -19.6840    5.6220 C.3    81  PRO81       0.0268
    123  CG        -1.7230  -20.1570    4.6090 C.3    81  PRO81       0.0207
    124  CD        -1.3250  -21.6020    4.3050 C.3    81  PRO81       0.0892
@<TRIPOS>BOND
     1    86    84    1
     2    84    81    1
     3    84    85    1
     4    82    83    2
     5    82    81    1
     6    87    85    1
     7    88    89    1
     8    95    96    2
     9    95    94    1
    10   103   104    1
    11    81    80    1
    12    89    90    1
    13    89    92    1
    14    93    90   am
    15    93    94    1
    16    80    77   am
    17    90    91    2
    18    94    97    1
    19    97    98    1
    20    75    76    1
    21   106   105    2
    22   104   105    1
    23   104   107    1
    24    73    72    2
    25    59    58    2
    26    77    78    2
    27    77    76    1
    28    72    71    1
    29    56    57    1
    30   111   109   ar
    31   111   112   ar
    32   109   108   ar
    33   112   110   ar
    34   108   110   ar
    35   108   107    1
    36    57    58    1
    37    57    60    1
    38    58    70   am
    39    76    79    1
    40    98    99   ar
    41    98   100   ar
    42    99   101   ar
    43    70    71    1
    44    71    74    1
    45   100   102   ar
    46   101   102   ar
    47    60    61    1
    48    62    61   ar
    49    62    64   ar
    50    48    47    2
    51    61    63   ar
    52    47    46    1
    53    64    65   ar
    54    63    65   ar
    55    63    66   ar
    56    45    46    1
    57    65    67   ar
    58   113   114    1
    59    46    49    1
    60    66    68   ar
    61    36    35    2
    62    31    30    1
    63    67    69   ar
    64   116   115    2
    65    32    30    1
    66    52    54   ar
    67    52    50   ar
    68    54    55   ar
    69    49    50    1
    70   114   115    1
    71   114   117    1
    72    68    69   ar
    73    50    51   ar
    74    30    29    2
    75    41    40    2
    76    35    34    1
    77    35    38   am
    78    55    53   ar
    79    51    53   ar
    80    39    40    1
    81    39    38    1
    82    39    42    1
    83    43    42    1
    84   124   123    1
    85   124   118    1
    86    34    37    1
    87    34    33    1
    88   123   122    1
    89    29    28    1
    90    42    44    1
    91    28    27    1
    92   118   119    1
    93   122   119    1
    94    27    26    1
    95    21    19   ar
    96    21    20   ar
    97   119   120    1
    98    26    23    1
    99    19    17   ar
   100    20    18   ar
   101    25    24    2
   102   121   120    2
   103    23    24    1
   104    23    22    1
   105    10     9    1
   106    15    14    2
   107    17    18   ar
   108    17    16    1
   109     9    11    1
   110     9     8    2
   111    22    14   am
   112    14    13    1
   113     8     7    1
   114     7     6    1
   115    16    13    1
   116     4     3    2
   117    13    12    1
   118     6     5    1
   119     5     2    1
   120     3     2    1
   121     2     1    1
