@<TRIPOS>MOLECULE
tmp/3hxbB00.pdb
 228 227 0 0 0
SMALL
GASTEIGER

@<TRIPOS>ATOM
      1  N          7.5520   27.4360   35.1590 N.3    37  TYR37      -0.1227
      2  CA         8.7380   27.2600   34.2830 C.3    37  TYR37       0.1736
      3  C          8.4100   27.4310   32.7730 C.2    37  TYR37       0.2595
      4  O          9.3130   27.4230   31.9430 O.2    37  TYR37      -0.2718
      5  CB         9.4190   25.8790   34.5500 C.3    37  TYR37       0.0548
      6  CG         8.6670   24.7170   33.9300 C.ar   37  TYR37      -0.0200
      7  CD1        7.6700   24.0510   34.6220 C.ar   37  TYR37      -0.0009
      8  CD2        8.9240   24.3230   32.6330 C.ar   37  TYR37      -0.0009
      9  CE1        6.9640   22.9980   34.0360 C.ar   37  TYR37       0.0417
     10  CE2        8.2160   23.2890   32.0410 C.ar   37  TYR37       0.0417
     11  CZ         7.2430   22.6320   32.7500 C.ar   37  TYR37       0.1957
     12  OH         6.5520   21.6240   32.1290 O.3    37  TYR37      -0.2866
     13  N          7.1310   27.5760   32.4270 N.am   38  LEU38      -0.1980
     14  CA         6.7290   27.8080   31.0570 C.3    38  LEU38       0.1596
     15  C          5.6450   28.8940   30.9770 C.2    38  LEU38       0.2287
     16  O          4.8530   28.9100   30.0390 O.2    38  LEU38      -0.2864
     17  CB         6.2110   26.4950   30.4590 C.3    38  LEU38       0.0297
     18  CG         5.0090   25.8240   31.1500 C.3    38  LEU38       0.0022
     19  CD1        3.6550   26.4780   30.8210 C.3    38  LEU38       0.0001
     20  CD2        4.9620   24.3630   30.7780 C.3    38  LEU38       0.0001
     21  N          4.9110   31.0390   27.8740 N.3    41  SER41      -0.1217
     22  CA         4.3210   30.3610   26.7060 C.3    41  SER41       0.1889
     23  C          2.8680   30.0780   27.0550 C.2    41  SER41       0.2288
     24  O          2.0100   30.2210   26.2180 O.2    41  SER41      -0.2866
     25  CB         5.0890   29.0670   26.3390 C.3    41  SER41       0.2089
     26  OG         6.4420   29.3260   25.9370 O.3    41  SER41      -0.2183
     27  N          1.0540   33.1090   26.2110 N.3    44  TYR44      -0.1227
     28  CA         0.8660   33.0690   24.7290 C.3    44  TYR44       0.1736
     29  C         -0.3370   32.2080   24.3180 C.2    44  TYR44       0.2595
     30  O         -1.1690   32.6160   23.4970 O.2    44  TYR44      -0.2718
     31  CB         2.1650   32.6050   24.0330 C.3    44  TYR44       0.0548
     32  CG         1.9520   32.0520   22.6720 C.ar   44  TYR44      -0.0200
     33  CD1        1.5170   32.8450   21.6200 C.ar   44  TYR44      -0.0009
     34  CD2        2.1480   30.6970   22.4470 C.ar   44  TYR44      -0.0009
     35  CE1        1.2730   32.2760   20.3500 C.ar   44  TYR44       0.0417
     36  CE2        1.9600   30.1090   21.2130 C.ar   44  TYR44       0.0417
     37  CZ         1.5080   30.8820   20.1670 C.ar   44  TYR44       0.1957
     38  OH         1.3330   30.2080   18.9920 O.3    44  TYR44      -0.2866
     39  N         -0.4310   31.0100   24.8890 N.am   45  TRP45      -0.1976
     40  CA        -1.4900   30.0810   24.5040 C.3    45  TRP45       0.1640
     41  C         -2.8850   30.6340   24.8450 C.2    45  TRP45       0.2290
     42  O         -3.8120   30.5370   24.0490 O.2    45  TRP45      -0.2864
     43  CB        -1.2890   28.7410   25.2240 C.3    45  TRP45       0.0576
     44  CG         0.0150   28.0700   24.9570 C.ar   45  TRP45       0.0006
     45  CD1        0.7590   28.1200   23.8120 C.ar   45  TRP45       0.0946
     46  CD2        0.7210   27.2270   25.8530 C.ar   45  TRP45       0.0152
     47  NE1        1.8630   27.3490   23.9480 N.ar   45  TRP45      -0.2442
     48  CE2        1.8630   26.7880   25.1960 C.ar   45  TRP45       0.0810
     49  CE3        0.4770   26.7830   27.1580 C.ar   45  TRP45       0.0012
     50  CZ2        2.7940   25.9710   25.8010 C.ar   45  TRP45       0.0191
     51  CZ3        1.3840   25.9420   27.7480 C.ar   45  TRP45       0.0001
     52  CH2        2.5370   25.5460   27.0710 C.ar   45  TRP45       0.0015
     53  N         12.7630   29.6160   23.5140 N.3    89  LEU89      -0.1231
     54  CA        11.3410   29.2440   23.4910 C.3    89  LEU89       0.1693
     55  C         10.4740   30.3640   24.0110 C.2    89  LEU89       0.2592
     56  O          9.3660   30.5240   23.5620 O.2    89  LEU89      -0.2718
     57  CB        11.0790   28.0350   24.3840 C.3    89  LEU89       0.0284
     58  CG        11.5050   26.7150   23.8670 C.3    89  LEU89       0.0019
     59  CD1       11.7400   25.7690   25.0520 C.3    89  LEU89       0.0001
     60  CD2       10.5090   26.1180   22.7960 C.3    89  LEU89       0.0001
     61  N         10.9770   31.0790   25.0340 N.am   90  TYR90      -0.1976
     62  CA        10.1920   32.0550   25.7610 C.3    90  TYR90       0.1639
     63  C         10.4140   33.4060   25.1600 C.2    90  TYR90       0.2290
     64  O          9.5180   34.2810   25.2340 O.2    90  TYR90      -0.2864
     65  CB        10.4640   31.9550   27.2440 C.3    90  TYR90       0.0560
     66  CG        10.2940   30.5060   27.6980 C.ar   90  TYR90      -0.0198
     67  CD1        9.0310   29.8660   27.6600 C.ar   90  TYR90      -0.0009
     68  CD2       11.3770   29.7780   28.1680 C.ar   90  TYR90      -0.0009
     69  CE1        8.8910   28.5310   28.0430 C.ar   90  TYR90       0.0417
     70  CE2       11.2420   28.4290   28.5380 C.ar   90  TYR90       0.0417
     71  CZ         9.9940   27.8120   28.4860 C.ar   90  TYR90       0.1957
     72  OH         9.9000   26.4540   28.8590 O.3    90  TYR90      -0.2866
     73  N         10.5540   33.5230   21.7850 N.3    92  LEU92      -0.1231
     74  CA         9.5200   33.4150   20.7760 C.3    92  LEU92       0.1693
     75  C          8.1590   33.8000   21.3250 C.2    92  LEU92       0.2592
     76  O          7.4370   34.5960   20.7290 O.2    92  LEU92      -0.2718
     77  CB         9.4530   31.9980   20.1940 C.3    92  LEU92       0.0284
     78  CG         8.3090   31.7060   19.2160 C.3    92  LEU92       0.0019
     79  CD1        8.4030   32.7170   18.0870 C.3    92  LEU92       0.0001
     80  CD2        8.2720   30.2960   18.6580 C.3    92  LEU92       0.0001
     81  N          7.7790   33.2010   22.4380 N.am   93  SER93      -0.1952
     82  CA         6.4420   33.3780   23.0130 C.3    93  SER93       0.1924
     83  C          6.1400   34.8300   23.3830 C.2    93  SER93       0.2314
     84  O          5.0010   35.2770   23.2130 O.2    93  SER93      -0.2863
     85  CB         6.2880   32.5080   24.2580 C.3    93  SER93       0.2116
     86  OG         6.2550   31.0990   23.9560 O.3    93  SER93      -0.2180
     87  N          5.7150   36.7240   20.1650 N.3    96  GLN96      -0.1245
     88  CA         4.3920   36.4010   19.6180 C.3    96  GLN96       0.1566
     89  C          3.3180   37.1900   20.3290 C.2    96  GLN96       0.2260
     90  O          2.4380   37.7100   19.6830 O.2    96  GLN96      -0.2867
     91  CB         4.0620   34.9430   19.7420 C.3    96  GLN96       0.0367
     92  CG         4.8840   34.1590   18.8070 C.3    96  GLN96       0.0905
     93  CD         4.6640   32.7030   18.9290 C.2    96  GLN96       0.2608
     94  OE1        4.0950   32.0620   18.0260 O.2    96  GLN96      -0.2717
     95  NE2        5.0910   32.1520   20.0440 N.am   96  GLN96      -0.0878
     96  N         13.8230   22.4890   16.9210 N.3   137  ARG137     -0.1245
     97  CA        12.8010   23.3430   17.5740 C.3   137  ARG137      0.1563
     98  C         13.3240   24.7690   17.6410 C.2   137  ARG137      0.2260
     99  O         12.5640   25.7170   17.4530 O.2   137  ARG137     -0.2867
    100  CB        12.4530   22.8810   18.9740 C.3   137  ARG137      0.0307
    101  CG        11.3550   21.8040   19.0500 C.3   137  ARG137      0.0489
    102  CD        11.0950   21.3850   20.5530 C.3   137  ARG137      0.2205
    103  NE        12.3030   20.7910   21.1340 N.pl3 137  ARG137     -0.0865
    104  CZ        12.7960   21.0240   22.3560 C.cat 137  ARG137      0.5346
    105  NH1       12.2070   21.8330   23.2280 N.pl3 137  ARG137      0.1354
    106  NH2       13.9320   20.4420   22.6980 N.pl3 137  ARG137      0.1354
    107  N         13.4580   26.8190   14.4110 N.3   140  PHE140     -0.1227
    108  CA        12.1410   27.4950   14.2080 C.3   140  PHE140      0.1736
    109  C         11.9380   28.7190   15.1280 C.2   140  PHE140      0.2595
    110  O         11.4560   29.7950   14.7190 O.2   140  PHE140     -0.2718
    111  CB        10.9930   26.4760   14.3510 C.3   140  PHE140      0.0547
    112  CG         9.6370   27.1120   14.3810 C.ar  140  PHE140     -0.0202
    113  CD1        9.1020   27.6670   13.2220 C.ar  140  PHE140     -0.0042
    114  CD2        8.9470   27.2390   15.5820 C.ar  140  PHE140     -0.0042
    115  CE1        7.8770   28.3310   13.2520 C.ar  140  PHE140     -0.0003
    116  CE2        7.7100   27.8570   15.6330 C.ar  140  PHE140     -0.0003
    117  CZ         7.1680   28.4280   14.5000 C.ar  140  PHE140     -0.0000
    118  N         12.2470   28.5530   16.4000 N.am  141  CYS141     -0.1970
    119  CA        12.1090   29.6500   17.3380 C.3   141  CYS141      0.1712
    120  C         12.9400   30.8150   16.9020 C.2   141  CYS141      0.2296
    121  O         12.4980   31.9670   17.0540 O.2   141  CYS141     -0.2864
    122  CB        12.5520   29.2650   18.7240 C.3   141  CYS141      0.0983
    123  SG        11.4390   28.1010   19.5590 S.3   141  CYS141     -0.0798
    124  N          9.2920   12.8820   13.7060 N.3   183  HIS183     -0.1241
    125  CA         8.2950   13.0560   14.7460 C.3   183  HIS183      0.1621
    126  C          7.4140   14.2220   14.3610 C.2   183  HIS183      0.2264
    127  O          7.9050   15.2550   13.9340 O.2   183  HIS183     -0.2867
    128  CB         9.0640   13.2810   16.0800 C.3   183  HIS183      0.0745
    129  CG         8.2200   13.8040   17.1810 C.ar  183  HIS183      0.0817
    130  ND1        7.5640   12.9740   18.0630 N.ar  183  HIS183     -0.2268
    131  CD2        7.8860   15.0650   17.5320 C.ar  183  HIS183      0.1154
    132  CE1        6.8310   13.7030   18.8930 C.ar  183  HIS183      0.1986
    133  NE2        6.9930   14.9760   18.5760 N.ar  183  HIS183     -0.2212
    134  N          6.0470   16.7120   15.9210 N.3   185  GLY185     -0.1210
    135  CA         6.3590   18.0600   16.5000 C.3   185  GLY185      0.1956
    136  C          7.5340   18.7040   15.7850 C.2   185  GLY185      0.2611
    137  O          7.5540   19.9520   15.5330 O.2   185  GLY185     -0.2717
    138  N          8.5070   17.8710   15.4360 N.am  186  GLN186     -0.1979
    139  CA         9.7160   18.2820   14.6510 C.3   186  GLN186      0.1601
    140  C          9.4570   18.5520   13.1920 C.2   186  GLN186      0.2287
    141  O         10.0000   19.4830   12.6120 O.2   186  GLN186     -0.2864
    142  CB        10.7510   17.2020   14.6570 C.3   186  GLN186      0.0394
    143  CG        11.1680   16.6580   16.0520 C.3   186  GLN186      0.0908
    144  CD        11.8280   17.6830   16.9560 C.2   186  GLN186      0.2608
    145  OE1       12.4920   18.6700   16.5050 O.2   186  GLN186     -0.2717
    146  NE2       11.6700   17.4510   18.2460 N.am  186  GLN186     -0.0878
    147  N          6.5000   19.7190   12.1190 N.3   188  TYR188     -0.1227
    148  CA         5.9220   21.0870   12.2570 C.3   188  TYR188      0.1736
    149  C          6.9960   22.1960   12.3370 C.2   188  TYR188      0.2595
    150  O          6.9510   23.1890   11.5990 O.2   188  TYR188     -0.2718
    151  CB         5.0640   21.0900   13.5120 C.3   188  TYR188      0.0548
    152  CG         4.3740   22.4010   13.8890 C.ar  188  TYR188     -0.0200
    153  CD1        3.2310   22.8430   13.2410 C.ar  188  TYR188     -0.0009
    154  CD2        4.8840   23.1710   14.9510 C.ar  188  TYR188     -0.0009
    155  CE1        2.6090   24.0630   13.6290 C.ar  188  TYR188      0.0417
    156  CE2        4.3580   24.3210   15.3180 C.ar  188  TYR188      0.0417
    157  CZ         3.1840   24.7900   14.6780 C.ar  188  TYR188      0.1957
    158  OH         2.6490   25.9820   15.1620 O.3   188  TYR188     -0.2866
    159  N          7.9880   22.0230   13.2070 N.am  189  CYS189     -0.1970
    160  CA         9.0490   23.0360   13.3880 C.3   189  CYS189      0.1712
    161  C          9.8530   23.2590   12.1580 C.2   189  CYS189      0.2296
    162  O         10.1360   24.3740   11.7780 O.2   189  CYS189     -0.2864
    163  CB        10.0050   22.5690   14.4830 C.3   189  CYS189      0.0983
    164  SG         9.2360   22.9280   15.9730 S.3   189  CYS189     -0.0798
    165  N         -2.7390   17.6920   20.5100 N.3   233  CYS233     -0.1221
    166  CA        -1.4660   18.3930   20.2690 C.3   233  CYS233      0.1808
    167  C         -0.9500   17.9370   18.9310 C.2   233  CYS233      0.2601
    168  O         -0.8260   18.7230   17.9960 O.2   233  CYS233     -0.2717
    169  CB        -0.4450   18.0300   21.3530 C.3   233  CYS233      0.0970
    170  SG         1.0960   18.7760   21.1670 S.3   233  CYS233     -0.0800
    171  N         -0.7110   16.6240   18.8390 N.am  234  TYR234     -0.1976
    172  CA        -0.3260   16.0050   17.5710 C.3   234  TYR234      0.1639
    173  C         -1.3470   16.2980   16.5040 C.2   234  TYR234      0.2290
    174  O         -0.9890   16.4820   15.3470 O.2   234  TYR234     -0.2864
    175  CB         0.0020   14.4960   17.7510 C.3   234  TYR234      0.0560
    176  CG         1.2350   14.4110   18.5980 C.ar  234  TYR234     -0.0198
    177  CD1        2.3880   15.1180   18.2170 C.ar  234  TYR234     -0.0009
    178  CD2        1.2560   13.7280   19.7810 C.ar  234  TYR234     -0.0009
    179  CE1        3.5590   15.1260   19.0060 C.ar  234  TYR234      0.0417
    180  CE2        2.4310   13.7320   20.5930 C.ar  234  TYR234      0.0417
    181  CZ         3.5850   14.4300   20.1860 C.ar  234  TYR234      0.1957
    182  OH         4.7650   14.4660   20.9600 O.3   234  TYR234     -0.2866
    183  N         -0.1950   19.8310   15.1460 N.3   237  TRP237     -0.1241
    184  CA         1.1000   19.7130   14.4160 C.3   237  TRP237      0.1605
    185  C          1.0170   19.0480   13.0690 C.2   237  TRP237      0.2264
    186  O          1.5980   19.5390   12.0800 O.2   237  TRP237     -0.2867
    187  CB         2.1540   19.0270   15.2970 C.3   237  TRP237      0.0550
    188  CG         2.5410   19.9320   16.4520 C.ar  237  TRP237      0.0003
    189  CD1        2.4740   21.3340   16.4960 C.ar  237  TRP237      0.0946
    190  CD2        3.0580   19.5300   17.7120 C.ar  237  TRP237      0.0152
    191  NE1        2.8840   21.7720   17.7110 N.ar  237  TRP237     -0.2442
    192  CE2        3.2690   20.6950   18.4640 C.ar  237  TRP237      0.0810
    193  CE3        3.3940   18.2950   18.2640 C.ar  237  TRP237      0.0012
    194  CZ2        3.8030   20.6550   19.7320 C.ar  237  TRP237      0.0191
    195  CZ3        3.9050   18.2580   19.5310 C.ar  237  TRP237      0.0001
    196  CH2        4.1160   19.4170   20.2450 C.ar  237  TRP237      0.0015
    197  N         -3.0560   24.6910   26.9070 N.3   282  PHE282     -0.1227
    198  CA        -2.2200   24.2040   25.7780 C.3   282  PHE282      0.1736
    199  C         -3.1320   23.5360   24.7090 C.2   282  PHE282      0.2595
    200  O         -3.1650   23.9450   23.5560 O.2   282  PHE282     -0.2718
    201  CB        -1.1260   23.2410   26.3140 C.3   282  PHE282      0.0547
    202  CG        -0.1360   22.6810   25.2540 C.ar  282  PHE282     -0.0202
    203  CD1       -0.1360   21.3260   24.9360 C.ar  282  PHE282     -0.0042
    204  CD2        0.8480   23.4710   24.6980 C.ar  282  PHE282     -0.0042
    205  CE1        0.7650   20.7790   24.0200 C.ar  282  PHE282     -0.0003
    206  CE2        1.8010   22.9300   23.7770 C.ar  282  PHE282     -0.0003
    207  CZ         1.7480   21.5900   23.4340 C.ar  282  PHE282     -0.0000
    208  N         -3.9190   22.5570   25.1270 N.am  283  HIS283     -0.1975
    209  CA        -4.7880   21.8230   24.2060 C.3   283  HIS283      0.1656
    210  C         -6.0110   22.5950   23.8060 C.2   283  HIS283      0.2291
    211  O         -6.6840   22.2350   22.8460 O.2   283  HIS283     -0.2864
    212  CB        -5.1960   20.5000   24.8390 C.3   283  HIS283      0.0771
    213  CG        -4.0220   19.6600   25.1480 C.ar  283  HIS283      0.0820
    214  ND1       -3.3740   19.7280   26.3570 N.ar  283  HIS283     -0.2267
    215  CD2       -3.2970   18.8240   24.3690 C.ar  283  HIS283      0.1154
    216  CE1       -2.3190   18.9330   26.3290 C.ar  283  HIS283      0.1986
    217  NE2       -2.2570   18.3650   25.1360 N.ar  283  HIS283     -0.2212
    218  N         -4.6840   24.5910   20.6820 N.3   286  PHE286     -0.1241
    219  CA        -4.4380   23.6510   19.5570 C.3   286  PHE286      0.1605
    220  C         -5.7290   22.9590   19.0430 C.2   286  PHE286      0.2264
    221  O         -5.8290   22.6120   17.8550 O.2   286  PHE286     -0.2867
    222  CB        -3.3510   22.6440   19.9750 C.3   286  PHE286      0.0534
    223  CG        -1.9170   23.2390   19.9920 C.ar  286  PHE286     -0.0203
    224  CD1       -1.6690   24.5520   19.6020 C.ar  286  PHE286     -0.0042
    225  CD2       -0.8460   22.4530   20.3380 C.ar  286  PHE286     -0.0042
    226  CE1       -0.3880   25.0840   19.6100 C.ar  286  PHE286     -0.0003
    227  CE2        0.4630   22.9600   20.3330 C.ar  286  PHE286     -0.0003
    228  CZ         0.7000   24.2660   19.9820 C.ar  286  PHE286     -0.0000
@<TRIPOS>BOND
     1   150   149    2
     2   162   161    2
     3   186   185    2
     4   147   148    1
     5   161   160    1
     6   148   149    1
     7   148   151    1
     8   149   159   am
     9   141   140    2
    10   185   184    1
    11   140   139    1
    12   159   160    1
    13   113   115   ar
    14   113   112   ar
    15   153   155   ar
    16   153   152   ar
    17   115   117   ar
    18   160   163    1
    19   151   152    1
    20   155   157   ar
    21   124   125    1
    22   152   154   ar
    23   127   126    2
    24   108   111    1
    25   108   107    1
    26   108   109    1
    27   111   112    1
    28   126   125    1
    29   112   114   ar
    30   184   183    1
    31   184   187    1
    32   163   164    1
    33   117   116   ar
    34   139   142    1
    35   139   138    1
    36   142   143    1
    37   157   158    1
    38   157   156   ar
    39   110   109    2
    40   125   128    1
    41   154   156   ar
    42   109   118   am
    43   187   188    1
    44   174   173    2
    45   138   136   am
    46   137   136    2
    47   114   116   ar
    48   136   135    1
    49   134   135    1
    50   143   144    1
    51   128   129    1
    52   118   119    1
    53   188   189   ar
    54   188   190   ar
    55   189   191   ar
    56   173   172    1
    57   145   144    2
    58   120   121    2
    59   120   119    1
    60    96    97    1
    61   144   146   am
    62   129   131   ar
    63   129   130   ar
    64   119   122    1
    65    99    98    2
    66   131   133   ar
    67   172   175    1
    68   172   171    1
    69    97    98    1
    70    97   100    1
    71   191   192   ar
    72   190   193   ar
    73   190   192   ar
    74   175   176    1
    75   221   220    2
    76   168   167    2
    77    94    93    2
    78   130   132   ar
    79    79    78    1
    80   177   176   ar
    81   177   179   ar
    82   193   195   ar
    83   192   194   ar
    84   133   132   ar
    85   176   178   ar
    86    80    78    1
    87   122   123    1
    88    92    93    1
    89    92    91    1
    90   171   167   am
    91    93    95   am
    92   167   166    1
    93   100   101    1
    94    38    37    1
    95   179   181   ar
    96   220   219    1
    97   101   102    1
    98    78    77    1
    99   195   196   ar
   100   219   222    1
   101   219   218    1
   102   224   226   ar
   103   224   223   ar
   104   226   228   ar
   105    88    91    1
   106    88    87    1
   107    88    89    1
   108    90    89    2
   109   194   196   ar
   110   178   180   ar
   111   222   223    1
   112   228   227   ar
   113   223   225   ar
   114    37    35   ar
   115    37    36   ar
   116   181   180   ar
   117   181   182    1
   118    77    74    1
   119   166   165    1
   120   166   169    1
   121   227   225   ar
   122    35    33   ar
   123   102   103    1
   124    76    75    2
   125    74    75    1
   126    74    73    1
   127   103   104    2
   128   170   169    1
   129    36    34   ar
   130    75    81   am
   131    33    32   ar
   132   104   106    1
   133   104   105    1
   134    81    82    1
   135    34    32   ar
   136    32    31    1
   137    60    58    1
   138   211   210    2
   139    82    83    1
   140    82    85    1
   141    84    83    2
   142   207   206   ar
   143   207   205   ar
   144    54    53    1
   145    54    55    1
   146    54    57    1
   147    30    29    2
   148   200   199    2
   149    56    55    2
   150   206   204   ar
   151   210   209    1
   152    45    47   ar
   153    45    44   ar
   154    58    57    1
   155    58    59    1
   156    47    48   ar
   157    86    85    1
   158    55    61   am
   159   205   203   ar
   160    31    28    1
   161    42    41    2
   162   209   212    1
   163   209   208    1
   164    29    28    1
   165    29    39   am
   166   215   217   ar
   167   215   213   ar
   168    40    41    1
   169    40    39    1
   170    40    43    1
   171   204   202   ar
   172   199   208   am
   173   199   198    1
   174    28    27    1
   175   212   213    1
   176   203   202   ar
   177    44    43    1
   178    44    46   ar
   179    61    62    1
   180   217   216   ar
   181   213   214   ar
   182    63    64    2
   183    63    62    1
   184    48    50   ar
   185    48    46   ar
   186   202   201    1
   187    62    65    1
   188   198   201    1
   189   198   197    1
   190    50    52   ar
   191    46    49   ar
   192    26    25    1
   193    24    23    2
   194   216   214   ar
   195    25    22    1
   196    22    23    1
   197    22    21    1
   198    52    51   ar
   199    49    51   ar
   200    65    66    1
   201    67    66   ar
   202    67    69   ar
   203    66    68   ar
   204    69    71   ar
   205    68    70   ar
   206    71    70   ar
   207    71    72    1
   208    16    15    2
   209    17    14    1
   210    17    18    1
   211    20    18    1
   212    19    18    1
   213    15    14    1
   214    14    13    1
   215     4     3    2
   216    10     8   ar
   217    10    11   ar
   218    12    11    1
   219    13     3   am
   220     8     6   ar
   221    11     9   ar
   222     3     2    1
   223     6     5    1
   224     6     7   ar
   225     9     7   ar
   226     2     5    1
   227     2     1    1
