@<TRIPOS>MOLECULE
tmp/3hxdB00.pdb
 252 248 0 0 0
SMALL
GASTEIGER

@<TRIPOS>ATOM
      1  N          8.0640   27.4290   35.1750 N.3    37  TYR37      -0.1227
      2  CA         9.1840   27.3290   34.2440 C.3    37  TYR37       0.1736
      3  C          8.7960   27.5570   32.7670 C.2    37  TYR37       0.2595
      4  O          9.6740   27.7280   31.9380 O.2    37  TYR37      -0.2718
      5  CB         9.8900   25.9720   34.3950 C.3    37  TYR37       0.0548
      6  CG         9.0940   24.8120   33.8450 C.ar   37  TYR37      -0.0200
      7  CD1        8.1670   24.1440   34.6390 C.ar   37  TYR37      -0.0009
      8  CD2        9.2550   24.3930   32.5320 C.ar   37  TYR37      -0.0009
      9  CE1        7.4340   23.0880   34.1480 C.ar   37  TYR37       0.0417
     10  CE2        8.5150   23.3360   32.0280 C.ar   37  TYR37       0.0417
     11  CZ         7.6090   22.6860   32.8500 C.ar   37  TYR37       0.1957
     12  OH         6.8460   21.6460   32.3770 O.3    37  TYR37      -0.2866
     13  N          7.5050   27.5250   32.4330 N.am   38  LEU38      -0.1980
     14  CA         7.0610   27.7960   31.0450 C.3    38  LEU38       0.1596
     15  C          6.0240   28.9110   30.9410 C.2    38  LEU38       0.2287
     16  O          5.3330   29.0350   29.9120 O.2    38  LEU38      -0.2864
     17  CB         6.5360   26.5090   30.3940 C.3    38  LEU38       0.0297
     18  CG         5.4260   25.7310   31.0960 C.3    38  LEU38       0.0022
     19  CD1        4.1300   26.5100   31.1430 C.3    38  LEU38       0.0001
     20  CD2        5.2250   24.3830   30.3740 C.3    38  LEU38       0.0001
     21  N          5.1980   30.9850   27.8480 N.3    41  SER41      -0.1217
     22  CA         4.5160   30.2340   26.7740 C.3    41  SER41       0.1889
     23  C          3.0480   30.0220   27.1020 C.2    41  SER41       0.2288
     24  O          2.1660   30.1570   26.2300 O.2    41  SER41      -0.2866
     25  CB         5.2400   28.9100   26.4890 C.3    41  SER41       0.2089
     26  OG         6.5040   29.1800   25.8860 O.3    41  SER41      -0.2183
     27  N          1.2720   33.0100   26.2390 N.3    44  TYR44      -0.1227
     28  CA         1.1070   33.0380   24.7800 C.3    44  TYR44       0.1736
     29  C         -0.0840   32.1450   24.3590 C.2    44  TYR44       0.2595
     30  O         -0.9080   32.5550   23.5440 O.2    44  TYR44      -0.2718
     31  CB         2.4300   32.6650   24.0500 C.3    44  TYR44       0.0548
     32  CG         2.2020   32.0530   22.6860 C.ar   44  TYR44      -0.0200
     33  CD1        1.7350   32.8210   21.6210 C.ar   44  TYR44      -0.0009
     34  CD2        2.4040   30.6910   22.4750 C.ar   44  TYR44      -0.0009
     35  CE1        1.4760   32.2380   20.3650 C.ar   44  TYR44       0.0417
     36  CE2        2.1530   30.1000   21.2290 C.ar   44  TYR44       0.0417
     37  CZ         1.6920   30.8780   20.1860 C.ar   44  TYR44       0.1957
     38  OH         1.4390   30.2770   18.9700 O.3    44  TYR44      -0.2866
     39  N         -0.1980   30.9490   24.9360 N.am   45  TRP45      -0.1976
     40  CA        -1.2670   30.0190   24.5520 C.3    45  TRP45       0.1640
     41  C         -2.6250   30.6360   24.8850 C.2    45  TRP45       0.2290
     42  O         -3.5440   30.6330   24.0710 O.2    45  TRP45      -0.2864
     43  CB        -1.1060   28.6610   25.2590 C.3    45  TRP45       0.0576
     44  CG         0.2160   27.9720   25.0050 C.ar   45  TRP45       0.0006
     45  CD1        0.9360   28.0150   23.8710 C.ar   45  TRP45       0.0946
     46  CD2        0.9690   27.1680   25.9260 C.ar   45  TRP45       0.0152
     47  NE1        2.0840   27.2790   24.0030 N.ar   45  TRP45      -0.2442
     48  CE2        2.1370   26.7540   25.2560 C.ar   45  TRP45       0.0810
     49  CE3        0.7630   26.7500   27.2430 C.ar   45  TRP45       0.0012
     50  CZ2        3.1060   25.9480   25.8600 C.ar   45  TRP45       0.0191
     51  CZ3        1.7170   25.9530   27.8430 C.ar   45  TRP45       0.0001
     52  CH2        2.8790   25.5580   27.1500 C.ar   45  TRP45       0.0015
     53  N         12.9460   29.6090   23.4050 N.3    89  LEU89      -0.1231
     54  CA        11.5470   29.2340   23.4570 C.3    89  LEU89       0.1693
     55  C         10.6970   30.4190   23.9620 C.2    89  LEU89       0.2592
     56  O          9.6770   30.7630   23.3670 O.2    89  LEU89      -0.2718
     57  CB        11.3420   28.0110   24.3610 C.3    89  LEU89       0.0284
     58  CG        11.8700   26.6610   23.8590 C.3    89  LEU89       0.0019
     59  CD1       11.9290   25.6360   25.0180 C.3    89  LEU89       0.0001
     60  CD2       11.0130   26.1470   22.7270 C.3    89  LEU89       0.0001
     61  N         11.1570   31.0610   25.0310 N.am   90  TYR90      -0.1976
     62  CA        10.3730   32.1230   25.7080 C.3    90  TYR90       0.1639
     63  C         10.5920   33.4910   25.0770 C.2    90  TYR90       0.2290
     64  O          9.7340   34.3920   25.1670 O.2    90  TYR90      -0.2864
     65  CB        10.6880   32.0970   27.2040 C.3    90  TYR90       0.0560
     66  CG        10.5700   30.6850   27.6990 C.ar   90  TYR90      -0.0198
     67  CD1        9.3650   29.9900   27.5680 C.ar   90  TYR90      -0.0009
     68  CD2       11.6710   30.0110   28.2170 C.ar   90  TYR90      -0.0009
     69  CE1        9.2530   28.6790   27.9780 C.ar   90  TYR90       0.0417
     70  CE2       11.5780   28.6880   28.6090 C.ar   90  TYR90       0.0417
     71  CZ        10.3680   28.0320   28.4890 C.ar   90  TYR90       0.1957
     72  OH        10.2580   26.7330   28.8890 O.3    90  TYR90      -0.2866
     73  N         10.7460   33.6290   21.7420 N.3    92  LEU92      -0.1231
     74  CA         9.7200   33.5370   20.7070 C.3    92  LEU92       0.1693
     75  C          8.3450   33.8450   21.2740 C.2    92  LEU92       0.2592
     76  O          7.6240   34.6800   20.7240 O.2    92  LEU92      -0.2718
     77  CB         9.6910   32.1560   20.0660 C.3    92  LEU92       0.0284
     78  CG         8.5410   31.8650   19.0910 C.3    92  LEU92       0.0019
     79  CD1        8.4750   32.9040   17.9910 C.3    92  LEU92       0.0001
     80  CD2        8.7010   30.4680   18.5280 C.3    92  LEU92       0.0001
     81  N          7.9650   33.1590   22.3510 N.am   93  SER93      -0.1952
     82  CA         6.6640   33.3880   22.9710 C.3    93  SER93       0.1924
     83  C          6.4300   34.8550   23.2890 C.2    93  SER93       0.2314
     84  O          5.3640   35.3880   22.9790 O.2    93  SER93      -0.2863
     85  CB         6.4970   32.5330   24.2330 C.3    93  SER93       0.2116
     86  OG         6.4140   31.1610   23.8790 O.3    93  SER93      -0.2180
     87  N          5.8250   36.8030   20.1290 N.3    96  GLN96      -0.1245
     88  CA         4.5050   36.5110   19.5750 C.3    96  GLN96       0.1566
     89  C          3.4150   37.3040   20.3260 C.2    96  GLN96       0.2260
     90  O          2.5110   37.8730   19.7080 O.2    96  GLN96      -0.2867
     91  CB         4.2140   35.0160   19.6390 C.3    96  GLN96       0.0367
     92  CG         5.0290   34.1410   18.6520 C.3    96  GLN96       0.0905
     93  CD         4.7860   32.6680   18.8870 C.2    96  GLN96       0.2608
     94  OE1        5.1550   32.1250   19.9400 O.2    96  GLN96      -0.2717
     95  NE2        4.1420   32.0030   17.9190 N.am   96  GLN96      -0.0878
     96  N         13.7960   22.4960   16.8260 N.3   137  ARG137     -0.1245
     97  CA        12.8370   23.3900   17.5050 C.3   137  ARG137      0.1563
     98  C         13.3690   24.8120   17.5810 C.2   137  ARG137      0.2260
     99  O         12.6140   25.7770   17.4460 O.2   137  ARG137     -0.2867
    100  CB        12.5770   22.9480   18.9500 C.3   137  ARG137      0.0307
    101  CG        11.4720   21.9890   19.1630 C.3   137  ARG137      0.0489
    102  CD        11.2970   21.7170   20.6700 C.3   137  ARG137      0.2205
    103  NE        12.4820   21.0440   21.2200 N.pl3 137  ARG137     -0.0865
    104  CZ        12.9800   21.2190   22.4470 C.cat 137  ARG137      0.5346
    105  NH1       12.4170   22.0600   23.3150 N.pl3 137  ARG137      0.1354
    106  NH2       14.0770   20.5620   22.8040 N.pl3 137  ARG137      0.1354
    107  N         13.5370   26.8760   14.2910 N.3   140  PHE140     -0.1227
    108  CA        12.2360   27.4930   14.0820 C.3   140  PHE140      0.1736
    109  C         12.0380   28.7140   15.0050 C.2   140  PHE140      0.2595
    110  O         11.6310   29.7820   14.5420 O.2   140  PHE140     -0.2718
    111  CB        11.0720   26.5010   14.2800 C.3   140  PHE140      0.0547
    112  CG         9.7350   27.1550   14.1760 C.ar  140  PHE140     -0.0202
    113  CD1        9.2520   27.5680   12.9390 C.ar  140  PHE140     -0.0042
    114  CD2        8.9940   27.4490   15.3030 C.ar  140  PHE140     -0.0042
    115  CE1        8.0390   28.2270   12.8350 C.ar  140  PHE140     -0.0003
    116  CE2        7.7700   28.1110   15.1980 C.ar  140  PHE140     -0.0003
    117  CZ         7.2990   28.4920   13.9620 C.ar  140  PHE140     -0.0000
    118  N         12.3270   28.5650   16.3010 N.am  141  CYS141     -0.1970
    119  CA        12.2070   29.6950   17.2460 C.3   141  CYS141      0.1712
    120  C         13.0090   30.8910   16.7600 C.2   141  CYS141      0.2296
    121  O         12.5530   32.0420   16.8450 O.2   141  CYS141     -0.2864
    122  CB        12.6900   29.3160   18.6480 C.3   141  CYS141      0.0983
    123  SG        11.5900   28.1900   19.4860 S.3   141  CYS141     -0.0798
    124  N          9.3100   12.9460   13.7240 N.3   183  HIS183     -0.1241
    125  CA         8.3250   13.1960   14.7760 C.3   183  HIS183      0.1621
    126  C          7.4850   14.4160   14.3340 C.2   183  HIS183      0.2264
    127  O          8.0420   15.3980   13.8320 O.2   183  HIS183     -0.2867
    128  CB         9.0980   13.4230   16.0990 C.3   183  HIS183      0.0745
    129  CG         8.2570   13.8690   17.2560 C.ar  183  HIS183      0.0817
    130  ND1        8.0890   13.1130   18.3960 N.ar  183  HIS183     -0.2268
    131  CD2        7.5540   15.0060   17.4590 C.ar  183  HIS183      0.1154
    132  CE1        7.3040   13.7590   19.2430 C.ar  183  HIS183      0.1986
    133  NE2        6.9480   14.9030   18.6900 N.ar  183  HIS183     -0.2212
    134  N          6.0650   16.9400   15.7940 N.3   185  GLY185     -0.1210
    135  CA         6.5240   18.1880   16.4080 C.3   185  GLY185      0.1956
    136  C          7.6780   18.8170   15.6590 C.2   185  GLY185      0.2611
    137  O          7.6550   20.0100   15.3410 O.2   185  GLY185     -0.2717
    138  N          8.6850   17.9980   15.3830 N.am  186  GLN186     -0.1979
    139  CA         9.8720   18.3930   14.6210 C.3   186  GLN186      0.1601
    140  C          9.5810   18.7210   13.1640 C.2   186  GLN186      0.2287
    141  O         10.1820   19.6240   12.5810 O.2   186  GLN186     -0.2864
    142  CB        10.8750   17.2470   14.6750 C.3   186  GLN186      0.0394
    143  CG        12.1710   17.4780   15.4080 C.3   186  GLN186      0.0908
    144  CD        12.1380   18.2560   16.6810 C.2   186  GLN186      0.2608
    145  OE1       11.6630   17.7940   17.7230 O.2   186  GLN186     -0.2717
    146  NE2       12.7550   19.4110   16.6400 N.am  186  GLN186     -0.0878
    147  N          6.6410   19.9420   12.1370 N.3   188  TYR188     -0.1227
    148  CA         6.0400   21.2660   12.2040 C.3   188  TYR188      0.1736
    149  C          7.1150   22.3540   12.2750 C.2   188  TYR188      0.2595
    150  O          7.0760   23.3230   11.5360 O.2   188  TYR188     -0.2718
    151  CB         5.0790   21.3690   13.3990 C.3   188  TYR188      0.0548
    152  CG         4.6990   22.7900   13.6780 C.ar  188  TYR188     -0.0200
    153  CD1        3.7050   23.4190   12.9410 C.ar  188  TYR188     -0.0009
    154  CD2        5.3670   23.5280   14.6580 C.ar  188  TYR188     -0.0009
    155  CE1        3.3620   24.7500   13.1880 C.ar  188  TYR188      0.0417
    156  CE2        5.0420   24.8680   14.9080 C.ar  188  TYR188      0.0417
    157  CZ         4.0440   25.4720   14.1640 C.ar  188  TYR188      0.1957
    158  OH         3.7190   26.7960   14.4110 O.3   188  TYR188     -0.2866
    159  N          8.1000   22.1770   13.1350 N.am  189  CYS189     -0.1970
    160  CA         9.1820   23.1660   13.2930 C.3   189  CYS189      0.1712
    161  C          9.9800   23.3390   11.9990 C.2   189  CYS189      0.2296
    162  O         10.2830   24.4560   11.5820 O.2   189  CYS189     -0.2864
    163  CB        10.1120   22.7490   14.4300 C.3   189  CYS189      0.0983
    164  SG         9.3380   22.9510   16.0120 S.3   189  CYS189     -0.0798
    165  N         -3.6650   12.4740   20.1130 N.3   231  ASP231     -0.1239
    166  CA        -3.6360   13.5600   21.0940 C.3   231  ASP231      0.1674
    167  C         -4.0670   14.8140   20.3250 C.2   231  ASP231      0.2266
    168  O         -3.6800   15.0050   19.1640 O.2   231  ASP231     -0.2867
    169  CB        -2.2120   13.6730   21.6530 C.3   231  ASP231      0.1410
    170  CG        -1.9930   14.8570   22.5690 C.2   231  ASP231      0.3668
    171  OD1       -2.7400   15.8620   22.5300 O.co2 231  ASP231     -0.2456
    172  OD2       -1.0180   14.7780   23.3530 O.co2 231  ASP231     -0.2456
    173  N         -3.1600   17.7590   20.4000 N.3   233  CYS233     -0.1221
    174  CA        -2.0450   18.6250   19.9990 C.3   233  CYS233      0.1808
    175  C         -1.1580   18.0230   18.8970 C.2   233  CYS233      0.2601
    176  O         -0.6980   18.7470   18.0210 O.2   233  CYS233     -0.2717
    177  CB        -1.2000   19.0080   21.2070 C.3   233  CYS233      0.0970
    178  SG         0.2970   18.0590   21.4330 S.3   233  CYS233     -0.0800
    179  N         -0.9040   16.7200   18.9300 N.am  234  TYR234     -0.1976
    180  CA        -0.2400   16.1100   17.7800 C.3   234  TYR234      0.1639
    181  C         -1.1220   16.2730   16.5850 C.2   234  TYR234      0.2290
    182  O         -0.6530   16.4110   15.4500 O.2   234  TYR234     -0.2864
    183  CB         0.1340   14.6570   18.0210 C.3   234  TYR234      0.0560
    184  CG         1.4390   14.6650   18.7180 C.ar  234  TYR234     -0.0198
    185  CD1        2.4970   15.4060   18.1880 C.ar  234  TYR234     -0.0009
    186  CD2        1.6170   14.0360   19.9330 C.ar  234  TYR234     -0.0009
    187  CE1        3.6920   15.4900   18.8220 C.ar  234  TYR234      0.0417
    188  CE2        2.8390   14.1070   20.5850 C.ar  234  TYR234      0.0417
    189  CZ         3.8700   14.8420   20.0200 C.ar  234  TYR234      0.1957
    190  OH         5.0980   14.9400   20.6420 O.3   234  TYR234     -0.2866
    191  N          0.0000   19.7620   15.2270 N.3   237  TRP237     -0.1241
    192  CA         1.2770   19.7880   14.4970 C.3   237  TRP237      0.1605
    193  C          1.1460   19.1470   13.1410 C.2   237  TRP237      0.2264
    194  O          1.7260   19.6140   12.1580 O.2   237  TRP237     -0.2867
    195  CB         2.3900   19.0750   15.2530 C.3   237  TRP237      0.0550
    196  CG         2.7820   19.7880   16.4670 C.ar  237  TRP237      0.0003
    197  CD1        2.8670   21.1410   16.6440 C.ar  237  TRP237      0.0946
    198  CD2        3.1700   19.1950   17.6890 C.ar  237  TRP237      0.0152
    199  NE1        3.2730   21.4200   17.9180 N.ar  237  TRP237     -0.2442
    200  CE2        3.4620   20.2370   18.5830 C.ar  237  TRP237      0.0810
    201  CE3        3.2950   17.8730   18.1200 C.ar  237  TRP237      0.0012
    202  CZ2        3.8580   20.0000   19.8810 C.ar  237  TRP237      0.0191
    203  CZ3        3.7010   17.6380   19.3920 C.ar  237  TRP237      0.0001
    204  CH2        3.9690   18.6890   20.2620 C.ar  237  TRP237      0.0015
    205  N         -5.8990   16.5190   26.2160 N.3   273  ASP273     -0.1239
    206  CA        -5.1630   15.7880   25.1700 C.3   273  ASP273      0.1674
    207  C         -6.0070   14.7010   24.5320 C.2   273  ASP273      0.2266
    208  O         -5.8860   14.4440   23.3400 O.2   273  ASP273     -0.2867
    209  CB        -3.8520   15.1950   25.6760 C.3   273  ASP273      0.1410
    210  CG        -4.0240   14.2840   26.8640 C.2   273  ASP273      0.3668
    211  OD1       -3.0400   13.5860   27.1760 O.co2 273  ASP273     -0.2456
    212  OD2       -5.0990   14.2710   27.5150 O.co2 273  ASP273     -0.2456
    213  N         -6.3000   21.7050   29.8030 N.3   280  ASP280     -0.1239
    214  CA        -5.2670   22.6930   30.0970 C.3   280  ASP280      0.1674
    215  C         -5.2200   23.7080   28.9580 C.2   280  ASP280      0.2266
    216  O         -5.7440   23.4260   27.8710 O.2   280  ASP280     -0.2867
    217  CB        -3.9160   22.0150   30.3010 C.3   280  ASP280      0.1410
    218  CG        -3.5030   21.1660   29.1130 C.2   280  ASP280      0.3668
    219  OD1       -3.3460   21.7400   28.0210 O.co2 280  ASP280     -0.2456
    220  OD2       -3.3440   19.9290   29.2700 O.co2 280  ASP280     -0.2456
    221  N         -2.7840   24.7250   27.0310 N.3   282  PHE282     -0.1227
    222  CA        -1.9550   24.2810   25.8900 C.3   282  PHE282      0.1736
    223  C         -2.8480   23.5320   24.8830 C.2   282  PHE282      0.2595
    224  O         -2.9250   23.8920   23.7110 O.2   282  PHE282     -0.2718
    225  CB        -0.7920   23.4170   26.4120 C.3   282  PHE282      0.0547
    226  CG         0.0470   22.7490   25.3330 C.ar  282  PHE282     -0.0202
    227  CD1       -0.2260   21.4500   24.9170 C.ar  282  PHE282     -0.0042
    228  CD2        1.1230   23.4020   24.7700 C.ar  282  PHE282     -0.0042
    229  CE1        0.5470   20.8190   23.9310 C.ar  282  PHE282     -0.0003
    230  CE2        1.9240   22.7800   23.7900 C.ar  282  PHE282     -0.0003
    231  CZ         1.6130   21.4900   23.3570 C.ar  282  PHE282     -0.0000
    232  N         -3.5870   22.5390   25.3660 N.am  283  HIS283     -0.1975
    233  CA        -4.4630   21.7680   24.4930 C.3   283  HIS283      0.1656
    234  C         -5.7000   22.5360   24.0520 C.2   283  HIS283      0.2291
    235  O         -6.2920   22.2190   23.0280 O.2   283  HIS283     -0.2864
    236  CB        -4.8230   20.4370   25.1580 C.3   283  HIS283      0.0771
    237  CG        -3.6490   19.5210   25.3020 C.ar  283  HIS283      0.0820
    238  ND1       -2.9490   19.3780   26.4810 N.ar  283  HIS283     -0.2267
    239  CD2       -3.0330   18.7180   24.4000 C.ar  283  HIS283      0.1154
    240  CE1       -1.9550   18.5240   26.2980 C.ar  283  HIS283      0.1986
    241  NE2       -1.9870   18.1050   25.0450 N.ar  283  HIS283     -0.2212
    242  N         -4.4190   24.4560   20.9730 N.3   286  PHE286     -0.1241
    243  CA        -4.1890   23.6010   19.8070 C.3   286  PHE286      0.1605
    244  C         -5.4650   22.9140   19.2980 C.2   286  PHE286      0.2264
    245  O         -5.6320   22.7430   18.0880 O.2   286  PHE286     -0.2867
    246  CB        -2.9660   22.6980   20.0450 C.3   286  PHE286      0.0534
    247  CG        -1.7010   23.4930   20.1800 C.ar  286  PHE286     -0.0203
    248  CD1       -1.3300   24.3670   19.1760 C.ar  286  PHE286     -0.0042
    249  CD2       -0.9460   23.4610   21.3350 C.ar  286  PHE286     -0.0042
    250  CE1       -0.2030   25.1530   19.2800 C.ar  286  PHE286     -0.0003
    251  CE2        0.2070   24.2490   21.4530 C.ar  286  PHE286     -0.0003
    252  CZ         0.5720   25.0940   20.4170 C.ar  286  PHE286     -0.0000
@<TRIPOS>BOND
     1   150   149    2
     2   162   161    2
     3   161   160    1
     4   147   148    1
     5   194   193    2
     6   148   149    1
     7   148   151    1
     8   149   159   am
     9   141   140    2
    10   115   113   ar
    11   115   117   ar
    12   113   112   ar
    13   153   155   ar
    14   153   152   ar
    15   159   160    1
    16   193   192    1
    17   140   139    1
    18   155   157   ar
    19   160   163    1
    20   151   152    1
    21   152   154   ar
    22   124   125    1
    23   127   126    2
    24   117   116   ar
    25   108   111    1
    26   108   107    1
    27   108   109    1
    28   157   158    1
    29   157   156   ar
    30   112   111    1
    31   112   114   ar
    32   126   125    1
    33   163   164    1
    34   192   191    1
    35   192   195    1
    36   110   109    2
    37   139   142    1
    38   139   138    1
    39   154   156   ar
    40   142   143    1
    41   125   128    1
    42   109   118   am
    43   116   114   ar
    44   195   196    1
    45   137   136    2
    46   138   136   am
    47   143   144    1
    48   182   181    2
    49   136   135    1
    50   134   135    1
    51   128   129    1
    52   118   119    1
    53   196   197   ar
    54   196   198   ar
    55   181   180    1
    56   146   144   am
    57   197   199   ar
    58   144   145    2
    59   120   121    2
    60   120   119    1
    61    96    97    1
    62   119   122    1
    63   129   131   ar
    64   129   130   ar
    65    99    98    2
    66   131   133   ar
    67    97    98    1
    68    97   100    1
    69   198   201   ar
    70   198   200   ar
    71   180   183    1
    72   180   179    1
    73   199   200   ar
    74    95    93   am
    75    79    78    1
    76   183   184    1
    77   176   175    2
    78   245   244    2
    79   201   203   ar
    80   185   184   ar
    81   185   187   ar
    82   130   132   ar
    83    80    78    1
    84   200   202   ar
    85   122   123    1
    86    92    93    1
    87    92    91    1
    88   133   132   ar
    89   184   186   ar
    90   187   189   ar
    91    93    94    2
    92   175   179   am
    93   175   174    1
    94   100   101    1
    95    38    37    1
    96    78    77    1
    97   101   102    1
    98   168   167    2
    99   248   250   ar
   100   248   247   ar
   101   250   252   ar
   102   244   243    1
   103   203   204   ar
   104    88    91    1
   105    88    87    1
   106    88    89    1
   107    90    89    2
   108   243   246    1
   109   243   242    1
   110   202   204   ar
   111   186   188   ar
   112   174   173    1
   113   174   177    1
   114   189   188   ar
   115   189   190    1
   116   246   247    1
   117    77    74    1
   118   165   166    1
   119   247   249   ar
   120    37    35   ar
   121    37    36   ar
   122   167   166    1
   123    35    33   ar
   124   252   251   ar
   125   102   103    1
   126    74    75    1
   127    74    73    1
   128    76    75    2
   129   166   169    1
   130   177   178    1
   131   103   104    2
   132    36    34   ar
   133    75    81   am
   134   249   251   ar
   135    33    32   ar
   136   169   170    1
   137    81    82    1
   138   104   106    1
   139   104   105    1
   140    34    32   ar
   141   171   170   ar
   142   170   172   ar
   143    32    31    1
   144    60    58    1
   145    82    83    1
   146    82    85    1
   147    84    83    2
   148   235   234    2
   149   208   207    2
   150   231   230   ar
   151   231   229   ar
   152    56    55    2
   153    53    54    1
   154    54    55    1
   155    54    57    1
   156    30    29    2
   157   224   223    2
   158   230   228   ar
   159    58    57    1
   160    58    59    1
   161    45    47   ar
   162    45    44   ar
   163    86    85    1
   164   229   227   ar
   165    55    61   am
   166    47    48   ar
   167    31    28    1
   168   234   233    1
   169    42    41    2
   170    29    28    1
   171    29    39   am
   172   239   241   ar
   173   239   237   ar
   174   233   236    1
   175   233   232    1
   176   207   206    1
   177    40    41    1
   178    40    39    1
   179    40    43    1
   180   228   226   ar
   181    28    27    1
   182   223   232   am
   183   223   222    1
   184   227   226   ar
   185    44    43    1
   186    44    46   ar
   187    61    62    1
   188   241   240   ar
   189    63    64    2
   190    63    62    1
   191   236   237    1
   192   206   209    1
   193   206   205    1
   194    48    50   ar
   195    48    46   ar
   196   237   238   ar
   197   226   225    1
   198   209   210    1
   199    62    65    1
   200    50    52   ar
   201    26    25    1
   202   222   225    1
   203   222   221    1
   204    46    49   ar
   205    24    23    2
   206   240   238   ar
   207    25    22    1
   208    22    23    1
   209    22    21    1
   210   210   211   ar
   211   210   212   ar
   212    52    51   ar
   213    65    66    1
   214    49    51   ar
   215    67    66   ar
   216    67    69   ar
   217    66    68   ar
   218   216   215    2
   219    69    71   ar
   220   219   218   ar
   221    68    70   ar
   222    71    70   ar
   223    71    72    1
   224   215   214    1
   225   218   220   ar
   226   218   217    1
   227   213   214    1
   228    16    15    2
   229   214   217    1
   230    20    18    1
   231    17    14    1
   232    17    18    1
   233    15    14    1
   234    14    13    1
   235    18    19    1
   236     4     3    2
   237    10     8   ar
   238    10    11   ar
   239    12    11    1
   240    13     3   am
   241     8     6   ar
   242     3     2    1
   243    11     9   ar
   244     6     5    1
   245     6     7   ar
   246     9     7   ar
   247     2     5    1
   248     2     1    1
