@<TRIPOS>MOLECULE
tmp/3hxfB00.pdb
 275 274 0 0 0
SMALL
GASTEIGER

@<TRIPOS>ATOM
      1  N          7.8260   27.7650   35.4270 N.3    36  TYR36      -0.1227
      2  CA         8.9550   27.5700   34.5280 C.3    36  TYR36       0.1736
      3  C          8.6010   27.6650   33.0090 C.2    36  TYR36       0.2595
      4  O          9.4860   27.7840   32.1810 O.2    36  TYR36      -0.2718
      5  CB         9.7260   26.2450   34.8520 C.3    36  TYR36       0.0548
      6  CG         9.0390   25.0520   34.2540 C.ar   36  TYR36      -0.0200
      7  CD1        7.9660   24.4800   34.8950 C.ar   36  TYR36      -0.0009
      8  CD2        9.3430   24.6120   32.9840 C.ar   36  TYR36      -0.0009
      9  CE1        7.2920   23.4120   34.3340 C.ar   36  TYR36       0.0417
     10  CE2        8.6700   23.5490   32.4220 C.ar   36  TYR36       0.0417
     11  CZ         7.6500   22.9490   33.1220 C.ar   36  TYR36       0.1957
     12  OH         6.9070   21.9060   32.5970 O.3    36  TYR36      -0.2866
     13  N          7.3220   27.6590   32.6390 N.am   37  LEU37      -0.1980
     14  CA         6.9370   27.8410   31.2380 C.3    37  LEU37       0.1596
     15  C          5.9350   28.9910   31.1000 C.2    37  LEU37       0.2287
     16  O          5.2520   29.0970   30.1230 O.2    37  LEU37      -0.2864
     17  CB         6.3160   26.5790   30.6710 C.3    37  LEU37       0.0297
     18  CG         5.1630   26.0050   31.4570 C.3    37  LEU37       0.0022
     19  CD1        3.8590   26.7500   31.1830 C.3    37  LEU37       0.0001
     20  CD2        5.0120   24.5970   31.0810 C.3    37  LEU37       0.0001
     21  N          5.2080   30.9890   27.7500 N.3    40  SER40      -0.1217
     22  CA         4.5020   30.1670   26.7350 C.3    40  SER40       0.1889
     23  C          3.0290   29.9450   27.1040 C.2    40  SER40       0.2288
     24  O          2.1580   29.9600   26.2120 O.2    40  SER40      -0.2866
     25  CB         5.2870   28.8550   26.4760 C.3    40  SER40       0.2089
     26  OG         6.5790   29.1880   25.9510 O.3    40  SER40      -0.2183
     27  N          1.2120   33.0070   26.1800 N.3    43  TYR43      -0.1227
     28  CA         1.0600   32.9670   24.7250 C.3    43  TYR43       0.1736
     29  C         -0.1380   31.9850   24.3710 C.2    43  TYR43       0.2595
     30  O         -0.9990   32.3230   23.5520 O.2    43  TYR43      -0.2718
     31  CB         2.3960   32.5510   24.0290 C.3    43  TYR43       0.0548
     32  CG         2.1600   31.9710   22.7000 C.ar   43  TYR43      -0.0200
     33  CD1        1.6450   32.7490   21.6420 C.ar   43  TYR43      -0.0009
     34  CD2        2.4080   30.6050   22.4710 C.ar   43  TYR43      -0.0009
     35  CE1        1.3630   32.1380   20.3820 C.ar   43  TYR43       0.0417
     36  CE2        2.1550   30.0240   21.2640 C.ar   43  TYR43       0.0417
     37  CZ         1.6100   30.7790   20.2360 C.ar   43  TYR43       0.1957
     38  OH         1.3570   30.0840   19.0820 O.3    43  TYR43      -0.2866
     39  N         -0.2390   30.8070   25.0070 N.am   44  TRP44      -0.1976
     40  CA        -1.3080   29.8580   24.6380 C.3    44  TRP44       0.1640
     41  C         -2.6770   30.4690   24.9310 C.2    44  TRP44       0.2290
     42  O         -3.6100   30.4170   24.1370 O.2    44  TRP44      -0.2864
     43  CB        -1.1430   28.4990   25.3740 C.3    44  TRP44       0.0576
     44  CG         0.1900   27.8330   25.0740 C.ar   44  TRP44       0.0006
     45  CD1        0.8730   27.9210   23.9590 C.ar   44  TRP44       0.0946
     46  CD2        0.9680   27.0470   25.9740 C.ar   44  TRP44       0.0152
     47  NE1        2.0780   27.2050   24.0540 N.ar   44  TRP44      -0.2442
     48  CE2        2.1500   26.6810   25.3080 C.ar   44  TRP44       0.0810
     49  CE3        0.7870   26.6190   27.2920 C.ar   44  TRP44       0.0012
     50  CZ2        3.1510   25.9340   25.9230 C.ar   44  TRP44       0.0191
     51  CZ3        1.7500   25.8930   27.8750 C.ar   44  TRP44       0.0001
     52  CH2        2.9340   25.5290   27.1760 C.ar   44  TRP44       0.0015
     53  N         12.8410   29.5110   23.3610 N.3    88  LEU88      -0.1231
     54  CA        11.4360   29.1050   23.3870 C.3    88  LEU88       0.1693
     55  C         10.6160   30.2760   23.9040 C.2    88  LEU88       0.2592
     56  O          9.5620   30.6130   23.3690 O.2    88  LEU88      -0.2718
     57  CB        11.2260   27.8860   24.2700 C.3    88  LEU88       0.0284
     58  CG        11.7400   26.5530   23.7060 C.3    88  LEU88       0.0019
     59  CD1       11.8180   25.5490   24.8790 C.3    88  LEU88       0.0001
     60  CD2       10.9020   26.0080   22.5750 C.3    88  LEU88       0.0001
     61  N         11.0910   30.8810   24.9610 N.am   89  TYR89      -0.1976
     62  CA        10.3020   31.9450   25.6610 C.3    89  TYR89       0.1639
     63  C         10.4840   33.2820   24.9930 C.2    89  TYR89       0.2290
     64  O          9.6440   34.1720   25.1000 O.2    89  TYR89      -0.2864
     65  CB        10.5810   32.0070   27.1470 C.3    89  TYR89       0.0560
     66  CG        10.4210   30.6610   27.7300 C.ar   89  TYR89      -0.0198
     67  CD1        9.2010   29.9800   27.6110 C.ar   89  TYR89      -0.0009
     68  CD2       11.5200   29.9740   28.2580 C.ar   89  TYR89      -0.0009
     69  CE1        9.0540   28.6740   28.0880 C.ar   89  TYR89       0.0417
     70  CE2       11.4050   28.6360   28.6730 C.ar   89  TYR89       0.0417
     71  CZ        10.1720   28.0000   28.5920 C.ar   89  TYR89       0.1957
     72  OH        10.0200   26.6930   29.0070 O.3    89  TYR89      -0.2866
     73  N         10.6170   33.4900   21.6400 N.3    91  LEU91      -0.1231
     74  CA         9.5260   33.3710   20.6620 C.3    91  LEU91       0.1693
     75  C          8.1530   33.6490   21.2380 C.2    91  LEU91       0.2592
     76  O          7.4100   34.5160   20.6710 O.2    91  LEU91      -0.2718
     77  CB         9.5520   32.0310   19.9440 C.3    91  LEU91       0.0284
     78  CG         8.3550   31.7910   19.0070 C.3    91  LEU91       0.0019
     79  CD1        8.2210   32.8740   17.9330 C.3    91  LEU91       0.0001
     80  CD2        8.4360   30.4460   18.3850 C.3    91  LEU91       0.0001
     81  N          7.7880   32.9880   22.3430 N.am   92  SER92      -0.1952
     82  CA         6.4800   33.2210   22.9820 C.3    92  SER92       0.1924
     83  C          6.2810   34.7140   23.2570 C.2    92  SER92       0.2314
     84  O          5.2050   35.2330   23.0180 O.2    92  SER92      -0.2863
     85  CB         6.4010   32.4020   24.2900 C.3    92  SER92       0.2116
     86  OG         6.3610   31.0240   23.9640 O.3    92  SER92      -0.2180
     87  N          5.6980   36.5910   20.0930 N.3    95  GLN95      -0.1245
     88  CA         4.3720   36.2750   19.5600 C.3    95  GLN95       0.1566
     89  C          3.3020   37.1080   20.2950 C.2    95  GLN95       0.2260
     90  O          2.3920   37.7070   19.6760 O.2    95  GLN95      -0.2867
     91  CB         4.0720   34.7820   19.7000 C.3    95  GLN95       0.0367
     92  CG         4.8030   33.8930   18.6610 C.3    95  GLN95       0.0905
     93  CD         4.6200   32.4310   18.9610 C.2    95  GLN95       0.2608
     94  OE1        4.9990   31.9850   20.0530 O.2    95  GLN95      -0.2717
     95  NE2        4.0080   31.6570   18.0070 N.am   95  GLN95      -0.0878
     96  N         13.7550   22.4230   16.7060 N.3   136  ARG136     -0.1245
     97  CA        12.7700   23.3070   17.3610 C.3   136  ARG136      0.1563
     98  C         13.3030   24.7530   17.4670 C.2   136  ARG136      0.2260
     99  O         12.5610   25.7520   17.2830 O.2   136  ARG136     -0.2867
    100  CB        12.3870   22.8010   18.7650 C.3   136  ARG136      0.0307
    101  CG        11.5130   21.5770   18.7540 C.3   136  ARG136      0.0489
    102  CD        11.1590   20.9850   20.2240 C.3   136  ARG136      0.2205
    103  NE        12.4150   20.6720   20.9600 N.pl3 136  ARG136     -0.0865
    104  CZ        12.6720   20.8550   22.2620 C.cat 136  ARG136      0.5346
    105  NH1       11.7790   21.3030   23.1220 N.pl3 136  ARG136      0.1354
    106  NH2       13.8800   20.5590   22.7210 N.pl3 136  ARG136      0.1354
    107  N         13.5190   26.7700   14.2070 N.3   139  PHE139     -0.1227
    108  CA        12.2390   27.3860   13.9910 C.3   139  PHE139      0.1736
    109  C         12.0340   28.5880   14.9170 C.2   139  PHE139      0.2595
    110  O         11.6280   29.6830   14.4610 O.2   139  PHE139     -0.2718
    111  CB        11.0510   26.3740   14.2230 C.3   139  PHE139      0.0547
    112  CG         9.7220   27.0230   14.0940 C.ar  139  PHE139     -0.0202
    113  CD1        9.2360   27.4160   12.8620 C.ar  139  PHE139     -0.0042
    114  CD2        8.9620   27.2890   15.2290 C.ar  139  PHE139     -0.0042
    115  CE1        7.9850   28.0380   12.7660 C.ar  139  PHE139     -0.0003
    116  CE2        7.7220   27.9580   15.1240 C.ar  139  PHE139     -0.0003
    117  CZ         7.2450   28.3010   13.8860 C.ar  139  PHE139     -0.0000
    118  N         12.3120   28.4240   16.2150 N.am  140  CYS140     -0.1970
    119  CA        12.1630   29.5550   17.1370 C.3   140  CYS140      0.1712
    120  C         12.9620   30.7690   16.6840 C.2   140  CYS140      0.2296
    121  O         12.4710   31.9120   16.7390 O.2   140  CYS140     -0.2864
    122  CB        12.5280   29.1680   18.5700 C.3   140  CYS140      0.0983
    123  SG        11.4060   28.0870   19.4010 S.3   140  CYS140     -0.0798
    124  N          9.3470   12.9830   13.7370 N.3   182  HIS182     -0.1241
    125  CA         8.3550   13.1710   14.7620 C.3   182  HIS182      0.1621
    126  C          7.5230   14.3910   14.3150 C.2   182  HIS182      0.2264
    127  O          8.0520   15.3530   13.8420 O.2   182  HIS182     -0.2867
    128  CB         9.0530   13.3930   16.1330 C.3   182  HIS182      0.0745
    129  CG         8.1200   13.6930   17.2510 C.ar  182  HIS182      0.0817
    130  ND1        7.8820   12.8230   18.2930 N.ar  182  HIS182     -0.2268
    131  CD2        7.3050   14.7610   17.4650 C.ar  182  HIS182      0.1154
    132  CE1        6.9810   13.3570   19.1030 C.ar  182  HIS182      0.1986
    133  NE2        6.6020   14.5280   18.6030 N.ar  182  HIS182     -0.2212
    134  N          6.2080   16.9400   15.9070 N.3   184  GLY184     -0.1210
    135  CA         6.5830   18.1970   16.4950 C.3   184  GLY184      0.1956
    136  C          7.7300   18.8330   15.6970 C.2   184  GLY184      0.2611
    137  O          7.7220   20.0320   15.4150 O.2   184  GLY184     -0.2717
    138  N          8.7430   18.0390   15.3850 N.am  185  GLN185     -0.1979
    139  CA         9.8890   18.4830   14.5850 C.3   185  GLN185      0.1601
    140  C          9.5710   18.7500   13.1430 C.2   185  GLN185      0.2287
    141  O         10.1170   19.6460   12.5320 O.2   185  GLN185     -0.2864
    142  CB        11.1120   17.5430   14.7110 C.3   185  GLN185      0.0394
    143  CG        12.1070   18.0200   15.9630 C.3   185  GLN185      0.0908
    144  CD        11.5790   17.5150   17.2450 C.2   185  GLN185      0.2608
    145  OE1       10.8440   16.4980   17.2800 O.2   185  GLN185     -0.2717
    146  NE2       11.9390   18.1520   18.3050 N.am  185  GLN185     -0.0878
    147  N          6.6790   19.9010   12.1510 N.3   187  TYR187     -0.1227
    148  CA         6.0160   21.2290   12.1840 C.3   187  TYR187      0.1736
    149  C          7.0970   22.3430   12.2060 C.2   187  TYR187      0.2595
    150  O          7.0970   23.3160   11.4230 O.2   187  TYR187     -0.2718
    151  CB         5.0890   21.3180   13.3860 C.3   187  TYR187      0.0548
    152  CG         4.7160   22.7530   13.6220 C.ar  187  TYR187     -0.0200
    153  CD1        3.8630   23.4130   12.7820 C.ar  187  TYR187     -0.0009
    154  CD2        5.2950   23.4680   14.6300 C.ar  187  TYR187     -0.0009
    155  CE1        3.5570   24.8180   12.9910 C.ar  187  TYR187      0.0417
    156  CE2        5.0300   24.8430   14.8280 C.ar  187  TYR187      0.0417
    157  CZ         4.1780   25.5060   14.0250 C.ar  187  TYR187      0.1957
    158  OH         3.9310   26.8610   14.3340 O.3   187  TYR187     -0.2866
    159  N          8.0410   22.1780   13.0950 N.am  188  CYS188     -0.1970
    160  CA         9.1400   23.1600   13.2140 C.3   188  CYS188      0.1712
    161  C          9.9190   23.3020   11.9240 C.2   188  CYS188      0.2296
    162  O         10.1800   24.3960   11.4680 O.2   188  CYS188     -0.2864
    163  CB        10.0330   22.7470   14.3480 C.3   188  CYS188      0.0983
    164  SG         9.2880   22.9900   15.9680 S.3   188  CYS188     -0.0798
    165  N         -3.3860   12.4470   20.1710 N.3   230  ASP230     -0.1239
    166  CA        -3.4280   13.5300   21.1690 C.3   230  ASP230      0.1674
    167  C         -3.8910   14.7280   20.3400 C.2   230  ASP230      0.2266
    168  O         -3.4540   14.9920   19.1980 O.2   230  ASP230     -0.2867
    169  CB        -2.0240   13.6850   21.8220 C.3   230  ASP230      0.1410
    170  CG        -1.8030   14.9420   22.5770 C.2   230  ASP230      0.3668
    171  OD1       -2.6110   15.8920   22.5710 O.co2 230  ASP230     -0.2456
    172  OD2       -0.7790   14.9710   23.2820 O.co2 230  ASP230     -0.2456
    173  N         -3.2730   17.6540   20.5200 N.3   232  CYS232     -0.1221
    174  CA        -2.3980   18.7280   20.0720 C.3   232  CYS232      0.1808
    175  C         -1.8000   18.4080   18.7130 C.2   232  CYS232      0.2601
    176  O         -1.2780   19.3080   18.0100 O.2   232  CYS232     -0.2717
    177  CB        -1.3640   19.0890   21.1100 C.3   232  CYS232      0.0970
    178  SG        -0.0170   17.9000   21.4740 S.3   232  CYS232     -0.0800
    179  N         -1.8470   17.1290   18.3030 N.am  233  TYR233     -0.1976
    180  CA        -1.4080   16.8060   16.9290 C.3   233  TYR233      0.1639
    181  C         -2.3270   17.3950   15.8670 C.2   233  TYR233      0.2290
    182  O         -1.9560   17.5540   14.7010 O.2   233  TYR233     -0.2864
    183  CB        -1.0880   15.3800   16.7700 C.3   233  TYR233      0.0560
    184  CG         0.1070   14.9490   17.6060 C.ar  233  TYR233     -0.0198
    185  CD1        1.3680   15.4290   17.3270 C.ar  233  TYR233     -0.0009
    186  CD2       -0.0220   14.0420   18.6080 C.ar  233  TYR233     -0.0009
    187  CE1        2.4970   15.0100   18.1040 C.ar  233  TYR233      0.0417
    188  CE2        1.0280   13.6560   19.3830 C.ar  233  TYR233      0.0417
    189  CZ         2.3110   14.1060   19.0870 C.ar  233  TYR233      0.1957
    190  OH         3.3920   13.6870   19.8150 O.3   233  TYR233     -0.2866
    191  N         -2.7650   20.3320   15.7990 N.3   235  TRP235     -0.1227
    192  CA        -1.9770   21.3880   15.3760 C.3   235  TRP235      0.1737
    193  C         -0.7760   20.8150   14.5890 C.2   235  TRP235      0.2595
    194  O         -0.6150   21.1270   13.4560 O.2   235  TRP235     -0.2718
    195  CB        -1.5660   22.3090   16.5250 C.3   235  TRP235      0.0564
    196  CG        -0.8120   23.3980   15.9770 C.ar  235  TRP235      0.0003
    197  CD1        0.4700   23.5970   16.1350 C.ar  235  TRP235      0.0946
    198  CD2       -1.2670   24.4380   15.0660 C.ar  235  TRP235      0.0152
    199  NE1        0.8840   24.6930   15.4460 N.ar  235  TRP235     -0.2442
    200  CE2       -0.1480   25.2190   14.7560 C.ar  235  TRP235      0.0810
    201  CE3       -2.4750   24.7630   14.4900 C.ar  235  TRP235      0.0012
    202  CZ2       -0.2070   26.3490   13.9380 C.ar  235  TRP235      0.0191
    203  CZ3       -2.5250   25.8520   13.6230 C.ar  235  TRP235      0.0001
    204  CH2       -1.4130   26.6490   13.3950 C.ar  235  TRP235      0.0015
    205  N          0.1050   20.0660   15.2540 N.am  236  TRP236     -0.1976
    206  CA         1.4510   19.7910   14.6770 C.3   236  TRP236      0.1640
    207  C          1.3370   19.1560   13.3110 C.2   236  TRP236      0.2290
    208  O          1.9800   19.5900   12.3620 O.2   236  TRP236     -0.2864
    209  CB         2.3480   18.9840   15.6670 C.3   236  TRP236      0.0576
    210  CG         2.3710   19.5080   17.0090 C.ar  236  TRP236      0.0006
    211  CD1        1.7870   18.9020   18.1280 C.ar  236  TRP236      0.0946
    212  CD2        2.8210   20.8130   17.4850 C.ar  236  TRP236      0.0152
    213  NE1        1.8470   19.7370   19.2240 N.ar  236  TRP236     -0.2442
    214  CE2        2.4980   20.8950   18.8780 C.ar  236  TRP236      0.0810
    215  CE3        3.3930   21.8870   16.8850 C.ar  236  TRP236      0.0012
    216  CZ2        2.7850   22.0430   19.6920 C.ar  236  TRP236      0.0191
    217  CZ3        3.7210   23.0300   17.6940 C.ar  236  TRP236      0.0001
    218  CH2        3.4130   23.0970   19.0630 C.ar  236  TRP236      0.0015
    219  N         -5.7400   16.2840   26.2120 N.3   272  ASP272     -0.1239
    220  CA        -5.0240   15.5400   25.1360 C.3   272  ASP272      0.1674
    221  C         -5.8630   14.4660   24.5250 C.2   272  ASP272      0.2266
    222  O         -5.7620   14.2030   23.3250 O.2   272  ASP272     -0.2867
    223  CB        -3.7370   14.9590   25.5960 C.3   272  ASP272      0.1410
    224  CG        -3.8290   14.2090   26.8770 C.2   272  ASP272      0.3668
    225  OD1       -2.7640   13.6500   27.2100 O.co2 272  ASP272     -0.2456
    226  OD2       -4.8610   14.1630   27.5920 O.co2 272  ASP272     -0.2456
    227  N         -2.7210   24.5650   27.0770 N.3   281  PHE281     -0.1227
    228  CA        -1.9010   24.1050   25.9630 C.3   281  PHE281      0.1736
    229  C         -2.8070   23.3450   24.9610 C.2   281  PHE281      0.2595
    230  O         -2.8800   23.6850   23.7920 O.2   281  PHE281     -0.2718
    231  CB        -0.7520   23.2550   26.5230 C.3   281  PHE281      0.0547
    232  CG         0.1790   22.6230   25.4510 C.ar  281  PHE281     -0.0202
    233  CD1       -0.1700   21.4620   24.8010 C.ar  281  PHE281     -0.0042
    234  CD2        1.3370   23.2090   25.0990 C.ar  281  PHE281     -0.0042
    235  CE1        0.6300   20.8750   23.8260 C.ar  281  PHE281     -0.0003
    236  CE2        2.2030   22.6420   24.0910 C.ar  281  PHE281     -0.0003
    237  CZ         1.8240   21.4870   23.4450 C.ar  281  PHE281     -0.0000
    238  N         -3.5380   22.3460   25.4250 N.am  282  HIS282     -0.1975
    239  CA        -4.4350   21.5670   24.5240 C.3   282  HIS282      0.1656
    240  C         -5.6830   22.3380   24.0600 C.2   282  HIS282      0.2291
    241  O         -6.2580   22.0800   23.0040 O.2   282  HIS282     -0.2864
    242  CB        -4.7450   20.1880   25.1800 C.3   282  HIS282      0.0771
    243  CG        -3.5420   19.3150   25.2550 C.ar  282  HIS282      0.0820
    244  ND1       -2.7250   19.2610   26.3720 N.ar  282  HIS282     -0.2267
    245  CD2       -2.9360   18.5650   24.2930 C.ar  282  HIS282      0.1154
    246  CE1       -1.6870   18.4850   26.0900 C.ar  282  HIS282      0.1986
    247  NE2       -1.7840   18.0740   24.8360 N.ar  282  HIS282     -0.2212
    248  N         -4.3350   24.2930   21.0240 N.3   285  PHE285     -0.1241
    249  CA        -4.0730   23.4750   19.8260 C.3   285  PHE285      0.1605
    250  C         -5.3310   22.7450   19.2640 C.2   285  PHE285      0.2264
    251  O         -5.4730   22.5860   18.0510 O.2   285  PHE285     -0.2867
    252  CB        -2.8570   22.5960   20.0380 C.3   285  PHE285      0.0534
    253  CG        -1.6180   23.3920   20.2610 C.ar  285  PHE285     -0.0203
    254  CD1       -1.2260   24.3010   19.3420 C.ar  285  PHE285     -0.0042
    255  CD2       -0.9600   23.3450   21.4880 C.ar  285  PHE285     -0.0042
    256  CE1       -0.1150   25.0940   19.5430 C.ar  285  PHE285     -0.0003
    257  CE2        0.1440   24.1510   21.7290 C.ar  285  PHE285     -0.0003
    258  CZ         0.5560   25.0270   20.7210 C.ar  285  PHE285     -0.0000
    259  N          2.7560   30.4200   12.1080 N.3   305  PHE305     -0.1227
    260  CA         2.9700   31.0900   13.3790 C.3   305  PHE305      0.1736
    261  C          1.9930   30.7600   14.5180 C.2   305  PHE305      0.2595
    262  O          2.2220   31.2040   15.5990 O.2   305  PHE305     -0.2718
    263  CB         3.0280   32.6290   13.1900 C.3   305  PHE305      0.0547
    264  CG         4.1810   33.0800   12.3010 C.ar  305  PHE305     -0.0202
    265  CD1        3.9870   33.3240   10.9840 C.ar  305  PHE305     -0.0042
    266  CD2        5.4480   33.3350   12.8260 C.ar  305  PHE305     -0.0042
    267  CE1        5.0460   33.7090   10.1360 C.ar  305  PHE305     -0.0003
    268  CE2        6.5150   33.7610   11.9750 C.ar  305  PHE305     -0.0003
    269  CZ         6.3070   33.9460   10.6590 C.ar  305  PHE305     -0.0000
    270  N          0.9080   30.0170   14.2610 N.am  306  CYS306     -0.1970
    271  CA        -0.0760   29.7490   15.2630 C.3   306  CYS306      0.1712
    272  C         -0.5150   31.0450   15.9780 C.2   306  CYS306      0.2296
    273  O         -0.4370   31.1830   17.2030 O.2   306  CYS306     -0.2864
    274  CB         0.3370   28.6480   16.2130 C.3   306  CYS306      0.0983
    275  SG        -1.0290   27.9590   17.1760 S.3   306  CYS306     -0.0798
@<TRIPOS>BOND
     1   267   269   ar
     2   267   265   ar
     3   269   268   ar
     4   265   264   ar
     5   150   149    2
     6   162   161    2
     7   161   160    1
     8   268   266   ar
     9   259   260    1
    10   147   148    1
    11   148   149    1
    12   148   151    1
    13   149   159   am
    14   264   266   ar
    15   264   263    1
    16   208   207    2
    17   141   140    2
    18   115   113   ar
    19   115   117   ar
    20   153   155   ar
    21   153   152   ar
    22   113   112   ar
    23   155   157   ar
    24   159   160    1
    25   140   139    1
    26   263   260    1
    27   160   163    1
    28   207   206    1
    29   260   261    1
    30   151   152    1
    31   204   203   ar
    32   204   202   ar
    33   194   193    2
    34   152   154   ar
    35   203   201   ar
    36   124   125    1
    37   127   126    2
    38   117   116   ar
    39   202   200   ar
    40   108   107    1
    41   108   111    1
    42   108   109    1
    43   157   158    1
    44   157   156   ar
    45   112   111    1
    46   112   114   ar
    47   270   261   am
    48   270   271    1
    49   126   125    1
    50   163   164    1
    51   110   109    2
    52   201   198   ar
    53   261   262    2
    54   139   142    1
    55   139   138    1
    56   193   205   am
    57   193   192    1
    58   154   156   ar
    59   206   205    1
    60   206   209    1
    61   182   181    2
    62   142   143    1
    63   200   198   ar
    64   200   199   ar
    65   125   128    1
    66   109   118   am
    67   198   196   ar
    68   116   114   ar
    69   271   272    1
    70   271   274    1
    71   192   191    1
    72   192   195    1
    73   138   136   am
    74   137   136    2
    75   199   197   ar
    76   209   210    1
    77   136   135    1
    78   181   180    1
    79   134   135    1
    80   143   144    1
    81   196   197   ar
    82   196   195    1
    83   272   273    2
    84   128   129    1
    85   274   275    1
    86   118   119    1
    87   120   121    2
    88   120   119    1
    89    96    97    1
    90   183   180    1
    91   183   184    1
    92   215   212   ar
    93   215   217   ar
    94   180   179    1
    95   210   212   ar
    96   210   211   ar
    97   119   122    1
    98   144   145    2
    99   144   146   am
   100   129   131   ar
   101   129   130   ar
   102    99    98    2
   103   185   184   ar
   104   185   187   ar
   105    97    98    1
   106    97   100    1
   107   131   133   ar
   108   212   214   ar
   109   184   186   ar
   110   217   218   ar
   111    79    78    1
   112    95    93   am
   113   176   175    2
   114   251   250    2
   115   187   189   ar
   116   211   213   ar
   117   130   132   ar
   118   179   175   am
   119    80    78    1
   120   122   123    1
   121   133   132   ar
   122   186   188   ar
   123    92    93    1
   124    92    91    1
   125   175   174    1
   126   101   100    1
   127   101   102    1
   128   214   213   ar
   129   214   216   ar
   130    93    94    2
   131    78    77    1
   132   218   216   ar
   133    38    37    1
   134   189   188   ar
   135   189   190    1
   136   168   167    2
   137   250   249    1
   138   254   256   ar
   139   254   253   ar
   140   256   258   ar
   141    88    91    1
   142    88    87    1
   143    88    89    1
   144    90    89    2
   145   249   252    1
   146   249   248    1
   147    77    74    1
   148   252   253    1
   149   174   173    1
   150   174   177    1
   151   165   166    1
   152   102   103    1
   153    37    35   ar
   154    37    36   ar
   155   253   255   ar
   156   167   166    1
   157    35    33   ar
   158    74    75    1
   159    74    73    1
   160    76    75    2
   161   258   257   ar
   162   103   104    2
   163   177   178    1
   164   166   169    1
   165    75    81   am
   166    36    34   ar
   167   255   257   ar
   168    33    32   ar
   169   169   170    1
   170   104   106    1
   171   104   105    1
   172    81    82    1
   173    34    32   ar
   174   171   170   ar
   175    60    58    1
   176   170   172   ar
   177    32    31    1
   178    82    83    1
   179    82    85    1
   180   241   240    2
   181    84    83    2
   182   222   221    2
   183    53    54    1
   184    56    55    2
   185    54    55    1
   186    54    57    1
   187   237   235   ar
   188   237   236   ar
   189    30    29    2
   190    58    57    1
   191    58    59    1
   192   230   229    2
   193   235   233   ar
   194    55    61   am
   195    45    47   ar
   196    45    44   ar
   197    86    85    1
   198    31    28    1
   199    47    48   ar
   200   240   239    1
   201   236   234   ar
   202    42    41    2
   203   245   247   ar
   204   245   243   ar
   205    29    28    1
   206    29    39   am
   207   239   242    1
   208   239   238    1
   209   221   220    1
   210    40    41    1
   211    40    39    1
   212    40    43    1
   213    28    27    1
   214   233   232   ar
   215   247   246   ar
   216    61    62    1
   217   229   238   am
   218   229   228    1
   219    63    64    2
   220    63    62    1
   221    44    43    1
   222    44    46   ar
   223   234   232   ar
   224   220   223    1
   225   220   219    1
   226   242   243    1
   227   243   244   ar
   228    48    50   ar
   229    48    46   ar
   230   232   231    1
   231   223   224    1
   232    62    65    1
   233    50    52   ar
   234    26    25    1
   235   228   231    1
   236   228   227    1
   237    46    49   ar
   238   246   244   ar
   239    24    23    2
   240    25    22    1
   241    22    23    1
   242    22    21    1
   243   224   225   ar
   244   224   226   ar
   245    65    66    1
   246    52    51   ar
   247    49    51   ar
   248    67    66   ar
   249    67    69   ar
   250    66    68   ar
   251    69    71   ar
   252    68    70   ar
   253    71    70   ar
   254    71    72    1
   255    16    15    2
   256    17    14    1
   257    17    18    1
   258    20    18    1
   259    15    14    1
   260    19    18    1
   261    14    13    1
   262     4     3    2
   263    10     8   ar
   264    10    11   ar
   265    12    11    1
   266    13     3   am
   267     8     6   ar
   268     3     2    1
   269    11     9   ar
   270     6     5    1
   271     6     7   ar
   272     9     7   ar
   273     2     5    1
   274     2     1    1
