@<TRIPOS>MOLECULE
tmp/3hxgA00.pdb
 240 233 0 0 0
SMALL
GASTEIGER

@<TRIPOS>ATOM
      1  N         27.8260   17.8960   -5.0010 N.3    15  PHE15      -0.1241
      2  CA        29.2010   18.3710   -5.0700 C.3    15  PHE15       0.1605
      3  C         30.0230   17.3020   -5.7900 C.2    15  PHE15       0.2264
      4  O         29.9950   16.1390   -5.4030 O.2    15  PHE15      -0.2867
      5  CB        29.7490   18.6570   -3.6640 C.3    15  PHE15       0.0534
      6  CG        31.2200   19.0060   -3.6380 C.ar   15  PHE15      -0.0203
      7  CD1       31.6330   20.3350   -3.7010 C.ar   15  PHE15      -0.0042
      8  CD2       32.1840   18.0050   -3.5590 C.ar   15  PHE15      -0.0042
      9  CE1       32.9830   20.6600   -3.6860 C.ar   15  PHE15      -0.0003
     10  CE2       33.5440   18.3170   -3.5360 C.ar   15  PHE15      -0.0003
     11  CZ        33.9450   19.6510   -3.6090 C.ar   15  PHE15      -0.0000
     12  N         33.9800   17.0300   -7.3510 N.3    17  PHE17      -0.1241
     13  CA        35.2620   17.6650   -7.6190 C.3    17  PHE17       0.1605
     14  C         35.7950   17.3090   -9.0060 C.2    17  PHE17       0.2264
     15  O         35.7900   16.1390   -9.4080 O.2    17  PHE17      -0.2867
     16  CB        36.3130   17.3200   -6.5530 C.3    17  PHE17       0.0534
     17  CG        37.6970   17.7850   -6.9060 C.ar   17  PHE17      -0.0203
     18  CD1       38.0630   19.1180   -6.7350 C.ar   17  PHE17      -0.0042
     19  CD2       38.6290   16.8980   -7.4390 C.ar   17  PHE17      -0.0042
     20  CE1       39.3370   19.5570   -7.0730 C.ar   17  PHE17      -0.0003
     21  CE2       39.9080   17.3250   -7.7700 C.ar   17  PHE17      -0.0003
     22  CZ        40.2610   18.6570   -7.5930 C.ar   17  PHE17      -0.0000
     23  N         38.5970   23.3980  -10.9110 N.3    21  LEU21      -0.1231
     24  CA        37.4260   24.0950  -10.3750 C.3    21  LEU21       0.1693
     25  C         37.6570   24.4340   -8.9080 C.2    21  LEU21       0.2592
     26  O         38.2280   23.6280   -8.1490 O.2    21  LEU21      -0.2718
     27  CB        36.1580   23.2550  -10.5130 C.3    21  LEU21       0.0284
     28  CG        35.6490   22.8990  -11.9120 C.3    21  LEU21       0.0019
     29  CD1       34.6080   21.8140  -11.7810 C.3    21  LEU21       0.0001
     30  CD2       35.0780   24.1140  -12.6500 C.3    21  LEU21       0.0001
     31  N         37.2320   25.6350   -8.5230 N.am   22  ASP22      -0.1960
     32  CA        37.2510   26.0560   -7.1240 C.3    22  ASP22       0.1840
     33  C         36.1850   25.2660   -6.3680 C.2    22  ASP22       0.2622
     34  O         35.2670   24.7140   -6.9730 O.2    22  ASP22      -0.2715
     35  CB        36.9780   27.5650   -6.9940 C.3    22  ASP22       0.1450
     36  CG        38.0680   28.4260   -7.6300 C.2    22  ASP22       0.3671
     37  OD1       39.2040   27.9460   -7.8120 O.co2  22  ASP22      -0.2456
     38  OD2       37.7820   29.5910   -7.9460 O.co2  22  ASP22      -0.2456
     39  N         36.3080   25.2240   -5.0450 N.am   23  TRP23      -0.1960
     40  CA        35.3730   24.4680   -4.2240 C.3    23  TRP23       0.1771
     41  C         33.9220   24.7750   -4.6110 C.2    23  TRP23       0.2619
     42  O         33.1540   23.8620   -4.9220 O.2    23  TRP23      -0.2715
     43  CB        35.6100   24.7000   -2.7150 C.3    23  TRP23       0.0590
     44  CG        34.7310   23.7840   -1.8930 C.ar   23  TRP23       0.0006
     45  CD1       35.0150   22.4980   -1.5020 C.ar   23  TRP23       0.0946
     46  CD2       33.4090   24.0670   -1.4120 C.ar   23  TRP23       0.0152
     47  NE1       33.9560   21.9740   -0.7880 N.ar   23  TRP23      -0.2442
     48  CE2       32.9600   22.9170   -0.7170 C.ar   23  TRP23       0.0810
     49  CE3       32.5670   25.1910   -1.4810 C.ar   23  TRP23       0.0012
     50  CZ2       31.6960   22.8500   -0.1190 C.ar   23  TRP23       0.0191
     51  CZ3       31.3130   25.1280   -0.8830 C.ar   23  TRP23       0.0001
     52  CH2       30.8880   23.9650   -0.2080 C.ar   23  TRP23       0.0015
     53  N         33.5650   26.0580   -4.6250 N.am   24  ASP24      -0.1971
     54  CA        32.1720   26.4500   -4.8620 C.3    24  ASP24       0.1709
     55  C         31.6680   26.1810   -6.2900 C.2    24  ASP24       0.2293
     56  O         30.4590   26.0650   -6.5180 O.2    24  ASP24      -0.2864
     57  CB        31.9070   27.9010   -4.4030 C.3    24  ASP24       0.1436
     58  CG        32.6160   28.9460   -5.2470 C.2    24  ASP24       0.3671
     59  OD1       33.6010   28.6460   -5.9550 O.co2  24  ASP24      -0.2456
     60  OD2       32.1780   30.1100   -5.1860 O.co2  24  ASP24      -0.2456
     61  N         32.3690   23.4610   -7.8490 N.3    26  CYS26      -0.1235
     62  CA        32.1070   22.0210   -7.8590 C.3    26  CYS26       0.1677
     63  C         30.6720   21.6760   -7.4450 C.2    26  CYS26       0.2270
     64  O         30.2590   20.5130   -7.5320 O.2    26  CYS26      -0.2867
     65  CB        33.0860   21.2840   -6.9420 C.3    26  CYS26       0.0956
     66  SG        34.8240   21.3540   -7.4510 S.3    26  CYS26      -0.0801
     67  N         33.6110   10.9840   -1.9890 N.3    55  GLY55      -0.1210
     68  CA        33.9910   12.3760   -2.2400 C.3    55  GLY55       0.1956
     69  C         32.9930   13.1930   -3.0510 C.2    55  GLY55       0.2612
     70  O         33.2310   14.3780   -3.3150 O.2    55  GLY55      -0.2717
     71  N         31.8940   12.5550   -3.4650 N.am   56  LYS56      -0.1965
     72  CA        30.7960   13.2300   -4.1580 C.3    56  LYS56       0.1728
     73  C         29.6720   13.4010   -3.1510 C.2    56  LYS56       0.2616
     74  O         29.1520   12.4100   -2.6280 O.2    56  LYS56      -0.2715
     75  CB        30.3130   12.4120   -5.3500 C.3    56  LYS56       0.0311
     76  CG        31.3960   12.0910   -6.3630 C.3    56  LYS56       0.0038
     77  CD        32.0880   13.3230   -6.8730 C.3    56  LYS56       0.0206
     78  CE        32.9460   12.9860   -8.0930 C.3    56  LYS56       0.1093
     79  NZ        34.1790   12.2240   -7.7650 N.3    56  LYS56      -0.1314
     80  N         29.3150   14.6540   -2.8670 N.am   57  ASP57      -0.1971
     81  CA        28.5090   14.9670   -1.6930 C.3    57  ASP57       0.1709
     82  C         27.1240   15.4980   -2.0390 C.2    57  ASP57       0.2293
     83  O         26.9050   16.0180   -3.1270 O.2    57  ASP57      -0.2864
     84  CB        29.2510   15.9790   -0.7950 C.3    57  ASP57       0.1436
     85  CG        30.5700   15.4420   -0.2620 C.2    57  ASP57       0.3671
     86  OD1       30.8530   14.2460   -0.4720 O.co2  57  ASP57      -0.2456
     87  OD2       31.3340   16.2260    0.3550 O.co2  57  ASP57      -0.2456
     88  N         24.0380   18.0420   -0.7250 N.3    59  TYR59      -0.1241
     89  CA        23.6660   19.2040    0.0990 C.3    59  TYR59       0.1605
     90  C         22.1880   19.5200   -0.1290 C.2    59  TYR59       0.2264
     91  O         21.7580   19.6920   -1.2790 O.2    59  TYR59      -0.2867
     92  CB        24.5100   20.4370   -0.2940 C.3    59  TYR59       0.0534
     93  CG        25.9730   20.4020    0.1330 C.ar   59  TYR59      -0.0201
     94  CD1       26.4200   21.1940    1.1980 C.ar   59  TYR59      -0.0009
     95  CD2       26.9110   19.5910   -0.5290 C.ar   59  TYR59      -0.0009
     96  CE1       27.7510   21.1910    1.6040 C.ar   59  TYR59       0.0417
     97  CE2       28.2680   19.5760   -0.1300 C.ar   59  TYR59       0.0417
     98  CZ        28.6690   20.3780    0.9440 C.ar   59  TYR59       0.1957
     99  OH        29.9760   20.3770    1.3800 O.3    59  TYR59      -0.2866
    100  N         27.0880   26.9500    1.4160 N.3    68  LYS68      -0.1231
    101  CA        28.4730   27.3310    1.6180 C.3    68  LYS68       0.1693
    102  C         28.5890   28.1710    2.8840 C.2    68  LYS68       0.2592
    103  O         27.6380   28.8550    3.2640 O.2    68  LYS68      -0.2718
    104  CB        29.0140   28.1000    0.3930 C.3    68  LYS68       0.0285
    105  CG        28.3940   29.4840    0.1810 C.3    68  LYS68       0.0035
    106  CD        28.9700   30.2130   -1.0310 C.3    68  LYS68       0.0206
    107  CE        28.4480   31.6520   -1.0880 C.3    68  LYS68       0.1093
    108  NZ        29.2660   32.6080   -1.9350 N.3    68  LYS68      -0.1314
    109  N         29.7480   28.1140    3.5370 N.am   69  TRP69      -0.1962
    110  CA        29.9930   28.8750    4.7600 C.3    69  TRP69       0.1771
    111  C         29.7870   30.3670    4.5460 C.2    69  TRP69       0.2619
    112  O         29.4540   31.0940    5.4810 O.2    69  TRP69      -0.2715
    113  CB        31.4300   28.6940    5.2510 C.3    69  TRP69       0.0590
    114  CG        31.8250   27.3080    5.6650 C.ar   69  TRP69       0.0006
    115  CD1       31.0660   26.3820    6.3400 C.ar   69  TRP69       0.0946
    116  CD2       33.1070   26.7100    5.4670 C.ar   69  TRP69       0.0152
    117  NE1       31.7950   25.2300    6.5410 N.ar   69  TRP69      -0.2442
    118  CE2       33.0550   25.4110    6.0240 C.ar   69  TRP69       0.0810
    119  CE3       34.2970   27.1460    4.8640 C.ar   69  TRP69       0.0012
    120  CZ2       34.1500   24.5390    5.9890 C.ar   69  TRP69       0.0191
    121  CZ3       35.3830   26.2820    4.8330 C.ar   69  TRP69       0.0001
    122  CH2       35.3000   24.9900    5.3870 C.ar   69  TRP69       0.0015
    123  N         30.0180   30.8210    3.3190 N.am   70  GLU70      -0.1977
    124  CA        30.0220   32.2560    3.0210 C.3    70  GLU70       0.1602
    125  C         28.6210   32.8980    3.0620 C.2    70  GLU70       0.2287
    126  O         28.4960   34.1250    3.2470 O.2    70  GLU70      -0.2864
    127  CB        30.7300   32.5150    1.6820 C.3    70  GLU70       0.0415
    128  CG        32.2470   32.2590    1.7020 C.3    70  GLU70       0.1163
    129  CD        32.6520   30.7790    1.8140 C.2    70  GLU70       0.3649
    130  OE1       31.9060   29.8850    1.3640 O.co2  70  GLU70      -0.2457
    131  OE2       33.7480   30.5090    2.3600 O.co2  70  GLU70      -0.2457
    132  N         27.5770   23.2560   12.5570 N.3    79  ARG79      -0.1245
    133  CA        26.9370   22.0100   12.1470 C.3    79  ARG79       0.1563
    134  C         26.9440   20.9840   13.2680 C.2    79  ARG79       0.2260
    135  O         27.8840   20.9370   14.0680 O.2    79  ARG79      -0.2867
    136  CB        27.6260   21.4290   10.9050 C.3    79  ARG79       0.0307
    137  CG        29.0220   20.8780   11.1950 C.3    79  ARG79       0.0489
    138  CD        29.7020   20.3190    9.9680 C.3    79  ARG79       0.2205
    139  NE        31.0410   19.8350   10.3150 N.pl3  79  ARG79      -0.0865
    140  CZ        31.8170   19.1260    9.5010 C.cat  79  ARG79       0.5346
    141  NH1       33.0120   18.7270    9.9150 N.pl3  79  ARG79       0.1354
    142  NH2       31.4050   18.8230    8.2720 N.pl3  79  ARG79       0.1354
    143  N         28.2710   13.1900    3.1880 N.3   121  GLN121     -0.1245
    144  CA        29.6380   13.1120    2.6650 C.3   121  GLN121      0.1566
    145  C         30.1860   11.6820    2.7780 C.2   121  GLN121      0.2260
    146  O         30.6100   11.2630    3.8560 O.2   121  GLN121     -0.2867
    147  CB        30.5540   14.0990    3.3950 C.3   121  GLN121      0.0367
    148  CG        30.1390   15.5650    3.2330 C.3   121  GLN121      0.0905
    149  CD        30.9920   16.5110    4.0470 C.2   121  GLN121      0.2608
    150  OE1       31.0160   16.4390    5.2810 O.2   121  GLN121     -0.2717
    151  NE2       31.6920   17.4250    3.3600 N.am  121  GLN121     -0.0878
    152  N         32.8350    8.8800    2.5620 N.3   123  ARG123     -0.1245
    153  CA        34.2920    8.8640    2.6590 C.3   123  ARG123      0.1563
    154  C         34.7710    7.4610    2.9750 C.2   123  ARG123      0.2260
    155  O         34.1880    6.7780    3.8170 O.2   123  ARG123     -0.2867
    156  CB        34.7760    9.7990    3.7720 C.3   123  ARG123      0.0307
    157  CG        34.4100   11.2640    3.6310 C.3   123  ARG123      0.0489
    158  CD        35.1350   11.9250    2.4680 C.3   123  ARG123      0.2205
    159  NE        34.8230   13.3470    2.4110 N.pl3 123  ARG123     -0.0865
    160  CZ        33.8170   13.8780    1.7240 C.cat 123  ARG123      0.5346
    161  NH1       33.6250   15.1930    1.7580 N.pl3 123  ARG123      0.1354
    162  NH2       33.0000   13.1050    1.0100 N.pl3 123  ARG123      0.1354
    163  N         37.3840    6.8350    4.6390 N.3   125  ARG125     -0.1245
    164  CA        37.8320    6.9080    6.0330 C.3   125  ARG125      0.1563
    165  C         36.6870    6.8630    7.0650 C.2   125  ARG125      0.2260
    166  O         36.9200    6.6580    8.2680 O.2   125  ARG125     -0.2867
    167  CB        38.6800    8.1650    6.2400 C.3   125  ARG125      0.0307
    168  CG        38.1410    9.3480    5.4530 C.3   125  ARG125      0.0489
    169  CD        39.0080   10.5700    5.5090 C.3   125  ARG125      0.2205
    170  NE        39.2970   10.9160    6.9000 N.pl3 125  ARG125     -0.0865
    171  CZ        40.0340   11.9720    7.2400 C.cat 125  ARG125      0.5346
    172  NH1       40.5510   12.7370    6.2940 N.pl3 125  ARG125      0.1354
    173  NH2       40.2960   12.2540    8.5070 N.pl3 125  ARG125      0.1354
    174  N         30.1760   10.9750    6.6310 N.3   128  LYS128     -0.1245
    175  CA        29.6840   12.0020    7.5470 C.3   128  LYS128      0.1561
    176  C         28.3210   12.5220    7.1100 C.2   128  LYS128      0.2260
    177  O         28.0710   12.7050    5.9160 O.2   128  LYS128     -0.2867
    178  CB        30.6690   13.1760    7.6330 C.3   128  LYS128      0.0271
    179  CG        32.0480   12.8350    8.2190 C.3   128  LYS128      0.0035
    180  CD        33.0470   13.9840    8.0530 C.3   128  LYS128      0.0206
    181  CE        33.6740   13.9720    6.6510 C.3   128  LYS128      0.1093
    182  NZ        34.7470   15.0100    6.5400 N.3   128  LYS128     -0.1314
    183  N         23.4690   21.8060    9.2460 N.3   132  TRP132     -0.1241
    184  CA        23.9960   23.1490    9.4070 C.3   132  TRP132      0.1605
    185  C         22.9260   24.0210   10.0240 C.2   132  TRP132      0.2264
    186  O         21.7650   23.9960    9.5900 O.2   132  TRP132     -0.2867
    187  CB        24.3730   23.7350    8.0490 C.3   132  TRP132      0.0550
    188  CG        25.6340   23.1930    7.4480 C.ar  132  TRP132      0.0003
    189  CD1       26.1460   21.9300    7.5870 C.ar  132  TRP132      0.0946
    190  CD2       26.5110   23.8870    6.5580 C.ar  132  TRP132      0.0152
    191  NE1       27.3010   21.8040    6.8530 N.ar  132  TRP132     -0.2442
    192  CE2       27.5520   22.9960    6.2170 C.ar  132  TRP132      0.0810
    193  CE3       26.5220   25.1810    6.0190 C.ar  132  TRP132      0.0012
    194  CZ2       28.5990   23.3600    5.3630 C.ar  132  TRP132      0.0191
    195  CZ3       27.5630   25.5410    5.1620 C.ar  132  TRP132      0.0001
    196  CH2       28.5840   24.6370    4.8470 C.ar  132  TRP132      0.0015
    197  N         35.2490   24.5310   11.4900 N.3   167  GLN167     -0.1231
    198  CA        35.1940   23.7860   10.2460 C.3   167  GLN167      0.1698
    199  C         36.2310   24.3440    9.2520 C.2   167  GLN167      0.2592
    200  O         36.9570   23.5820    8.6130 O.2   167  GLN167     -0.2718
    201  CB        33.8010   23.8610    9.6250 C.3   167  GLN167      0.0381
    202  CG        32.6550   23.3070   10.4700 C.3   167  GLN167      0.0905
    203  CD        31.3290   23.4890    9.7750 C.2   167  GLN167      0.2608
    204  OE1       31.2110   23.2260    8.5790 O.2   167  GLN167     -0.2717
    205  NE2       30.3290   23.9710   10.5050 N.am  167  GLN167     -0.0878
    206  N         36.3040   25.6670    9.1340 N.am  168  ARG168     -0.1980
    207  CA        37.2160   26.2810    8.1820 C.3   168  ARG168      0.1597
    208  C         38.6730   25.9610    8.5070 C.2   168  ARG168      0.2287
    209  O         39.4370   25.5270    7.6310 O.2   168  ARG168     -0.2864
    210  CB        37.0020   27.7940    8.0840 C.3   168  ARG168      0.0334
    211  CG        37.7730   28.4100    6.9140 C.3   168  ARG168      0.0492
    212  CD        37.5090   29.8950    6.7400 C.3   168  ARG168      0.2205
    213  NE        36.3210   30.1860    5.9350 N.pl3 168  ARG168     -0.0865
    214  CZ        35.2030   30.7420    6.4060 C.cat 168  ARG168      0.5346
    215  NH1       35.0940   31.0650    7.6950 N.pl3 168  ARG168      0.1354
    216  NH2       34.1900   30.9840    5.5810 N.pl3 168  ARG168      0.1354
    217  N         39.8550   23.6090   10.2460 N.3   170  GLN170     -0.1245
    218  CA        40.1010   22.1620   10.2760 C.3   170  GLN170      0.1566
    219  C         40.9420   21.6900    9.0900 C.2   170  GLN170      0.2260
    220  O         40.5480   21.8310    7.9270 O.2   170  GLN170     -0.2867
    221  CB        38.7730   21.3900   10.3200 C.3   170  GLN170      0.0367
    222  CG        38.8940   19.8810   10.1260 C.3   170  GLN170      0.0905
    223  CD        39.3380   19.1580   11.3800 C.2   170  GLN170      0.2608
    224  OE1       39.3000   19.7190   12.4790 O.2   170  GLN170     -0.2717
    225  NE2       39.7570   17.9020   11.2270 N.am  170  GLN170     -0.0878
    226  N         42.4480   19.1700    6.5570 N.3   172  ARG172     -0.1231
    227  CA        42.0940   17.9010    5.9220 C.3   172  ARG172      0.1694
    228  C         43.0630   16.8210    6.3860 C.2   172  ARG172      0.2592
    229  O         44.2750   17.0580    6.4750 O.2   172  ARG172     -0.2718
    230  CB        42.1310   18.0280    4.3960 C.3   172  ARG172      0.0321
    231  CG        41.0260   18.9060    3.7880 C.3   172  ARG172      0.0489
    232  CD        41.4010   19.3590    2.3750 C.3   172  ARG172      0.2205
    233  NE        41.4700   18.2470    1.4220 N.pl3 172  ARG172     -0.0865
    234  CZ        42.1920   18.2500    0.3000 C.cat 172  ARG172      0.5346
    235  NH1       42.9320   19.3030   -0.0250 N.pl3 172  ARG172      0.1354
    236  NH2       42.1860   17.1850   -0.4980 N.pl3 172  ARG172      0.1354
    237  N         42.5250   15.6510    6.7150 N.am  173  GLY173     -0.1957
    238  CA        43.3570   14.5220    7.1180 C.3   173  GLY173      0.1869
    239  C         43.5250   14.3260    8.6130 C.2   173  GLY173      0.2309
    240  O         43.8750   13.2290    9.0580 O.2   173  GLY173     -0.2863
@<TRIPOS>BOND
     1    30    28    1
     2    28    29    1
     3    28    27    1
     4    23    24    1
     5    27    24    1
     6    24    25    1
     7    15    14    2
     8    14    13    1
     9    25    31   am
    10    25    26    2
    11    31    32    1
    12    78    79    1
    13    78    77    1
    14    38    36   ar
    15    62    61    1
    16    62    63    1
    17    62    65    1
    18    37    36   ar
    19    21    22   ar
    20    21    19   ar
    21    36    35    1
    22    13    12    1
    23    13    16    1
    24    22    20   ar
    25    64    63    2
    26    66    65    1
    27    19    17   ar
    28    32    35    1
    29    32    33    1
    30    20    18   ar
    31    34    33    2
    32    17    18   ar
    33    17    16    1
    34    77    76    1
    35    56    55    2
    36    33    39   am
    37    76    75    1
    38    55    54    1
    39    59    58   ar
    40     3     4    2
    41     3     2    1
    42    75    72    1
    43    58    60   ar
    44    58    57    1
    45     2     1    1
    46     2     5    1
    47    39    40    1
    48    42    41    2
    49    54    53    1
    50    54    57    1
    51    53    41   am
    52    41    40    1
    53    40    43    1
    54    72    71    1
    55    72    73    1
    56     7     9   ar
    57     7     6   ar
    58     9    11   ar
    59     5     6    1
    60     6     8   ar
    61    11    10   ar
    62     8    10   ar
    63    71    69   am
    64    70    69    2
    65    73    80   am
    66    73    74    2
    67    83    82    2
    68    69    68    1
    69    80    81    1
    70    43    44    1
    71    68    67    1
    72    82    81    1
    73   108   107    1
    74    44    45   ar
    75    44    46   ar
    76    81    84    1
    77    45    47   ar
    78    49    46   ar
    79    49    51   ar
    80    46    48   ar
    81    91    90    2
    82   107   106    1
    83   106   105    1
    84    51    52   ar
    85    84    85    1
    86    47    48   ar
    87    88    89    1
    88    48    50   ar
    89    95    97   ar
    90    95    93   ar
    91   236   234    1
    92    86    85   ar
    93    92    89    1
    94    92    93    1
    95    85    87   ar
    96    52    50   ar
    97    97    98   ar
    98    90    89    1
    99   235   234    1
   100    93    94   ar
   101   105   104    1
   102   234   233    2
   103   104   101    1
   104    98    99    1
   105    98    96   ar
   106   162   160    1
   107    94    96   ar
   108   130   129   ar
   109   100   101    1
   110   233   232    1
   111   101   102    1
   112   127   128    1
   113   127   124    1
   114   128   129    1
   115   160   161    1
   116   160   159    2
   117   129   131   ar
   118   232   231    1
   119   159   158    1
   120   158   157    1
   121   152   153    1
   122   153   154    1
   123   153   156    1
   124   144   145    1
   125   144   143    1
   126   144   147    1
   127   145   146    2
   128   102   103    2
   129   102   109   am
   130   154   155    2
   131   124   125    1
   132   124   123    1
   133   125   126    2
   134   148   147    1
   135   148   149    1
   136   123   111   am
   137   151   149   am
   138   109   110    1
   139   157   156    1
   140   231   230    1
   141   149   150    2
   142   230   227    1
   143   111   110    1
   144   111   112    2
   145   163   164    1
   146   110   113    1
   147   121   119   ar
   148   121   122   ar
   149   196   195   ar
   150   196   194   ar
   151   119   116   ar
   152   195   193   ar
   153   113   114    1
   154   194   192   ar
   155   122   120   ar
   156   168   169    1
   157   168   167    1
   158   116   114   ar
   159   116   118   ar
   160   169   170    1
   161   216   214    1
   162   114   115   ar
   163   177   176    2
   164   227   228    1
   165   227   226    1
   166   213   214    2
   167   213   212    1
   168   120   118   ar
   169   193   190   ar
   170   118   117   ar
   171   164   167    1
   172   164   165    1
   173   192   190   ar
   174   192   191   ar
   175   172   171    1
   176   115   117   ar
   177   228   229    2
   178   228   237   am
   179   214   215    1
   180   182   181    1
   181   190   188   ar
   182   174   175    1
   183   181   180    1
   184   237   238    1
   185   212   211    1
   186   191   189   ar
   187   170   171    2
   188   211   210    1
   189   165   166    2
   190   176   175    1
   191   238   239    1
   192   171   173    1
   193   188   189   ar
   194   188   187    1
   195   175   178    1
   196   209   208    2
   197   178   179    1
   198   220   219    2
   199   187   184    1
   200   180   179    1
   201   210   207    1
   202   207   208    1
   203   207   206    1
   204   142   140    1
   205   204   203    2
   206   239   240    2
   207   200   199    2
   208   219   218    1
   209   206   199   am
   210   183   184    1
   211   199   198    1
   212   184   185    1
   213   140   141    1
   214   140   139    2
   215   186   185    2
   216   201   198    1
   217   201   202    1
   218   203   202    1
   219   203   205   am
   220   138   139    1
   221   138   137    1
   222   222   221    1
   223   222   223    1
   224   217   218    1
   225   198   197    1
   226   218   221    1
   227   136   137    1
   228   136   133    1
   229   225   223   am
   230   223   224    2
   231   133   132    1
   232   133   134    1
   233   134   135    2
