@<TRIPOS>MOLECULE
tmp/3hxiA00.pdb
 166 164 0 0 0
SMALL
GASTEIGER

@<TRIPOS>ATOM
      1  N          0.9070   18.2680   -1.3720 N.3     4  HIS4       -0.1227
      2  CA         0.9690   18.7060    0.0230 C.3     4  HIS4        0.1737
      3  C          2.1080   19.7130    0.1660 C.2     4  HIS4        0.2438
      4  O          3.2550   19.3590   -0.0520 O.2     4  HIS4       -0.2733
      5  CB         1.2160   17.5150    0.9450 C.3     4  HIS4        0.0758
      6  CG         0.1170   16.4910    0.9400 C.ar    4  HIS4        0.0818
      7  ND1       -0.0360   15.5570   -0.0650 N.ar    4  HIS4       -0.2268
      8  CD2       -0.8570   16.2340    1.8420 C.ar    4  HIS4        0.1154
      9  CE1       -1.0560   14.7680    0.2240 C.ar    4  HIS4        0.1986
     10  NE2       -1.5770   15.1650    1.3700 N.ar    4  HIS4       -0.2212
     11  N          1.7930   20.9780    0.4920 N.am    5  PRO5       -0.2718
     12  CA         2.8630   21.9680    0.5380 C.3     5  PRO5        0.1535
     13  C          3.7330   21.8060    1.7730 C.2     5  PRO5        0.2598
     14  O          3.2520   21.4330    2.8440 O.2     5  PRO5       -0.2715
     15  CB         2.1020   23.3020    0.5980 C.3     5  PRO5        0.0310
     16  CG         0.8040   22.9460    1.2480 C.3     5  PRO5        0.0237
     17  CD         0.4720   21.5680    0.7830 C.3     5  PRO5        0.0939
     18  N          5.0180   22.0720    1.6110 N.am    6  LEU6       -0.1964
     19  CA         5.9270   22.0480    2.7500 C.3     6  LEU6        0.1728
     20  C          6.0210   23.4150    3.4150 C.2     6  LEU6        0.2616
     21  O          5.7790   24.4490    2.7790 O.2     6  LEU6       -0.2715
     22  CB         7.3210   21.6240    2.2950 C.3     6  LEU6        0.0311
     23  CG         7.4590   20.3050    1.5470 C.3     6  LEU6        0.0022
     24  CD1        8.9010   20.1830    1.1040 C.3     6  LEU6        0.0001
     25  CD2        7.0910   19.1450    2.4300 C.3     6  LEU6        0.0001
     26  N          6.3850   23.3950    4.6960 N.am    7  GLN7       -0.1977
     27  CA         6.7640   24.6020    5.4460 C.3     7  GLN7        0.1601
     28  C          7.7610   25.4610    4.6860 C.2     7  GLN7        0.2287
     29  O          7.6190   26.6910    4.6590 O.2     7  GLN7       -0.2864
     30  CB         7.3350   24.2430    6.8250 C.3     7  GLN7        0.0394
     31  CG         7.8640   25.4620    7.6050 C.3     7  GLN7        0.0908
     32  CD         6.7640   26.4820    7.8990 C.2     7  GLN7        0.2608
     33  OE1        5.5770   26.1460    7.9330 O.2     7  GLN7       -0.2717
     34  NE2        7.1580   27.7290    8.1100 N.am    7  GLN7       -0.0878
     35  N          5.5770   17.5940   -0.6020 N.3    36  ILE36      -0.1245
     36  CA         5.9740   16.2140   -0.2560 C.3    36  ILE36       0.1561
     37  C          6.2080   15.4130   -1.5270 C.2    36  ILE36       0.2260
     38  O          7.1720   14.6350   -1.6230 O.2    36  ILE36      -0.2867
     39  CB         4.8740   15.4670    0.5490 C.3    36  ILE36       0.0252
     40  CG1        4.6310   16.1510    1.8960 C.3    36  ILE36       0.0019
     41  CG2        5.2340   13.9610    0.7130 C.3    36  ILE36       0.0019
     42  CD1        3.4600   15.5660    2.6910 C.3    36  ILE36       0.0001
     43  N          9.8920   13.5340   -2.6090 N.3    40  TRP40      -0.1241
     44  CA        10.1220   12.1280   -2.9050 C.3    40  TRP40       0.1605
     45  C         10.5910   11.8870   -4.3490 C.2    40  TRP40       0.2264
     46  O         11.3730   10.9660   -4.5910 O.2    40  TRP40      -0.2867
     47  CB         8.9010   11.2680   -2.5810 C.3    40  TRP40       0.0550
     48  CG         8.6390   11.0510   -1.0960 C.ar   40  TRP40       0.0003
     49  CD1        7.4700   11.2960   -0.4210 C.ar   40  TRP40       0.0946
     50  CD2        9.5530   10.5260   -0.1260 C.ar   40  TRP40       0.0152
     51  NE1        7.6090   10.9700    0.9120 N.ar   40  TRP40      -0.2442
     52  CE2        8.8720   10.4820    1.1160 C.ar   40  TRP40       0.0810
     53  CE3       10.8870   10.0940   -0.1800 C.ar   40  TRP40       0.0012
     54  CZ2        9.4800   10.0130    2.2890 C.ar   40  TRP40       0.0191
     55  CZ3       11.4910    9.6200    0.9950 C.ar   40  TRP40       0.0001
     56  CH2       10.7890    9.6010    2.2100 C.ar   40  TRP40       0.0015
     57  N         18.9180    4.8710    5.0260 N.3    92  PHE92      -0.1241
     58  CA        18.0340    5.1210    6.1860 C.3    92  PHE92       0.1605
     59  C         18.3910    6.4560    6.8510 C.2    92  PHE92       0.2264
     60  O         17.5090    7.3010    7.0850 O.2    92  PHE92      -0.2867
     61  CB        18.1340    3.9520    7.1930 C.3    92  PHE92       0.0534
     62  CG        17.3750    4.1750    8.4740 C.ar   92  PHE92      -0.0203
     63  CD1       15.9960    3.9170    8.5380 C.ar   92  PHE92      -0.0042
     64  CD2       18.0300    4.6460    9.6130 C.ar   92  PHE92      -0.0042
     65  CE1       15.2830    4.1370    9.7290 C.ar   92  PHE92      -0.0003
     66  CE2       17.3380    4.8640   10.8110 C.ar   92  PHE92      -0.0003
     67  CZ        15.9630    4.6130   10.8750 C.ar   92  PHE92      -0.0000
     68  N         15.7270    9.4820    6.7840 N.3    96  GLU96      -0.1245
     69  CA        15.1560    9.9160    8.0660 C.3    96  GLU96       0.1567
     70  C         15.5110   11.3760    8.3410 C.2    96  GLU96       0.2260
     71  O         14.6820   12.1610    8.8530 O.2    96  GLU96      -0.2867
     72  CB        15.6800    9.0540    9.2220 C.3    96  GLU96       0.0388
     73  CG        15.1790    7.6020    9.2030 C.3    96  GLU96       0.1160
     74  CD        13.6540    7.5070    9.1930 C.2    96  GLU96       0.3649
     75  OE1       12.9750    8.2080    9.9800 O.co2  96  GLU96      -0.2457
     76  OE2       13.1420    6.6880    8.4180 O.co2  96  GLU96      -0.2457
     77  N         13.4660   13.6320    5.9830 N.3    99  MET99      -0.1245
     78  CA        12.0820   13.6350    6.4400 C.3    99  MET99       0.1570
     79  C         11.9030   14.5770    7.6440 C.2    99  MET99       0.2261
     80  O         10.9690   15.3730    7.6840 O.2    99  MET99      -0.2867
     81  CB        11.5920   12.2250    6.7540 C.3    99  MET99       0.0387
     82  CG        11.1820   11.4340    5.5000 C.3    99  MET99       0.0595
     83  SD        10.2720    9.9180    5.9350 S.3    99  MET99      -0.1393
     84  CE        11.5270    8.9770    6.7980 C.3    99  MET99       0.0692
     85  N         12.3430   18.3210    6.0760 N.3   102  ILE102     -0.1231
     86  CA        11.3040   18.8250    5.1520 C.3   102  ILE102      0.1692
     87  C          9.9190   18.7630    5.8070 C.2   102  ILE102      0.2593
     88  O          9.0510   19.5910    5.5260 O.2   102  ILE102     -0.2718
     89  CB        11.2960   18.0770    3.7730 C.3   102  ILE102      0.0266
     90  CG1       10.8550   16.6180    3.9290 C.3   102  ILE102      0.0019
     91  CG2       12.6750   18.1780    3.0520 C.3   102  ILE102      0.0020
     92  CD1        9.4310   16.3910    3.3700 C.3   102  ILE102      0.0001
     93  N          9.7210   17.7850    6.6920 N.am  103  GLY103     -0.1942
     94  CA         8.4690   17.6800    7.4420 C.3   103  GLY103      0.2014
     95  C          8.4220   18.6550    8.6080 C.2   103  GLY103      0.2640
     96  O          7.3900   18.7570    9.2870 O.2   103  GLY103     -0.2714
     97  N          9.5380   19.3520    8.8550 N.am  104  SER104     -0.1935
     98  CA         9.6920   20.2700   10.0000 C.3   104  SER104      0.2055
     99  C          9.2110   19.6410   11.3090 C.2   104  SER104      0.2643
    100  O          8.4610   20.2630   12.0650 O.2   104  SER104     -0.2714
    101  CB         8.9620   21.6040    9.7410 C.3   104  SER104      0.2130
    102  OG         9.3140   22.5830   10.7170 O.3   104  SER104     -0.2179
    103  N          9.6520   18.4170   11.5880 N.am  105  ASP105     -0.1957
    104  CA         9.1110   17.6690   12.7280 C.3   105  ASP105      0.1840
    105  C          9.8830   17.9520   14.0220 C.2   105  ASP105      0.2622
    106  O         10.3530   17.0370   14.7020 O.2   105  ASP105     -0.2715
    107  CB         9.0100   16.1600   12.4390 C.3   105  ASP105      0.1450
    108  CG         8.0190   15.4700   13.3570 C.2   105  ASP105      0.3671
    109  OD1        7.1380   16.1810   13.8910 O.co2 105  ASP105     -0.2456
    110  OD2        8.1140   14.2400   13.5460 O.co2 105  ASP105     -0.2456
    111  N         10.0220   19.2450   14.3140 N.am  106  TRP106     -0.1960
    112  CA        10.6800   19.7630   15.5110 C.3   106  TRP106      0.1771
    113  C          9.5630   20.1680   16.4400 C.2   106  TRP106      0.2620
    114  O          8.4900   20.5250   15.9750 O.2   106  TRP106     -0.2715
    115  CB        11.5110   21.0190   15.1760 C.3   106  TRP106      0.0590
    116  CG        12.4110   20.8190   13.9970 C.ar  106  TRP106      0.0006
    117  CD1       12.1870   21.2290   12.7080 C.ar  106  TRP106      0.0946
    118  CD2       13.6550   20.1110   13.9810 C.ar  106  TRP106      0.0152
    119  NE1       13.2250   20.8430   11.9030 N.ar  106  TRP106     -0.2442
    120  CE2       14.1380   20.1480   12.6480 C.ar  106  TRP106      0.0810
    121  CE3       14.4150   19.4580   14.9630 C.ar  106  TRP106      0.0012
    122  CZ2       15.3500   19.5470   12.2650 C.ar  106  TRP106      0.0191
    123  CZ3       15.6200   18.8490   14.5820 C.ar  106  TRP106      0.0001
    124  CH2       16.0820   18.9140   13.2460 C.ar  106  TRP106      0.0015
    125  N          9.8230   20.1450   17.7420 N.am  107  ASP107     -0.1957
    126  CA         8.8000   20.5220   18.7160 C.3   107  ASP107      0.1840
    127  C          8.3220   21.9760   18.5630 C.2   107  ASP107      0.2623
    128  O          7.1160   22.2460   18.6770 O.2   107  ASP107     -0.2715
    129  CB         9.2730   20.2250   20.1430 C.3   107  ASP107      0.1450
    130  CG         9.3250   18.7190   20.4610 C.2   107  ASP107      0.3671
    131  OD1        8.6510   17.9150   19.7730 O.co2 107  ASP107     -0.2456
    132  OD2       10.0360   18.3350   21.4230 O.co2 107  ASP107     -0.2456
    133  N          9.2490   22.8920   18.2650 N.am  108  THR108     -0.1937
    134  CA         8.9890   24.3340   18.3130 C.3   108  THR108      0.2028
    135  C          9.3270   25.0480   17.0070 C.2   108  THR108      0.2642
    136  O         10.2190   24.6160   16.2750 O.2   108  THR108     -0.2714
    137  CB         9.7940   24.9980   19.4620 C.3   108  THR108      0.1808
    138  OG1       11.1830   24.9790   19.1370 O.3   108  THR108     -0.2208
    139  CG2        9.6080   24.2450   20.7720 C.3   108  THR108      0.0379
    140  N          8.6230   26.1510   16.7300 N.am  109  ASP109     -0.1971
    141  CA         8.9000   27.0110   15.5770 C.3   109  ASP109      0.1709
    142  C         10.3520   27.4570   15.5810 C.2   109  ASP109      0.2293
    143  O         10.9920   27.5050   14.5370 O.2   109  ASP109     -0.2864
    144  CB         7.9860   28.2540   15.5620 C.3   109  ASP109      0.1436
    145  CG         6.5060   27.9160   15.3280 C.2   109  ASP109      0.3671
    146  OD1        6.1590   26.7240   15.1080 O.co2 109  ASP109     -0.2456
    147  OD2        5.6720   28.8590   15.4000 O.co2 109  ASP109     -0.2456
    148  N         12.8900   25.0870   14.0120 N.3   112  ASP112     -0.1239
    149  CA        12.7980   25.1240   12.5540 C.3   112  ASP112      0.1674
    150  C         13.5190   26.3370   11.9830 C.2   112  ASP112      0.2266
    151  O         14.1530   26.2650   10.9120 O.2   112  ASP112     -0.2867
    152  CB        11.3350   25.1080   12.1190 C.3   112  ASP112      0.1410
    153  CG        11.1740   25.1330   10.6170 C.2   112  ASP112      0.3668
    154  OD1       11.2770   24.0710    9.9820 O.co2 112  ASP112     -0.2456
    155  OD2       10.9440   26.2290   10.0770 O.co2 112  ASP112     -0.2456
    156  N         15.6680   10.5360   15.8160 N.3   152  ARG152     -0.1245
    157  CA        15.1050   10.1600   14.5300 C.3   152  ARG152      0.1563
    158  C         16.0500    9.2650   13.7380 C.2   152  ARG152      0.2260
    159  O         15.6020    8.3680   13.0190 O.2   152  ARG152     -0.2867
    160  CB        14.7010   11.3940   13.7090 C.3   152  ARG152      0.0307
    161  CG        13.5110   12.1590   14.2640 C.3   152  ARG152      0.0489
    162  CD        12.1760   11.4180   14.1080 C.3   152  ARG152      0.2205
    163  NE        11.0950   12.2750   14.6040 N.pl3 152  ARG152     -0.0865
    164  CZ        10.7400   12.4160   15.8890 C.cat 152  ARG152      0.5346
    165  NH1       11.3520   11.7410   16.8620 N.pl3 152  ARG152      0.1354
    166  NH2        9.7600   13.2500   16.2060 N.pl3 152  ARG152      0.1354
@<TRIPOS>BOND
     1    46    45    2
     2    45    44    1
     3    44    43    1
     4    44    47    1
     5    47    48    1
     6    38    37    2
     7    37    36    1
     8     1     2    1
     9    48    49   ar
    10    48    50   ar
    11    35    36    1
    12    49    51   ar
    13    36    39    1
    14    53    50   ar
    15    53    55   ar
    16    50    52   ar
    17     7     9   ar
    18     7     6   ar
    19     4     3    2
    20     2     3    1
    21     2     5    1
    22     3    11   am
    23     9    10   ar
    24    11    12    1
    25    11    17    1
    26    12    15    1
    27    12    13    1
    28    39    41    1
    29    39    40    1
    30    15    16    1
    31    17    16    1
    32    51    52   ar
    33     6     5    1
    34     6     8   ar
    35    55    56   ar
    36    24    23    1
    37    52    54   ar
    38    10     8   ar
    39    23    22    1
    40    23    25    1
    41    18    13   am
    42    18    19    1
    43    13    14    2
    44    40    42    1
    45    56    54   ar
    46    22    19    1
    47    19    20    1
    48    21    20    2
    49    91    89    1
    50    92    90    1
    51    20    26   am
    52    89    90    1
    53    89    86    1
    54    29    28    2
    55    28    27    1
    56    26    27    1
    57    57    58    1
    58    86    87    1
    59    86    85    1
    60    27    30    1
    61    82    83    1
    62    82    81    1
    63    88    87    2
    64    87    93   am
    65    83    84    1
    66    77    78    1
    67    58    59    1
    68    58    61    1
    69    78    81    1
    70    78    79    1
    71    93    94    1
    72    68    69    1
    73    30    31    1
    74    59    60    2
    75    61    62    1
    76    94    95    1
    77    31    32    1
    78    79    80    2
    79    32    33    2
    80    32    34   am
    81    69    70    1
    82    69    72    1
    83    70    71    2
    84    76    74   ar
    85    62    63   ar
    86    62    64   ar
    87    63    65   ar
    88    95    97   am
    89    95    96    2
    90    97    98    1
    91    74    73    1
    92    74    75   ar
    93    73    72    1
    94    64    66   ar
    95    65    67   ar
    96   101    98    1
    97   101   102    1
    98   154   153   ar
    99    98    99    1
   100   155   153   ar
   101   153   152    1
   102    66    67   ar
   103   151   150    2
   104    99   103   am
   105    99   100    2
   106   103   104    1
   107   119   120   ar
   108   119   117   ar
   109   150   149    1
   110   152   149    1
   111   122   120   ar
   112   122   124   ar
   113   107   104    1
   114   107   108    1
   115   149   148    1
   116   120   118   ar
   117   117   116   ar
   118   104   105    1
   119   159   158    2
   120   124   123   ar
   121   108   110   ar
   122   108   109   ar
   123   160   161    1
   124   160   157    1
   125   158   157    1
   126   118   116   ar
   127   118   121   ar
   128   116   115    1
   129   105   111   am
   130   105   106    2
   131   162   161    1
   132   162   163    1
   133   111   112    1
   134   157   156    1
   135   143   142    2
   136   123   121   ar
   137   163   164    2
   138   146   145   ar
   139   115   112    1
   140   145   147   ar
   141   145   144    1
   142   112   113    1
   143   144   141    1
   144   141   142    1
   145   141   140    1
   146   164   166    1
   147   164   165    1
   148   114   113    2
   149   136   135    2
   150   113   125   am
   151   140   135   am
   152   135   134    1
   153   125   126    1
   154   133   134    1
   155   133   127   am
   156   134   137    1
   157   127   128    2
   158   127   126    1
   159   126   129    1
   160   138   137    1
   161   137   139    1
   162   131   130   ar
   163   129   130    1
   164   130   132   ar
