@<TRIPOS>MOLECULE
tmp/3hxyA00.pdb
 198 187 0 0 0
SMALL
GASTEIGER

@<TRIPOS>ATOM
      1  N          8.1820    4.3980    1.3500 N.3    41  ALA41      -0.1245
      2  CA         8.2580    4.8120   -0.0470 C.3    41  ALA41       0.1562
      3  C          6.9090    5.3240   -0.5430 C.2    41  ALA41       0.2260
      4  O          5.8660    5.0180    0.0350 O.2    41  ALA41      -0.2867
      5  CB         8.7430    3.6610   -0.9190 C.3    41  ALA41       0.0290
      6  N          5.5120    4.5500   -3.3770 N.3    43  MET43      -0.1245
      7  CA         4.8230    3.5300   -4.1650 C.3    43  MET43       0.1570
      8  C          3.9490    2.6080   -3.3200 C.2    43  MET43       0.2261
      9  O          3.1010    1.8910   -3.8530 O.2    43  MET43      -0.2867
     10  CB         5.8280    2.7040   -4.9780 C.3    43  MET43       0.0387
     11  CG         6.8620    1.9500   -4.1500 C.3    43  MET43       0.0595
     12  SD         6.2210    0.4640   -3.3490 S.3    43  MET43      -0.1393
     13  CE         5.4900   -0.3900   -4.7410 C.3    43  MET43       0.0692
     14  N         11.8690    5.9230    7.8470 N.3    69  ARG69      -0.1245
     15  CA        12.8110    4.8480    7.6840 C.3    69  ARG69       0.1563
     16  C         13.6610    4.7220    8.9420 C.2    69  ARG69       0.2260
     17  O         14.7890    5.1540    8.9890 O.2    69  ARG69      -0.2867
     18  CB        13.6840    5.0790    6.4500 C.3    69  ARG69       0.0307
     19  CG        13.0250    4.7550    5.1490 C.3    69  ARG69       0.0489
     20  CD        13.9150    5.0600    3.9600 C.3    69  ARG69       0.2205
     21  NE        13.2180    4.7750    2.7290 N.pl3  69  ARG69      -0.0865
     22  CZ        13.7890    4.5320    1.5680 C.cat  69  ARG69       0.5346
     23  NH1       15.0890    4.5080    1.4470 N.pl3  69  ARG69       0.1354
     24  NH2       13.0350    4.2940    0.5360 N.pl3  69  ARG69       0.1354
     25  N         14.7660   -0.4140    5.2750 N.3    74  HIS74      -0.1241
     26  CA        15.5140    0.8220    5.4510 C.3    74  HIS74       0.1621
     27  C         15.5020    1.3340    6.8670 C.2    74  HIS74       0.2264
     28  O         14.4760    1.6540    7.4330 O.2    74  HIS74      -0.2867
     29  CB        15.0080    1.8870    4.5070 C.3    74  HIS74       0.0745
     30  CG        15.0240    1.4550    3.0870 C.ar   74  HIS74       0.0817
     31  ND1       13.9060    0.9810    2.4470 N.ar   74  HIS74      -0.2268
     32  CD2       16.0280    1.3970    2.1880 C.ar   74  HIS74       0.1154
     33  CE1       14.2140    0.6730    1.2050 C.ar   74  HIS74       0.1986
     34  NE2       15.4970    0.9080    1.0250 N.ar   74  HIS74      -0.2212
     35  N         17.6930    4.2030    8.9230 N.3    76  ASP76      -0.1239
     36  CA        18.5440    5.3070    8.6280 C.3    76  ASP76       0.1674
     37  C         18.7500    6.1050    9.8870 C.2    76  ASP76       0.2266
     38  O         19.3090    7.1640    9.8620 O.2    76  ASP76      -0.2867
     39  CB        17.9120    6.1430    7.5150 C.3    76  ASP76       0.1410
     40  CG        18.1630    5.5580    6.1340 C.2    76  ASP76       0.3668
     41  OD1       19.3220    5.2790    5.8400 O.co2  76  ASP76      -0.2456
     42  OD2       17.2140    5.3850    5.3550 O.co2  76  ASP76      -0.2456
     43  N         22.3610   14.0200    4.4070 N.3    85  ARG85      -0.1231
     44  CA        21.2940   13.6000    3.5010 C.3    85  ARG85       0.1694
     45  C         20.2640   12.6400    4.0980 C.2    85  ARG85       0.2592
     46  O         19.2930   12.2830    3.4310 O.2    85  ARG85      -0.2718
     47  CB        21.9050   12.9790    2.2410 C.3    85  ARG85       0.0321
     48  CG        22.6900   11.7000    2.4980 C.3    85  ARG85       0.0489
     49  CD        23.4240   11.2430    1.2490 C.3    85  ARG85       0.2205
     50  NE        23.8310    9.8420    1.3290 N.pl3  85  ARG85      -0.0865
     51  CZ        25.0130    9.4250    1.7730 C.cat  85  ARG85       0.5346
     52  NH1       25.9200   10.3010    2.1830 N.pl3  85  ARG85       0.1354
     53  NH2       25.2890    8.1290    1.8050 N.pl3  85  ARG85       0.1354
     54  N         20.4650   12.2200    5.3430 N.am   86  HIS86      -0.1962
     55  CA        19.5960   11.2000    5.9330 C.3    86  HIS86       0.1787
     56  C         18.6640   11.7090    7.0290 C.2    86  HIS86       0.2620
     57  O         19.0860   12.4140    7.9460 O.2    86  HIS86      -0.2715
     58  CB        20.4180   10.0230    6.4640 C.3    86  HIS86       0.0785
     59  CG        21.0090    9.1630    5.3900 C.ar   86  HIS86       0.0821
     60  ND1       22.3630    9.1110    5.1400 N.ar   86  HIS86      -0.2267
     61  CD2       20.4290    8.3190    4.5040 C.ar   86  HIS86       0.1154
     62  CE1       22.5920    8.2730    4.1450 C.ar   86  HIS86       0.1986
     63  NE2       21.4360    7.7790    3.7410 N.ar   86  HIS86      -0.2212
     64  N         17.3930   11.3350    6.9180 N.am   87  HIS87      -0.1973
     65  CA        16.4010   11.6020    7.9500 C.3    87  HIS87       0.1656
     66  C         15.7260   10.3000    8.3600 C.2    87  HIS87       0.2291
     67  O         15.8690    9.2780    7.6870 O.2    87  HIS87      -0.2864
     68  CB        15.3230   12.5580    7.4340 C.3    87  HIS87       0.0771
     69  CG        15.8450   13.8810    6.9730 C.ar   87  HIS87       0.0820
     70  ND1       16.5990   14.7060    7.7790 N.ar   87  HIS87      -0.2267
     71  CD2       15.6990   14.5340    5.7960 C.ar   87  HIS87       0.1154
     72  CE1       16.9090   15.8040    7.1120 C.ar   87  HIS87       0.1986
     73  NE2       16.3730   15.7250    5.9080 N.ar   87  HIS87      -0.2212
     74  N         10.9440   11.8340    6.2230 N.3    90  PHE90      -0.1241
     75  CA        11.1980   12.6590    5.0510 C.3    90  PHE90       0.1605
     76  C         10.0690   12.5130    4.0380 C.2    90  PHE90       0.2264
     77  O          9.3270   11.5300    4.0590 O.2    90  PHE90      -0.2867
     78  CB        12.5470   12.3060    4.4130 C.3    90  PHE90       0.0534
     79  CG        12.5490   10.9980    3.6730 C.ar   90  PHE90      -0.0203
     80  CD1       12.3690   10.9650    2.2980 C.ar   90  PHE90      -0.0042
     81  CD2       12.7380    9.8020    4.3490 C.ar   90  PHE90      -0.0042
     82  CE1       12.3710    9.7640    1.6120 C.ar   90  PHE90      -0.0003
     83  CE2       12.7420    8.5980    3.6680 C.ar   90  PHE90      -0.0003
     84  CZ        12.5590    8.5790    2.2980 C.ar   90  PHE90      -0.0000
     85  N          8.9490   11.9350    0.2250 N.3    92  MET92      -0.1245
     86  CA         9.4030   11.4200   -1.0560 C.3    92  MET92       0.1570
     87  C          8.5110   11.9370   -2.1790 C.2    92  MET92       0.2261
     88  O          7.3430   11.5630   -2.2810 O.2    92  MET92      -0.2867
     89  CB         9.4210    9.8900   -1.0500 C.3    92  MET92       0.0387
     90  CG        10.1340    9.2800   -2.2480 C.3    92  MET92       0.0595
     91  SD        10.1670    7.4770   -2.2300 S.3    92  MET92      -0.1393
     92  CE        11.1150    7.1650   -0.7420 C.3    92  MET92       0.0692
     93  N         15.6400   -1.7550   -7.4870 N.3   170  TRP170     -0.1241
     94  CA        14.8160   -1.4160   -6.3460 C.3   170  TRP170      0.1605
     95  C         13.8130   -2.5170   -6.0380 C.2   170  TRP170      0.2264
     96  O         13.0780   -2.9610   -6.9150 O.2   170  TRP170     -0.2867
     97  CB        14.1000   -0.0860   -6.5690 C.3   170  TRP170      0.0550
     98  CG        13.5540    0.4680   -5.3060 C.ar  170  TRP170      0.0003
     99  CD1       14.2160    1.2420   -4.4020 C.ar  170  TRP170      0.0946
    100  CD2       12.2390    0.2710   -4.7810 C.ar  170  TRP170      0.0152
    101  NE1       13.3940    1.5470   -3.3490 N.ar  170  TRP170     -0.2442
    102  CE2       12.1730    0.9620   -3.5560 C.ar  170  TRP170      0.0810
    103  CE3       11.1090   -0.4210   -5.2280 C.ar  170  TRP170      0.0012
    104  CZ2       11.0200    0.9860   -2.7740 C.ar  170  TRP170      0.0191
    105  CZ3        9.9660   -0.3980   -4.4500 C.ar  170  TRP170      0.0001
    106  CH2        9.9310    0.3010   -3.2360 C.ar  170  TRP170      0.0015
    107  N         19.2340    6.2430  -11.2990 N.3   183  GLU183     -0.1245
    108  CA        19.2770    7.2240  -10.2220 C.3   183  GLU183      0.1567
    109  C         20.0900    8.4540  -10.5990 C.2   183  GLU183      0.2260
    110  O         21.1360    8.3510  -11.2390 O.2   183  GLU183     -0.2867
    111  CB        19.8210    6.5850   -8.9420 C.3   183  GLU183      0.0388
    112  CG        19.0810    5.3180   -8.5420 C.3   183  GLU183      0.1160
    113  CD        19.5070    4.7820   -7.1920 C.2   183  GLU183      0.3649
    114  OE1       20.6470    5.0600   -6.7640 O.co2 183  GLU183     -0.2457
    115  OE2       18.6970    4.0740   -6.5560 O.co2 183  GLU183     -0.2457
    116  N         22.5270   11.2850   -3.8640 N.3   209  GLU209     -0.1231
    117  CA        21.4340   10.7400   -4.6600 C.3   209  GLU209      0.1699
    118  C         20.1600   11.5540   -4.4680 C.2   209  GLU209      0.2592
    119  O         19.6220   11.6330   -3.3630 O.2   209  GLU209     -0.2718
    120  CB        21.1810    9.2820   -4.2840 C.3   209  GLU209      0.0402
    121  CG        19.9850    8.6630   -4.9790 C.3   209  GLU209      0.1161
    122  CD        19.7170    7.2500   -4.5160 C.2   209  GLU209      0.3649
    123  OE1       18.5400    6.8350   -4.5220 O.co2 209  GLU209     -0.2457
    124  OE2       20.6850    6.5550   -4.1410 O.co2 209  GLU209     -0.2457
    125  N         19.6770   12.1480   -5.5530 N.am  210  ILE210     -0.1980
    126  CA        18.5190   13.0290   -5.4900 C.3   210  ILE210      0.1595
    127  C         17.2260   12.3150   -5.8740 C.2   210  ILE210      0.2287
    128  O         16.2270   12.3980   -5.1620 O.2   210  ILE210     -0.2864
    129  CB        18.7070   14.2640   -6.4000 C.3   210  ILE210      0.0276
    130  CG1       19.9730   15.0300   -6.0100 C.3   210  ILE210      0.0022
    131  CG2       17.4910   15.1730   -6.3350 C.3   210  ILE210      0.0022
    132  CD1       19.9760   15.5260   -4.5800 C.3   210  ILE210      0.0001
    133  N         15.3890    8.7110   -7.5550 N.3   212  ASN212     -0.1240
    134  CA        15.4080    7.3190   -7.9940 C.3   212  ASN212      0.1653
    135  C         14.2210    7.0050   -8.9000 C.2   212  ASN212      0.2266
    136  O         13.0680    7.0940   -8.4800 O.2   212  ASN212     -0.2867
    137  CB        15.4240    6.3690   -6.7930 C.3   212  ASN212      0.1155
    138  CG        15.5460    4.9090   -7.2020 C.2   212  ASN212      0.2627
    139  OD1       15.7820    4.5940   -8.3690 O.2   212  ASN212     -0.2716
    140  ND2       15.3880    4.0100   -6.2380 N.am  212  ASN212     -0.0877
    141  N         12.4390    4.1410  -10.8080 N.3   214  VAL214     -0.1245
    142  CA        12.3390    2.6880  -10.8950 C.3   214  VAL214      0.1561
    143  C         11.4550    2.2450  -12.0550 C.2   214  VAL214      0.2260
    144  O         10.3190    2.7000  -12.1970 O.2   214  VAL214     -0.2867
    145  CB        11.7950    2.0770   -9.5870 C.3   214  VAL214      0.0252
    146  CG1       11.8130    0.5530   -9.6580 C.3   214  VAL214      0.0019
    147  CG2       12.6010    2.5710   -8.3940 C.3   214  VAL214      0.0019
    148  N          7.9350    3.8720  -11.1470 N.3   235  ASP235     -0.1225
    149  CA         7.8360    4.3440   -9.7750 C.3   235  ASP235      0.1805
    150  C          9.0600    5.1970   -9.4690 C.2   235  ASP235      0.2598
    151  O         10.1790    4.6910   -9.4370 O.2   235  ASP235     -0.2718
    152  CB         7.7560    3.1580   -8.8100 C.3   235  ASP235      0.1424
    153  CG         8.2150    3.5090   -7.4040 C.2   235  ASP235      0.3668
    154  OD1        7.8160    4.5720   -6.8840 O.co2 235  ASP235     -0.2456
    155  OD2        8.9740    2.7110   -6.8140 O.co2 235  ASP235     -0.2456
    156  N          8.8570    6.4940   -9.2600 N.am  236  THR236     -0.1939
    157  CA         9.9770    7.3740   -8.9480 C.3   236  THR236      0.2028
    158  C          9.8590    7.9590   -7.5480 C.2   236  THR236      0.2642
    159  O          8.7680    8.0440   -6.9860 O.2   236  THR236     -0.2714
    160  CB        10.1280    8.5260   -9.9620 C.3   236  THR236      0.1808
    161  OG1        9.2950    9.6260   -9.5750 O.3   236  THR236     -0.2208
    162  CG2        9.7660    8.0680  -11.3660 C.3   236  THR236      0.0379
    163  N         10.9970    8.3600   -6.9950 N.am  237  GLY237     -0.1954
    164  CA        11.0450    8.9320   -5.6610 C.3   237  GLY237      0.1869
    165  C         12.2130    9.8810   -5.5100 C.2   237  GLY237      0.2309
    166  O         13.3670    9.4990   -5.7040 O.2   237  GLY237     -0.2863
    167  N         13.8320   12.7150   -2.7720 N.3   239  GLY239     -0.1225
    168  CA        13.8170   13.3240   -1.4490 C.3   239  GLY239      0.1811
    169  C         13.6150   14.8230   -1.5420 C.2   239  GLY239      0.2280
    170  O         14.4410   15.5330   -2.1130 O.2   239  GLY239     -0.2866
    171  N         13.7840   17.0340    0.7810 N.3   241  GLU241     -0.1231
    172  CA        14.8140   17.7300    1.5420 C.3   241  GLU241      0.1699
    173  C         16.1240   17.8180    0.7620 C.2   241  GLU241      0.2592
    174  O         16.8190   18.8330    0.8170 O.2   241  GLU241     -0.2718
    175  CB        15.0430   17.0430    2.8920 C.3   241  GLU241      0.0402
    176  CG        13.8170   17.0040    3.8010 C.3   241  GLU241      0.1161
    177  CD        12.8310   15.9080    3.4260 C.2   241  GLU241      0.3649
    178  OE1       13.1630   15.0640    2.5660 O.co2 241  GLU241     -0.2457
    179  OE2       11.7200   15.8890    3.9970 O.co2 241  GLU241     -0.2457
    180  N         16.4500   16.7550    0.0330 N.am  242  ARG242     -0.1980
    181  CA        17.6870   16.7100   -0.7410 C.3   242  ARG242      0.1597
    182  C         17.6550   17.6500   -1.9450 C.2   242  ARG242      0.2287
    183  O         18.6400   18.3320   -2.2300 O.2   242  ARG242     -0.2864
    184  CB        18.0010   15.2800   -1.1840 C.3   242  ARG242      0.0334
    185  CG        18.3370   14.3430   -0.0360 C.3   242  ARG242      0.0492
    186  CD        18.7980   12.9910   -0.5430 C.3   242  ARG242      0.2205
    187  NE        18.9800   12.0340    0.5440 N.pl3 242  ARG242     -0.0865
    188  CZ        19.5330   10.8340    0.3990 C.cat 242  ARG242      0.5346
    189  NH1       19.9660   10.4390   -0.7910 N.pl3 242  ARG242      0.1354
    190  NH2       19.6590   10.0300    1.4450 N.pl3 242  ARG242      0.1354
    191  N         20.8200   18.7890    4.1560 N.3   253  ASN253     -0.1240
    192  CA        19.3740   18.8800    4.3110 C.3   253  ASN253      0.1653
    193  C         18.9970   19.7590    5.4960 C.2   253  ASN253      0.2266
    194  O         17.9480   20.4020    5.4980 O.2   253  ASN253     -0.2867
    195  CB        18.7680   17.4890    4.5080 C.3   253  ASN253      0.1155
    196  CG        18.8110   16.6460    3.2510 C.2   253  ASN253      0.2627
    197  OD1       19.3860   17.0440    2.2390 O.2   253  ASN253     -0.2716
    198  ND2       18.1990   15.4690    3.3110 N.am  253  ASN253     -0.0877
@<TRIPOS>BOND
     1   144   143    2
     2   143   142    1
     3   162   160    1
     4   107   108    1
     5   110   109    2
     6   148   149    1
     7   142   141    1
     8   142   145    1
     9   109   108    1
    10   108   111    1
    11   160   161    1
    12   160   157    1
    13   149   150    1
    14   149   152    1
    15   146   145    1
    16   145   147    1
    17   150   151    2
    18   150   156   am
    19   156   157    1
    20   157   158    1
    21   111   112    1
    22   135   136    2
    23   135   134    1
    24   152   153    1
    25   112   113    1
    26   139   138    2
    27   134   133    1
    28   134   137    1
    29   158   163   am
    30   158   159    2
    31    93    94    1
    32   153   154   ar
    33   153   155   ar
    34   138   137    1
    35   138   140   am
    36   113   114   ar
    37   113   115   ar
    38   163   164    1
    39    96    95    2
    40    97    94    1
    41    97    98    1
    42   129   131    1
    43   129   130    1
    44   129   126    1
    45    94    95    1
    46   130   132    1
    47   127   126    1
    48   127   128    2
    49   166   165    2
    50   164   165    1
    51   125   126    1
    52   125   118   am
    53    98   100   ar
    54    98    99   ar
    55   103   100   ar
    56   103   105   ar
    57   121   122    1
    58   121   120    1
    59    10     7    1
    60    10    11    1
    61   100   102   ar
    62    13    12    1
    63   117   118    1
    64   117   120    1
    65   117   116    1
    66   123   122   ar
    67   122   124   ar
    68   118   119    2
    69   105   106   ar
    70    99   101   ar
    71     7     6    1
    72     7     8    1
    73    11    12    1
    74     9     8    2
    75   102   101   ar
    76   102   104   ar
    77   106   104   ar
    78   167   168    1
    79    88    87    2
    80    90    91    1
    81    90    89    1
    82   183   182    2
    83    91    92    1
    84    87    86    1
    85   170   169    2
    86   182   181    1
    87   169   168    1
    88   184   181    1
    89   184   185    1
    90    86    89    1
    91    86    85    1
    92     5     2    1
    93   189   188    1
    94   181   180    1
    95     3     2    1
    96     3     4    2
    97   186   185    1
    98   186   187    1
    99     2     1    1
   100   180   173   am
   101   188   187    2
   102   188   190    1
   103    24    22    1
   104   173   174    2
   105   173   172    1
   106   171   172    1
   107    34    33   ar
   108    34    32   ar
   109    33    31   ar
   110    49    50    1
   111    49    48    1
   112    50    51    2
   113    23    22    1
   114   172   175    1
   115    22    21    2
   116    82    80   ar
   117    82    84   ar
   118    51    53    1
   119    51    52    1
   120    32    30   ar
   121   197   196    2
   122    47    48    1
   123    47    44    1
   124    80    79   ar
   125    84    83   ar
   126    31    30   ar
   127   178   177   ar
   128    21    20    1
   129   175   176    1
   130    30    29    1
   131   196   198   am
   132   196   195    1
   133   177   176    1
   134   177   179   ar
   135    46    45    2
   136    44    45    1
   137    44    43    1
   138    83    81   ar
   139    79    81   ar
   140    79    78    1
   141    63    62   ar
   142    63    61   ar
   143    20    19    1
   144    76    77    2
   145    76    75    1
   146    45    54   am
   147    62    60   ar
   148   191   192    1
   149   192   195    1
   150   192   193    1
   151    78    75    1
   152    61    59   ar
   153    29    26    1
   154    75    74    1
   155    60    59   ar
   156    19    18    1
   157    25    26    1
   158    54    55    1
   159    42    40   ar
   160    59    58    1
   161    26    27    1
   162   193   194    2
   163    71    73   ar
   164    71    69   ar
   165    41    40   ar
   166    73    72   ar
   167    55    58    1
   168    55    56    1
   169    40    39    1
   170    18    15    1
   171    27    28    2
   172    64    56   am
   173    64    65    1
   174    69    68    1
   175    69    70   ar
   176    56    57    2
   177    72    70   ar
   178    68    65    1
   179    39    36    1
   180    15    14    1
   181    15    16    1
   182    67    66    2
   183    65    66    1
   184    36    35    1
   185    36    37    1
   186    16    17    2
   187    38    37    2
