@<TRIPOS>MOLECULE
tmp/3hxyA02.pdb
 185 179 0 0 0
SMALL
GASTEIGER

@<TRIPOS>ATOM
      1  N         11.8690    5.9230    7.8470 N.3    69  ARG69      -0.1245
      2  CA        12.8110    4.8480    7.6840 C.3    69  ARG69       0.1563
      3  C         13.6610    4.7220    8.9420 C.2    69  ARG69       0.2260
      4  O         14.7890    5.1540    8.9890 O.2    69  ARG69      -0.2867
      5  CB        13.6840    5.0790    6.4500 C.3    69  ARG69       0.0307
      6  CG        13.0250    4.7550    5.1490 C.3    69  ARG69       0.0489
      7  CD        13.9150    5.0600    3.9600 C.3    69  ARG69       0.2205
      8  NE        13.2180    4.7750    2.7290 N.pl3  69  ARG69      -0.0865
      9  CZ        13.7890    4.5320    1.5680 C.cat  69  ARG69       0.5346
     10  NH1       15.0890    4.5080    1.4470 N.pl3  69  ARG69       0.1354
     11  NH2       13.0350    4.2940    0.5360 N.pl3  69  ARG69       0.1354
     12  N         14.7660   -0.4140    5.2750 N.3    74  HIS74      -0.1241
     13  CA        15.5140    0.8220    5.4510 C.3    74  HIS74       0.1621
     14  C         15.5020    1.3340    6.8670 C.2    74  HIS74       0.2264
     15  O         14.4760    1.6540    7.4330 O.2    74  HIS74      -0.2867
     16  CB        15.0080    1.8870    4.5070 C.3    74  HIS74       0.0745
     17  CG        15.0240    1.4550    3.0870 C.ar   74  HIS74       0.0817
     18  ND1       13.9060    0.9810    2.4470 N.ar   74  HIS74      -0.2268
     19  CD2       16.0280    1.3970    2.1880 C.ar   74  HIS74       0.1154
     20  CE1       14.2140    0.6730    1.2050 C.ar   74  HIS74       0.1986
     21  NE2       15.4970    0.9080    1.0250 N.ar   74  HIS74      -0.2212
     22  N         17.6930    4.2030    8.9230 N.3    76  ASP76      -0.1239
     23  CA        18.5440    5.3070    8.6280 C.3    76  ASP76       0.1674
     24  C         18.7500    6.1050    9.8870 C.2    76  ASP76       0.2266
     25  O         19.3090    7.1640    9.8620 O.2    76  ASP76      -0.2867
     26  CB        17.9120    6.1430    7.5150 C.3    76  ASP76       0.1410
     27  CG        18.1630    5.5580    6.1340 C.2    76  ASP76       0.3668
     28  OD1       19.3220    5.2790    5.8400 O.co2  76  ASP76      -0.2456
     29  OD2       17.2140    5.3850    5.3550 O.co2  76  ASP76      -0.2456
     30  N         22.3610   14.0200    4.4070 N.3    85  ARG85      -0.1231
     31  CA        21.2940   13.6000    3.5010 C.3    85  ARG85       0.1694
     32  C         20.2640   12.6400    4.0980 C.2    85  ARG85       0.2592
     33  O         19.2930   12.2830    3.4310 O.2    85  ARG85      -0.2718
     34  CB        21.9050   12.9790    2.2410 C.3    85  ARG85       0.0321
     35  CG        22.6900   11.7000    2.4980 C.3    85  ARG85       0.0489
     36  CD        23.4240   11.2430    1.2490 C.3    85  ARG85       0.2205
     37  NE        23.8310    9.8420    1.3290 N.pl3  85  ARG85      -0.0865
     38  CZ        25.0130    9.4250    1.7730 C.cat  85  ARG85       0.5346
     39  NH1       25.9200   10.3010    2.1830 N.pl3  85  ARG85       0.1354
     40  NH2       25.2890    8.1290    1.8050 N.pl3  85  ARG85       0.1354
     41  N         20.4650   12.2200    5.3430 N.am   86  HIS86      -0.1962
     42  CA        19.5960   11.2000    5.9330 C.3    86  HIS86       0.1787
     43  C         18.6640   11.7090    7.0290 C.2    86  HIS86       0.2620
     44  O         19.0860   12.4140    7.9460 O.2    86  HIS86      -0.2715
     45  CB        20.4180   10.0230    6.4640 C.3    86  HIS86       0.0785
     46  CG        21.0090    9.1630    5.3900 C.ar   86  HIS86       0.0821
     47  ND1       22.3630    9.1110    5.1400 N.ar   86  HIS86      -0.2267
     48  CD2       20.4290    8.3190    4.5040 C.ar   86  HIS86       0.1154
     49  CE1       22.5920    8.2730    4.1450 C.ar   86  HIS86       0.1986
     50  NE2       21.4360    7.7790    3.7410 N.ar   86  HIS86      -0.2212
     51  N         17.3930   11.3350    6.9180 N.am   87  HIS87      -0.1973
     52  CA        16.4010   11.6020    7.9500 C.3    87  HIS87       0.1656
     53  C         15.7260   10.3000    8.3600 C.2    87  HIS87       0.2291
     54  O         15.8690    9.2780    7.6870 O.2    87  HIS87      -0.2864
     55  CB        15.3230   12.5580    7.4340 C.3    87  HIS87       0.0771
     56  CG        15.8450   13.8810    6.9730 C.ar   87  HIS87       0.0820
     57  ND1       16.5990   14.7060    7.7790 N.ar   87  HIS87      -0.2267
     58  CD2       15.6990   14.5340    5.7960 C.ar   87  HIS87       0.1154
     59  CE1       16.9090   15.8040    7.1120 C.ar   87  HIS87       0.1986
     60  NE2       16.3730   15.7250    5.9080 N.ar   87  HIS87      -0.2212
     61  N         10.9440   11.8340    6.2230 N.3    90  PHE90      -0.1241
     62  CA        11.1980   12.6590    5.0510 C.3    90  PHE90       0.1605
     63  C         10.0690   12.5130    4.0380 C.2    90  PHE90       0.2264
     64  O          9.3270   11.5300    4.0590 O.2    90  PHE90      -0.2867
     65  CB        12.5470   12.3060    4.4130 C.3    90  PHE90       0.0534
     66  CG        12.5490   10.9980    3.6730 C.ar   90  PHE90      -0.0203
     67  CD1       12.3690   10.9650    2.2980 C.ar   90  PHE90      -0.0042
     68  CD2       12.7380    9.8020    4.3490 C.ar   90  PHE90      -0.0042
     69  CE1       12.3710    9.7640    1.6120 C.ar   90  PHE90      -0.0003
     70  CE2       12.7420    8.5980    3.6680 C.ar   90  PHE90      -0.0003
     71  CZ        12.5590    8.5790    2.2980 C.ar   90  PHE90      -0.0000
     72  N          8.9490   11.9350    0.2250 N.3    92  MET92      -0.1245
     73  CA         9.4030   11.4200   -1.0560 C.3    92  MET92       0.1570
     74  C          8.5110   11.9370   -2.1790 C.2    92  MET92       0.2261
     75  O          7.3430   11.5630   -2.2810 O.2    92  MET92      -0.2867
     76  CB         9.4210    9.8900   -1.0500 C.3    92  MET92       0.0387
     77  CG        10.1340    9.2800   -2.2480 C.3    92  MET92       0.0595
     78  SD        10.1670    7.4770   -2.2300 S.3    92  MET92      -0.1393
     79  CE        11.1150    7.1650   -0.7420 C.3    92  MET92       0.0692
     80  N         22.2490   -1.4670   -6.0850 N.3   167  ASP167     -0.1239
     81  CA        21.8010   -0.1040   -5.8610 C.3   167  ASP167      0.1674
     82  C         20.9270    0.3510   -7.0180 C.2   167  ASP167      0.2266
     83  O         20.2220    1.3540   -6.9210 O.2   167  ASP167     -0.2867
     84  CB        22.9960    0.8320   -5.6940 C.3   167  ASP167      0.1410
     85  CG        23.5250    0.8490   -4.2770 C.2   167  ASP167      0.3668
     86  OD1       22.7120    0.9890   -3.3390 O.co2 167  ASP167     -0.2456
     87  OD2       24.7510    0.7290   -4.0950 O.co2 167  ASP167     -0.2456
     88  N         15.6400   -1.7550   -7.4870 N.3   170  TRP170     -0.1241
     89  CA        14.8160   -1.4160   -6.3460 C.3   170  TRP170      0.1605
     90  C         13.8130   -2.5170   -6.0380 C.2   170  TRP170      0.2264
     91  O         13.0780   -2.9610   -6.9150 O.2   170  TRP170     -0.2867
     92  CB        14.1000   -0.0860   -6.5690 C.3   170  TRP170      0.0550
     93  CG        13.5540    0.4680   -5.3060 C.ar  170  TRP170      0.0003
     94  CD1       14.2160    1.2420   -4.4020 C.ar  170  TRP170      0.0946
     95  CD2       12.2390    0.2710   -4.7810 C.ar  170  TRP170      0.0152
     96  NE1       13.3940    1.5470   -3.3490 N.ar  170  TRP170     -0.2442
     97  CE2       12.1730    0.9620   -3.5560 C.ar  170  TRP170      0.0810
     98  CE3       11.1090   -0.4210   -5.2280 C.ar  170  TRP170      0.0012
     99  CZ2       11.0200    0.9860   -2.7740 C.ar  170  TRP170      0.0191
    100  CZ3        9.9660   -0.3980   -4.4500 C.ar  170  TRP170      0.0001
    101  CH2        9.9310    0.3010   -3.2360 C.ar  170  TRP170      0.0015
    102  N         19.2340    6.2430  -11.2990 N.3   183  GLU183     -0.1245
    103  CA        19.2770    7.2240  -10.2220 C.3   183  GLU183      0.1567
    104  C         20.0900    8.4540  -10.5990 C.2   183  GLU183      0.2260
    105  O         21.1360    8.3510  -11.2390 O.2   183  GLU183     -0.2867
    106  CB        19.8210    6.5850   -8.9420 C.3   183  GLU183      0.0388
    107  CG        19.0810    5.3180   -8.5420 C.3   183  GLU183      0.1160
    108  CD        19.5070    4.7820   -7.1920 C.2   183  GLU183      0.3649
    109  OE1       20.6470    5.0600   -6.7640 O.co2 183  GLU183     -0.2457
    110  OE2       18.6970    4.0740   -6.5560 O.co2 183  GLU183     -0.2457
    111  N         22.5270   11.2850   -3.8640 N.3   209  GLU209     -0.1231
    112  CA        21.4340   10.7400   -4.6600 C.3   209  GLU209      0.1699
    113  C         20.1600   11.5540   -4.4680 C.2   209  GLU209      0.2592
    114  O         19.6220   11.6330   -3.3630 O.2   209  GLU209     -0.2718
    115  CB        21.1810    9.2820   -4.2840 C.3   209  GLU209      0.0402
    116  CG        19.9850    8.6630   -4.9790 C.3   209  GLU209      0.1161
    117  CD        19.7170    7.2500   -4.5160 C.2   209  GLU209      0.3649
    118  OE1       18.5400    6.8350   -4.5220 O.co2 209  GLU209     -0.2457
    119  OE2       20.6850    6.5550   -4.1410 O.co2 209  GLU209     -0.2457
    120  N         19.6770   12.1480   -5.5530 N.am  210  ILE210     -0.1966
    121  CA        18.5190   13.0290   -5.4900 C.3   210  ILE210      0.1727
    122  C         17.2260   12.3150   -5.8740 C.2   210  ILE210      0.2616
    123  O         16.2270   12.3980   -5.1620 O.2   210  ILE210     -0.2715
    124  CB        18.7070   14.2640   -6.4000 C.3   210  ILE210      0.0290
    125  CG1       19.9730   15.0300   -6.0100 C.3   210  ILE210      0.0022
    126  CG2       17.4910   15.1730   -6.3350 C.3   210  ILE210      0.0023
    127  CD1       19.9760   15.5260   -4.5800 C.3   210  ILE210      0.0001
    128  N         17.2580   11.6050   -6.9970 N.am  211  TRP211     -0.1960
    129  CA        16.0470   11.0470   -7.5820 C.3   211  TRP211      0.1771
    130  C         16.2530    9.6040   -8.0270 C.2   211  TRP211      0.2619
    131  O         17.1750    9.3090   -8.7880 O.2   211  TRP211     -0.2715
    132  CB        15.6320   11.8930   -8.7880 C.3   211  TRP211      0.0590
    133  CG        14.1790   11.8110   -9.1400 C.ar  211  TRP211      0.0006
    134  CD1       13.3100   10.8080   -8.8270 C.ar  211  TRP211      0.0946
    135  CD2       13.4320   12.7650   -9.9040 C.ar  211  TRP211      0.0152
    136  NE1       12.0630   11.0860   -9.3340 N.ar  211  TRP211     -0.2442
    137  CE2       12.1120   12.2810  -10.0010 C.ar  211  TRP211      0.0810
    138  CE3       13.7490   13.9860  -10.5080 C.ar  211  TRP211      0.0012
    139  CZ2       11.1110   12.9730  -10.6780 C.ar  211  TRP211      0.0191
    140  CZ3       12.7530   14.6730  -11.1790 C.ar  211  TRP211      0.0001
    141  CH2       11.4500   14.1640  -11.2600 C.ar  211  TRP211      0.0015
    142  N         15.3890    8.7110   -7.5550 N.am  212  ASN212     -0.1972
    143  CA        15.4080    7.3190   -7.9940 C.3   212  ASN212      0.1688
    144  C         14.2210    7.0050   -8.9000 C.2   212  ASN212      0.2292
    145  O         13.0680    7.0940   -8.4800 O.2   212  ASN212     -0.2864
    146  CB        15.4240    6.3690   -6.7930 C.3   212  ASN212      0.1181
    147  CG        15.5460    4.9090   -7.2020 C.2   212  ASN212      0.2629
    148  OD1       15.7820    4.5940   -8.3690 O.2   212  ASN212     -0.2716
    149  ND2       15.3880    4.0100   -6.2380 N.am  212  ASN212     -0.0877
    150  N         10.9970    8.3600   -6.9950 N.3   237  GLY237     -0.1225
    151  CA        11.0450    8.9320   -5.6610 C.3   237  GLY237      0.1811
    152  C         12.2130    9.8810   -5.5100 C.2   237  GLY237      0.2280
    153  O         13.3670    9.4990   -5.7040 O.2   237  GLY237     -0.2866
    154  N         13.8320   12.7150   -2.7720 N.3   239  GLY239     -0.1225
    155  CA        13.8170   13.3240   -1.4490 C.3   239  GLY239      0.1811
    156  C         13.6150   14.8230   -1.5420 C.2   239  GLY239      0.2280
    157  O         14.4410   15.5330   -2.1130 O.2   239  GLY239     -0.2866
    158  N         13.7840   17.0340    0.7810 N.3   241  GLU241     -0.1231
    159  CA        14.8140   17.7300    1.5420 C.3   241  GLU241      0.1699
    160  C         16.1240   17.8180    0.7620 C.2   241  GLU241      0.2592
    161  O         16.8190   18.8330    0.8170 O.2   241  GLU241     -0.2718
    162  CB        15.0430   17.0430    2.8920 C.3   241  GLU241      0.0402
    163  CG        13.8170   17.0040    3.8010 C.3   241  GLU241      0.1161
    164  CD        12.8310   15.9080    3.4260 C.2   241  GLU241      0.3649
    165  OE1       13.1630   15.0640    2.5660 O.co2 241  GLU241     -0.2457
    166  OE2       11.7200   15.8890    3.9970 O.co2 241  GLU241     -0.2457
    167  N         16.4500   16.7550    0.0330 N.am  242  ARG242     -0.1980
    168  CA        17.6870   16.7100   -0.7410 C.3   242  ARG242      0.1597
    169  C         17.6550   17.6500   -1.9450 C.2   242  ARG242      0.2287
    170  O         18.6400   18.3320   -2.2300 O.2   242  ARG242     -0.2864
    171  CB        18.0010   15.2800   -1.1840 C.3   242  ARG242      0.0334
    172  CG        18.3370   14.3430   -0.0360 C.3   242  ARG242      0.0492
    173  CD        18.7980   12.9910   -0.5430 C.3   242  ARG242      0.2205
    174  NE        18.9800   12.0340    0.5440 N.pl3 242  ARG242     -0.0865
    175  CZ        19.5330   10.8340    0.3990 C.cat 242  ARG242      0.5346
    176  NH1       19.9660   10.4390   -0.7910 N.pl3 242  ARG242      0.1354
    177  NH2       19.6590   10.0300    1.4450 N.pl3 242  ARG242      0.1354
    178  N         20.8200   18.7890    4.1560 N.3   253  ASN253     -0.1240
    179  CA        19.3740   18.8800    4.3110 C.3   253  ASN253      0.1653
    180  C         18.9970   19.7590    5.4960 C.2   253  ASN253      0.2266
    181  O         17.9480   20.4020    5.4980 O.2   253  ASN253     -0.2867
    182  CB        18.7680   17.4890    4.5080 C.3   253  ASN253      0.1155
    183  CG        18.8110   16.6460    3.2510 C.2   253  ASN253      0.2627
    184  OD1       19.3860   17.0440    2.2390 O.2   253  ASN253     -0.2716
    185  ND2       18.1990   15.4690    3.3110 N.am  253  ASN253     -0.0877
@<TRIPOS>BOND
     1   102   103    1
     2   141   140   ar
     3   141   139   ar
     4   105   104    2
     5   140   138   ar
     6   139   137   ar
     7   104   103    1
     8   138   135   ar
     9   103   106    1
    10   137   135   ar
    11   137   136   ar
    12   135   133   ar
    13   136   134   ar
    14   133   134   ar
    15   133   132    1
    16   106   107    1
    17   144   145    2
    18   144   143    1
    19   132   129    1
    20   131   130    2
    21   107   108    1
    22   148   147    2
    23   130   129    1
    24   130   142   am
    25   143   142    1
    26   143   146    1
    27   129   128    1
    28    88    89    1
    29   147   146    1
    30   147   149   am
    31   108   109   ar
    32   108   110   ar
    33    82    83    2
    34    82    81    1
    35   128   122   am
    36   150   151    1
    37    91    90    2
    38    92    89    1
    39    92    93    1
    40   124   126    1
    41   124   125    1
    42   124   121    1
    43    89    90    1
    44    80    81    1
    45   125   127    1
    46   122   121    1
    47   122   123    2
    48    81    84    1
    49   153   152    2
    50    84    85    1
    51   151   152    1
    52   120   121    1
    53   120   113   am
    54    93    95   ar
    55    93    94   ar
    56    98    95   ar
    57    98   100   ar
    58   116   117    1
    59   116   115    1
    60    95    97   ar
    61   112   113    1
    62   112   115    1
    63   112   111    1
    64   118   117   ar
    65   117   119   ar
    66   113   114    2
    67   100   101   ar
    68    94    96   ar
    69    85    87   ar
    70    85    86   ar
    71    97    96   ar
    72    97    99   ar
    73   101    99   ar
    74   154   155    1
    75    75    74    2
    76    77    78    1
    77    77    76    1
    78   170   169    2
    79    78    79    1
    80    74    73    1
    81   157   156    2
    82   169   168    1
    83   156   155    1
    84   171   168    1
    85   171   172    1
    86    73    76    1
    87    73    72    1
    88   176   175    1
    89   168   167    1
    90   173   172    1
    91   173   174    1
    92   167   160   am
    93   175   174    2
    94   175   177    1
    95    11     9    1
    96   160   161    2
    97   160   159    1
    98   158   159    1
    99    21    20   ar
   100    21    19   ar
   101    20    18   ar
   102    36    37    1
   103    36    35    1
   104    37    38    2
   105    10     9    1
   106   159   162    1
   107     9     8    2
   108    69    71   ar
   109    69    67   ar
   110    38    40    1
   111    38    39    1
   112    19    17   ar
   113   184   183    2
   114    34    35    1
   115    34    31    1
   116    71    70   ar
   117    67    66   ar
   118    18    17   ar
   119   165   164   ar
   120     8     7    1
   121   162   163    1
   122    17    16    1
   123   183   185   am
   124   183   182    1
   125   164   163    1
   126   164   166   ar
   127    33    32    2
   128    31    32    1
   129    31    30    1
   130    70    68   ar
   131    66    68   ar
   132    66    65    1
   133    50    49   ar
   134    50    48   ar
   135     7     6    1
   136    63    64    2
   137    63    62    1
   138    32    41   am
   139    49    47   ar
   140   178   179    1
   141   179   182    1
   142   179   180    1
   143    65    62    1
   144    48    46   ar
   145    16    13    1
   146    62    61    1
   147    47    46   ar
   148     6     5    1
   149    12    13    1
   150    41    42    1
   151    29    27   ar
   152    46    45    1
   153    13    14    1
   154   180   181    2
   155    58    60   ar
   156    58    56   ar
   157    28    27   ar
   158    60    59   ar
   159    42    45    1
   160    42    43    1
   161    27    26    1
   162     5     2    1
   163    14    15    2
   164    51    43   am
   165    51    52    1
   166    56    55    1
   167    56    57   ar
   168    43    44    2
   169    59    57   ar
   170    55    52    1
   171    26    23    1
   172     2     1    1
   173     2     3    1
   174    54    53    2
   175    52    53    1
   176    23    22    1
   177    23    24    1
   178     3     4    2
   179    25    24    2
