@<TRIPOS>MOLECULE
tmp/3hxyA01.pdb
 96 89 0 0 0
SMALL
GASTEIGER

@<TRIPOS>ATOM
      1  N         11.8690    5.9230    7.8470 N.3    69  ARG69      -0.1245
      2  CA        12.8110    4.8480    7.6840 C.3    69  ARG69       0.1563
      3  C         13.6610    4.7220    8.9420 C.2    69  ARG69       0.2260
      4  O         14.7890    5.1540    8.9890 O.2    69  ARG69      -0.2867
      5  CB        13.6840    5.0790    6.4500 C.3    69  ARG69       0.0307
      6  CG        13.0250    4.7550    5.1490 C.3    69  ARG69       0.0489
      7  CD        13.9150    5.0600    3.9600 C.3    69  ARG69       0.2205
      8  NE        13.2180    4.7750    2.7290 N.pl3  69  ARG69      -0.0865
      9  CZ        13.7890    4.5320    1.5680 C.cat  69  ARG69       0.5346
     10  NH1       15.0890    4.5080    1.4470 N.pl3  69  ARG69       0.1354
     11  NH2       13.0350    4.2940    0.5360 N.pl3  69  ARG69       0.1354
     12  N         17.6930    4.2030    8.9230 N.3    76  ASP76      -0.1239
     13  CA        18.5440    5.3070    8.6280 C.3    76  ASP76       0.1674
     14  C         18.7500    6.1050    9.8870 C.2    76  ASP76       0.2266
     15  O         19.3090    7.1640    9.8620 O.2    76  ASP76      -0.2867
     16  CB        17.9120    6.1430    7.5150 C.3    76  ASP76       0.1410
     17  CG        18.1630    5.5580    6.1340 C.2    76  ASP76       0.3668
     18  OD1       19.3220    5.2790    5.8400 O.co2  76  ASP76      -0.2456
     19  OD2       17.2140    5.3850    5.3550 O.co2  76  ASP76      -0.2456
     20  N         22.3610   14.0200    4.4070 N.3    85  ARG85      -0.1231
     21  CA        21.2940   13.6000    3.5010 C.3    85  ARG85       0.1694
     22  C         20.2640   12.6400    4.0980 C.2    85  ARG85       0.2592
     23  O         19.2930   12.2830    3.4310 O.2    85  ARG85      -0.2718
     24  CB        21.9050   12.9790    2.2410 C.3    85  ARG85       0.0321
     25  CG        22.6900   11.7000    2.4980 C.3    85  ARG85       0.0489
     26  CD        23.4240   11.2430    1.2490 C.3    85  ARG85       0.2205
     27  NE        23.8310    9.8420    1.3290 N.pl3  85  ARG85      -0.0865
     28  CZ        25.0130    9.4250    1.7730 C.cat  85  ARG85       0.5346
     29  NH1       25.9200   10.3010    2.1830 N.pl3  85  ARG85       0.1354
     30  NH2       25.2890    8.1290    1.8050 N.pl3  85  ARG85       0.1354
     31  N         20.4650   12.2200    5.3430 N.am   86  HIS86      -0.1976
     32  CA        19.5960   11.2000    5.9330 C.3    86  HIS86       0.1656
     33  C         18.6640   11.7090    7.0290 C.2    86  HIS86       0.2291
     34  O         19.0860   12.4140    7.9460 O.2    86  HIS86      -0.2864
     35  CB        20.4180   10.0230    6.4640 C.3    86  HIS86       0.0771
     36  CG        21.0090    9.1630    5.3900 C.ar   86  HIS86       0.0820
     37  ND1       22.3630    9.1110    5.1400 N.ar   86  HIS86      -0.2267
     38  CD2       20.4290    8.3190    4.5040 C.ar   86  HIS86       0.1154
     39  CE1       22.5920    8.2730    4.1450 C.ar   86  HIS86       0.1986
     40  NE2       21.4360    7.7790    3.7410 N.ar   86  HIS86      -0.2212
     41  N         22.2490   -1.4670   -6.0850 N.3   167  ASP167     -0.1239
     42  CA        21.8010   -0.1040   -5.8610 C.3   167  ASP167      0.1674
     43  C         20.9270    0.3510   -7.0180 C.2   167  ASP167      0.2266
     44  O         20.2220    1.3540   -6.9210 O.2   167  ASP167     -0.2867
     45  CB        22.9960    0.8320   -5.6940 C.3   167  ASP167      0.1410
     46  CG        23.5250    0.8490   -4.2770 C.2   167  ASP167      0.3668
     47  OD1       22.7120    0.9890   -3.3390 O.co2 167  ASP167     -0.2456
     48  OD2       24.7510    0.7290   -4.0950 O.co2 167  ASP167     -0.2456
     49  N         19.2340    6.2430  -11.2990 N.3   183  GLU183     -0.1245
     50  CA        19.2770    7.2240  -10.2220 C.3   183  GLU183      0.1567
     51  C         20.0900    8.4540  -10.5990 C.2   183  GLU183      0.2260
     52  O         21.1360    8.3510  -11.2390 O.2   183  GLU183     -0.2867
     53  CB        19.8210    6.5850   -8.9420 C.3   183  GLU183      0.0388
     54  CG        19.0810    5.3180   -8.5420 C.3   183  GLU183      0.1160
     55  CD        19.5070    4.7820   -7.1920 C.2   183  GLU183      0.3649
     56  OE1       20.6470    5.0600   -6.7640 O.co2 183  GLU183     -0.2457
     57  OE2       18.6970    4.0740   -6.5560 O.co2 183  GLU183     -0.2457
     58  N         22.2230   11.8080   -9.4820 N.3   185  PHE185     -0.1241
     59  CA        23.0470   12.3350   -8.4010 C.3   185  PHE185      0.1605
     60  C         23.4440   13.7800   -8.6730 C.2   185  PHE185      0.2264
     61  O         23.5440   14.1990   -9.8260 O.2   185  PHE185     -0.2867
     62  CB        24.3040   11.4780   -8.2200 C.3   185  PHE185      0.0534
     63  CG        24.0280   10.0960   -7.6980 C.ar  185  PHE185     -0.0203
     64  CD1       23.4440    9.1350   -8.5090 C.ar  185  PHE185     -0.0042
     65  CD2       24.3600    9.7550   -6.3970 C.ar  185  PHE185     -0.0042
     66  CE1       23.1900    7.8630   -8.0290 C.ar  185  PHE185     -0.0003
     67  CE2       24.1090    8.4840   -5.9110 C.ar  185  PHE185     -0.0003
     68  CZ        23.5220    7.5370   -6.7290 C.ar  185  PHE185     -0.0000
     69  N         29.8630    6.7730   -0.4530 N.3   203  ASP203     -0.1239
     70  CA        29.0640    7.1070    0.7280 C.3   203  ASP203      0.1674
     71  C         29.2470    8.5470    1.1970 C.2   203  ASP203      0.2266
     72  O         28.5250    9.0110    2.0820 O.2   203  ASP203     -0.2867
     73  CB        29.3710    6.1510    1.8840 C.3   203  ASP203      0.1410
     74  CG        28.3230    5.0670    2.0390 C.2   203  ASP203      0.3668
     75  OD1       27.8780    4.5100    1.0140 O.co2 203  ASP203     -0.2456
     76  OD2       27.9450    4.7700    3.1930 O.co2 203  ASP203     -0.2456
     77  N         22.5270   11.2850   -3.8640 N.3   209  GLU209     -0.1245
     78  CA        21.4340   10.7400   -4.6600 C.3   209  GLU209      0.1567
     79  C         20.1600   11.5540   -4.4680 C.2   209  GLU209      0.2260
     80  O         19.6220   11.6330   -3.3630 O.2   209  GLU209     -0.2867
     81  CB        21.1810    9.2820   -4.2840 C.3   209  GLU209      0.0388
     82  CG        19.9850    8.6630   -4.9790 C.3   209  GLU209      0.1160
     83  CD        19.7170    7.2500   -4.5160 C.2   209  GLU209      0.3649
     84  OE1       18.5400    6.8350   -4.5220 O.co2 209  GLU209     -0.2457
     85  OE2       20.6850    6.5550   -4.1410 O.co2 209  GLU209     -0.2457
     86  N         16.4500   16.7550    0.0330 N.3   242  ARG242     -0.1245
     87  CA        17.6870   16.7100   -0.7410 C.3   242  ARG242      0.1563
     88  C         17.6550   17.6500   -1.9450 C.2   242  ARG242      0.2260
     89  O         18.6400   18.3320   -2.2300 O.2   242  ARG242     -0.2867
     90  CB        18.0010   15.2800   -1.1840 C.3   242  ARG242      0.0307
     91  CG        18.3370   14.3430   -0.0360 C.3   242  ARG242      0.0489
     92  CD        18.7980   12.9910   -0.5430 C.3   242  ARG242      0.2205
     93  NE        18.9800   12.0340    0.5440 N.pl3 242  ARG242     -0.0865
     94  CZ        19.5330   10.8340    0.3990 C.cat 242  ARG242      0.5346
     95  NH1       19.9660   10.4390   -0.7910 N.pl3 242  ARG242      0.1354
     96  NH2       19.6590   10.0300    1.4450 N.pl3 242  ARG242      0.1354
@<TRIPOS>BOND
     1    49    50    1
     2    52    51    2
     3    51    50    1
     4    50    53    1
     5    61    60    2
     6    58    59    1
     7    53    54    1
     8    60    59    1
     9    54    55    1
    10    64    66   ar
    11    64    63   ar
    12    59    62    1
    13    62    63    1
    14    66    68   ar
    15    63    65   ar
    16    55    56   ar
    17    55    57   ar
    18    43    44    2
    19    43    42    1
    20    68    67   ar
    21    65    67   ar
    22    41    42    1
    23    42    45    1
    24    45    46    1
    25    82    83    1
    26    82    81    1
    27    78    79    1
    28    78    81    1
    29    78    77    1
    30    84    83   ar
    31    83    85   ar
    32    79    80    2
    33    46    48   ar
    34    46    47   ar
    35    89    88    2
    36    88    87    1
    37    90    87    1
    38    90    91    1
    39    95    94    1
    40    87    86    1
    41    92    91    1
    42    92    93    1
    43    69    70    1
    44    94    93    2
    45    94    96    1
    46    11     9    1
    47    70    71    1
    48    70    73    1
    49    75    74   ar
    50    71    72    2
    51    26    27    1
    52    26    25    1
    53    27    28    2
    54    10     9    1
    55     9     8    2
    56    28    30    1
    57    28    29    1
    58    73    74    1
    59    74    76   ar
    60    24    25    1
    61    24    21    1
    62     8     7    1
    63    23    22    2
    64    21    22    1
    65    21    20    1
    66    40    39   ar
    67    40    38   ar
    68     7     6    1
    69    22    31   am
    70    39    37   ar
    71    38    36   ar
    72    37    36   ar
    73     6     5    1
    74    31    32    1
    75    19    17   ar
    76    36    35    1
    77    18    17   ar
    78    32    35    1
    79    32    33    1
    80    17    16    1
    81     5     2    1
    82    33    34    2
    83    16    13    1
    84     2     1    1
    85     2     3    1
    86    13    12    1
    87    13    14    1
    88     3     4    2
    89    15    14    2
