@<TRIPOS>MOLECULE
tmp/3hxzB02.pdb
 76 70 0 0 0
SMALL
GASTEIGER

@<TRIPOS>ATOM
      1  N         42.8790   72.1340  -46.3320 N.3    24  ALA24      -0.1231
      2  CA        43.6830   71.0930  -46.9600 C.3    24  ALA24       0.1694
      3  C         42.9880   69.7340  -46.9010 C.2    24  ALA24       0.2593
      4  O         42.2530   69.4330  -45.9540 O.2    24  ALA24      -0.2718
      5  CB        45.0660   71.0160  -46.3060 C.3    24  ALA24       0.0304
      6  N         43.2090   68.9280  -47.9330 N.am   25  SER25      -0.1938
      7  CA        42.7800   67.5370  -47.9250 C.3    25  SER25       0.2055
      8  C         43.2400   66.8640  -46.6410 C.2    25  SER25       0.2644
      9  O         44.3700   67.0700  -46.1900 O.2    25  SER25      -0.2714
     10  CB        43.3810   66.7930  -49.1190 C.3    25  SER25       0.2130
     11  OG        42.9930   65.4320  -49.1180 O.3    25  SER25      -0.2179
     12  N         42.3630   66.0680  -46.0430 N.am   26  SER26      -0.1935
     13  CA        42.7700   65.2100  -44.9410 C.3    26  SER26       0.2055
     14  C         43.5240   64.0030  -45.4950 C.2    26  SER26       0.2643
     15  O         43.5530   63.7740  -46.7080 O.2    26  SER26      -0.2714
     16  CB        41.5530   64.7320  -44.1470 C.3    26  SER26       0.2130
     17  OG        40.8210   63.7530  -44.8700 O.3    26  SER26      -0.2179
     18  N         44.1280   63.2390  -44.5930 N.am   27  SER27      -0.1949
     19  CA        44.7240   61.9570  -44.9240 C.3    27  SER27       0.1924
     20  C         43.6400   60.9770  -45.3620 C.2    27  SER27       0.2314
     21  O         42.4480   61.2090  -45.1290 O.2    27  SER27      -0.2863
     22  CB        45.4560   61.4040  -43.6970 C.3    27  SER27       0.2116
     23  OG        45.8520   60.0560  -43.8790 O.3    27  SER27      -0.2180
     24  N         41.4160   63.8740  -51.3340 N.3    66  ARG66      -0.1245
     25  CA        41.7580   62.5480  -51.8500 C.3    66  ARG66       0.1563
     26  C         40.9090   61.4750  -51.1690 C.2    66  ARG66       0.2260
     27  O         40.7850   61.4520  -49.9430 O.2    66  ARG66      -0.2867
     28  CB        43.2620   62.2520  -51.7320 C.3    66  ARG66       0.0307
     29  CG        43.8530   62.2070  -50.3200 C.3    66  ARG66       0.0489
     30  CD        45.2830   61.6570  -50.4100 C.3    66  ARG66       0.2205
     31  NE        46.0750   61.8200  -49.1900 N.pl3  66  ARG66      -0.0865
     32  CZ        46.6950   62.9440  -48.8420 C.cat  66  ARG66       0.5346
     33  NH1       47.4070   62.9870  -47.7200 N.pl3  66  ARG66       0.1354
     34  NH2       46.5970   64.0290  -49.6040 N.pl3  66  ARG66       0.1354
     35  N         50.1620   57.7530  -46.5930 N.3   296  ASP296     -0.1239
     36  CA        49.3090   58.1440  -45.4670 C.3   296  ASP296      0.1674
     37  C         49.3860   57.1720  -44.2900 C.2   296  ASP296      0.2266
     38  O         48.6050   57.2730  -43.3410 O.2   296  ASP296     -0.2867
     39  CB        47.8530   58.3070  -45.9210 C.3   296  ASP296      0.1410
     40  CG        47.6180   59.6010  -46.6920 C.2   296  ASP296      0.3668
     41  OD1       48.5160   60.4680  -46.7050 O.co2 296  ASP296     -0.2456
     42  OD2       46.5290   59.7540  -47.2830 O.co2 296  ASP296     -0.2456
     43  N         50.2370   69.7060  -56.7710 N.3   343  SER343     -0.1217
     44  CA        50.2500   69.9740  -55.3360 C.3   343  SER343      0.1889
     45  C         49.4980   68.9070  -54.5330 C.2   343  SER343      0.2288
     46  O         49.7400   68.7390  -53.3390 O.2   343  SER343     -0.2866
     47  CB        49.6640   71.3600  -55.0490 C.3   343  SER343      0.2089
     48  OG        48.3350   71.4570  -55.5350 O.3   343  SER343     -0.2183
     49  N         51.8870   66.2560  -52.8190 N.3   346  GLU346     -0.1231
     50  CA        52.9130   66.6910  -51.8610 C.3   346  GLU346      0.1699
     51  C         53.2970   65.6230  -50.8330 C.2   346  GLU346      0.2592
     52  O         54.4810   65.4000  -50.5750 O.2   346  GLU346     -0.2718
     53  CB        52.4680   67.9590  -51.1250 C.3   346  GLU346      0.0402
     54  CG        52.5330   69.2280  -51.9480 C.3   346  GLU346      0.1161
     55  CD        51.8540   70.4030  -51.2610 C.2   346  GLU346      0.3649
     56  OE1       51.3750   70.2350  -50.1160 O.co2 346  GLU346     -0.2457
     57  OE2       51.7950   71.4950  -51.8680 O.co2 346  GLU346     -0.2457
     58  N         52.2970   64.9720  -50.2400 N.am  347  ASP347     -0.1974
     59  CA        52.5500   63.9760  -49.1970 C.3   347  ASP347      0.1709
     60  C         53.2360   62.7320  -49.7510 C.2   347  ASP347      0.2293
     61  O         54.0110   62.0720  -49.0540 O.2   347  ASP347     -0.2864
     62  CB        51.2570   63.5940  -48.4720 C.3   347  ASP347      0.1436
     63  CG        50.7190   64.7210  -47.6040 C.2   347  ASP347      0.3671
     64  OD1       51.5320   65.4170  -46.9590 O.co2 347  ASP347     -0.2456
     65  OD2       49.4830   64.9050  -47.5630 O.co2 347  ASP347     -0.2456
     66  N         57.0330   63.7830  -50.6430 N.3   350  ARG350     -0.1245
     67  CA        57.7870   63.8360  -49.3970 C.3   350  ARG350      0.1563
     68  C         58.2830   62.4500  -48.9800 C.2   350  ARG350      0.2260
     69  O         59.3710   62.3090  -48.4220 O.2   350  ARG350     -0.2867
     70  CB        56.9130   64.4410  -48.2940 C.3   350  ARG350      0.0307
     71  CG        57.5540   64.4860  -46.9240 C.3   350  ARG350      0.0489
     72  CD        56.7190   65.3060  -45.9510 C.3   350  ARG350      0.2205
     73  NE        55.3060   64.9250  -45.9480 N.pl3 350  ARG350     -0.0865
     74  CZ        54.8080   63.8890  -45.2780 C.cat 350  ARG350      0.5346
     75  NH1       53.5070   63.6320  -45.3260 N.pl3 350  ARG350      0.1354
     76  NH2       55.6070   63.1070  -44.5630 N.pl3 350  ARG350      0.1354
@<TRIPOS>BOND
     1    43    44    1
     2    48    47    1
     3    44    47    1
     4    44    45    1
     5    45    46    2
     6    49    50    1
     7    54    55    1
     8    54    53    1
     9    57    55   ar
    10    50    53    1
    11    50    51    1
    12    25    28    1
    13    25    24    1
    14    25    26    1
    15    28    29    1
    16    55    56   ar
    17    26    27    2
    18    51    52    2
    19    51    58   am
    20    66    67    1
    21    30    29    1
    22    30    31    1
    23    58    59    1
    24    60    59    1
    25    60    61    2
    26    34    32    1
    27    67    68    1
    28    67    70    1
    29    59    62    1
    30    31    32    2
    31    10    11    1
    32    10     7    1
    33    68    69    2
    34    32    33    1
    35    62    63    1
    36    70    71    1
    37     6     7    1
    38     6     3   am
    39     7     8    1
    40    63    65   ar
    41    63    64   ar
    42    42    40   ar
    43     2     3    1
    44     2     1    1
    45     2     5    1
    46    71    72    1
    47     3     4    2
    48    15    14    2
    49    41    40   ar
    50    40    39    1
    51     8     9    2
    52     8    12   am
    53    35    36    1
    54    12    13    1
    55    72    73    1
    56    73    74    2
    57    39    36    1
    58    14    13    1
    59    14    18   am
    60    36    37    1
    61    20    21    2
    62    20    19    1
    63    75    74    1
    64    74    76    1
    65    13    16    1
    66    19    18    1
    67    19    22    1
    68    17    16    1
    69    37    38    2
    70    23    22    1
