@<TRIPOS>MOLECULE
tmp/3hxzD01.pdb
 204 194 0 0 0
SMALL
GASTEIGER

@<TRIPOS>ATOM
      1  N         66.2550   10.3260  -45.6650 N.3    41  ALA41      -0.1231
      2  CA        65.0180   10.9870  -45.2510 C.3    41  ALA41       0.1694
      3  C         63.7850   10.3050  -45.8360 C.2    41  ALA41       0.2593
      4  O         63.8530    9.6730  -46.8900 O.2    41  ALA41      -0.2718
      5  CB        65.0430   12.4580  -45.6510 C.3    41  ALA41       0.0304
      6  N         62.6540   10.4500  -45.1490 N.am   42  GLY42      -0.1942
      7  CA        61.3760    9.9550  -45.6560 C.3    42  GLY42       0.2014
      8  C         61.0080   10.5140  -47.0210 C.2    42  GLY42       0.2638
      9  O         60.3560    9.8400  -47.8160 O.2    42  GLY42      -0.2714
     10  N         61.4410   11.7410  -47.3060 N.am   43  MET43      -0.1976
     11  CA        61.0920   12.3890  -48.5710 C.3    43  MET43       0.1605
     12  C         61.8340   11.8500  -49.8010 C.2    43  MET43       0.2287
     13  O         61.4190   12.1240  -50.9280 O.2    43  MET43      -0.2864
     14  CB        61.2400   13.9200  -48.4800 C.3    43  MET43       0.0413
     15  CG        62.6540   14.4390  -48.1940 C.3    43  MET43       0.0598
     16  SD        63.8360   14.3320  -49.5600 S.3    43  MET43      -0.1393
     17  CE        62.9920   15.2550  -50.8510 C.3    43  MET43       0.0692
     18  N         72.0990    7.6120  -41.8800 N.3    69  ARG69      -0.1245
     19  CA        72.8720    8.8320  -42.0620 C.3    69  ARG69       0.1563
     20  C         74.3120    8.5590  -41.6520 C.2    69  ARG69       0.2260
     21  O         74.7010    8.7830  -40.5060 O.2    69  ARG69      -0.2867
     22  CB        72.2650    9.9970  -41.2700 C.3    69  ARG69       0.0307
     23  CG        70.9580   10.5050  -41.8800 C.3    69  ARG69       0.0489
     24  CD        70.4120   11.7470  -41.1910 C.3    69  ARG69       0.2205
     25  NE        69.2970   12.2900  -41.9690 N.pl3  69  ARG69      -0.0865
     26  CZ        68.7970   13.5130  -41.8340 C.cat  69  ARG69       0.5346
     27  NH1       69.3040   14.3540  -40.9400 N.pl3  69  ARG69       0.1354
     28  NH2       67.7840   13.8990  -42.6020 N.pl3  69  ARG69       0.1354
     29  N         74.1360   14.1420  -45.0200 N.3    74  HIS74      -0.1241
     30  CA        73.7820   13.9780  -43.6130 C.3    74  HIS74       0.1621
     31  C         74.4620   12.7440  -43.0370 C.2    74  HIS74       0.2264
     32  O         74.0700   11.6180  -43.3360 O.2    74  HIS74      -0.2867
     33  CB        72.2640   13.8570  -43.4610 C.3    74  HIS74       0.0745
     34  CG        71.5080   15.0180  -44.0260 C.ar   74  HIS74       0.0817
     35  ND1       71.4090   16.2300  -43.3750 N.ar   74  HIS74      -0.2268
     36  CD2       70.8190   15.1560  -45.1830 C.ar   74  HIS74       0.1154
     37  CE1       70.6920   17.0630  -44.1070 C.ar   74  HIS74       0.1986
     38  NE2       70.3210   16.4360  -45.2090 N.ar   74  HIS74      -0.2212
     39  N         75.9060   11.1150  -39.4130 N.3    76  ASP76      -0.1239
     40  CA        75.9480   11.1810  -37.9530 C.3    76  ASP76       0.1674
     41  C         76.7660   10.0590  -37.3210 C.2    76  ASP76       0.2266
     42  O         76.6920    9.8400  -36.1090 O.2    76  ASP76      -0.2867
     43  CB        74.5250   11.1630  -37.3870 C.3    76  ASP76       0.1410
     44  CG        73.7570   12.4200  -37.7230 C.2    76  ASP76       0.3668
     45  OD1       74.2420   13.5160  -37.3810 O.co2  76  ASP76      -0.2456
     46  OD2       72.6760   12.3130  -38.3340 O.co2  76  ASP76      -0.2456
     47  N         70.9050   10.9310  -28.6480 N.3    85  ARG85      -0.1231
     48  CA        69.9100   11.2150  -29.6850 C.3    85  ARG85       0.1694
     49  C         70.3090   10.8590  -31.1230 C.2    85  ARG85       0.2592
     50  O         69.4610   10.8910  -32.0120 O.2    85  ARG85      -0.2718
     51  CB        69.4980   12.6930  -29.6240 C.3    85  ARG85       0.0321
     52  CG        70.5480   13.6660  -30.1440 C.3    85  ARG85       0.0489
     53  CD        70.0960   15.1060  -29.9330 C.3    85  ARG85       0.2205
     54  NE        70.9740   16.0970  -30.5570 N.pl3  85  ARG85      -0.0865
     55  CZ        72.0030   16.6810  -29.9450 C.cat  85  ARG85       0.5346
     56  NH1       72.3070   16.3650  -28.6940 N.pl3  85  ARG85       0.1354
     57  NH2       72.7360   17.5760  -30.5880 N.pl3  85  ARG85       0.1354
     58  N         71.5840   10.5500  -31.3620 N.am   86  HIS86      -0.1962
     59  CA        72.0640   10.2780  -32.7280 C.3    86  HIS86       0.1787
     60  C         72.2590    8.7890  -33.0230 C.2    86  HIS86       0.2620
     61  O         72.8700    8.0650  -32.2360 O.2    86  HIS86      -0.2715
     62  CB        73.3900   10.9960  -32.9980 C.3    86  HIS86       0.0785
     63  CG        73.2680   12.4800  -33.1390 C.ar   86  HIS86       0.0821
     64  ND1       73.6010   13.3510  -32.1250 N.ar   86  HIS86      -0.2267
     65  CD2       72.8670   13.2480  -34.1790 C.ar   86  HIS86       0.1154
     66  CE1       73.4100   14.5930  -32.5340 C.ar   86  HIS86       0.1986
     67  NE2       72.9640   14.5580  -33.7770 N.ar   86  HIS86      -0.2212
     68  N         71.7550    8.3520  -34.1750 N.am   87  HIS87      -0.1973
     69  CA        71.9560    6.9910  -34.6600 C.3    87  HIS87       0.1656
     70  C         72.4960    7.0310  -36.0870 C.2    87  HIS87       0.2291
     71  O         72.4160    8.0610  -36.7590 O.2    87  HIS87      -0.2864
     72  CB        70.6320    6.2150  -34.6740 C.3    87  HIS87       0.0771
     73  CG        69.9430    6.1460  -33.3460 C.ar   87  HIS87       0.0820
     74  ND1       70.5650    5.6890  -32.2040 N.ar   87  HIS87      -0.2267
     75  CD2       68.6710    6.4440  -32.9890 C.ar   87  HIS87       0.1154
     76  CE1       69.7120    5.7300  -31.1960 C.ar   87  HIS87       0.1986
     77  NE2       68.5540    6.1780  -31.6460 N.ar   87  HIS87      -0.2212
     78  N         67.8590    4.9160  -38.2650 N.3    90  PHE90      -0.1241
     79  CA        66.7040    5.3650  -37.4870 C.3    90  PHE90       0.1605
     80  C         65.4730    5.4690  -38.3840 C.2    90  PHE90       0.2264
     81  O         65.5860    5.4150  -39.6100 O.2    90  PHE90      -0.2867
     82  CB        66.9960    6.7090  -36.7950 C.3    90  PHE90       0.0534
     83  CG        67.2560    7.8400  -37.7510 C.ar   90  PHE90      -0.0203
     84  CD1       66.2600    8.7640  -38.0390 C.ar   90  PHE90      -0.0042
     85  CD2       68.4920    7.9760  -38.3660 C.ar   90  PHE90      -0.0042
     86  CE1       66.4850    9.8000  -38.9290 C.ar   90  PHE90      -0.0003
     87  CE2       68.7290    9.0120  -39.2570 C.ar   90  PHE90      -0.0003
     88  CZ        67.7240    9.9270  -39.5400 C.ar   90  PHE90      -0.0000
     89  N         62.0680    7.6980  -39.6110 N.3    92  MET92      -0.1245
     90  CA        61.3500    8.9650  -39.6550 C.3    92  MET92       0.1570
     91  C         59.8590    8.7090  -39.8140 C.2    92  MET92       0.2261
     92  O         59.4330    8.0220  -40.7440 O.2    92  MET92      -0.2867
     93  CB        61.8250    9.8340  -40.8180 C.3    92  MET92       0.0387
     94  CG        63.2260   10.3940  -40.6620 C.3    92  MET92       0.0595
     95  SD        63.5690   11.6340  -41.9140 S.3    92  MET92      -0.1393
     96  CE        65.3200   11.8930  -41.6140 C.3    92  MET92       0.0692
     97  N         66.1220   23.1780  -44.6740 N.3   170  TRP170     -0.1241
     98  CA        66.4870   21.7800  -44.8830 C.3   170  TRP170      0.1605
     99  C         66.7600   21.4620  -46.3470 C.2   170  TRP170      0.2264
    100  O         65.9610   21.7890  -47.2200 O.2   170  TRP170     -0.2867
    101  CB        65.4240   20.8200  -44.3310 C.3   170  TRP170      0.0550
    102  CG        65.9430   19.4140  -44.2530 C.ar  170  TRP170      0.0003
    103  CD1       66.6690   18.8670  -43.2400 C.ar  170  TRP170      0.0946
    104  CD2       65.8180   18.3950  -45.2530 C.ar  170  TRP170      0.0152
    105  NE1       66.9960   17.5670  -43.5380 N.ar  170  TRP170     -0.2442
    106  CE2       66.4810   17.2520  -44.7680 C.ar  170  TRP170      0.0810
    107  CE3       65.1970   18.3370  -46.5070 C.ar  170  TRP170      0.0012
    108  CZ2       66.5450   16.0610  -45.4910 C.ar  170  TRP170      0.0191
    109  CZ3       65.2610   17.1540  -47.2240 C.ar  170  TRP170      0.0001
    110  CH2       65.9290   16.0330  -46.7130 C.ar  170  TRP170      0.0015
    111  N         60.9080   23.5830  -36.5380 N.3   183  GLU183     -0.1245
    112  CA        61.1840   22.3910  -35.7490 C.3   183  GLU183      0.1567
    113  C         60.5660   22.4550  -34.3640 C.2   183  GLU183      0.2260
    114  O         60.4860   23.5210  -33.7530 O.2   183  GLU183     -0.2867
    115  CB        62.6900   22.1520  -35.6380 C.3   183  GLU183      0.0388
    116  CG        63.4020   22.0960  -36.9720 C.3   183  GLU183      0.1160
    117  CD        64.7360   21.3900  -36.8850 C.2   183  GLU183      0.3649
    118  OE1       65.6500   21.9040  -36.2010 O.co2 183  GLU183     -0.2457
    119  OE2       64.8710   20.3200  -37.5080 O.co2 183  GLU183     -0.2457
    120  N         65.3850   17.8410  -30.4810 N.3   209  GLU209     -0.1231
    121  CA        64.6620   18.0710  -31.7280 C.3   209  GLU209      0.1699
    122  C         63.8370   16.8360  -32.0810 C.2   209  GLU209      0.2592
    123  O         64.3900   15.7950  -32.4430 O.2   209  GLU209     -0.2718
    124  CB        65.6600   18.3750  -32.8440 C.3   209  GLU209      0.0402
    125  CG        65.0400   18.6240  -34.2050 C.3   209  GLU209      0.1161
    126  CD        66.0930   18.8030  -35.2790 C.2   209  GLU209      0.3649
    127  OE1       65.9710   18.1670  -36.3430 O.co2 209  GLU209     -0.2457
    128  OE2       67.0520   19.5720  -35.0530 O.co2 209  GLU209     -0.2457
    129  N         62.5140   16.9440  -31.9790 N.am  210  ILE210     -0.1980
    130  CA        61.6070   15.8140  -32.1870 C.3   210  ILE210      0.1595
    131  C         61.0460   15.7360  -33.6130 C.2   210  ILE210      0.2287
    132  O         60.9910   14.6700  -34.2230 O.2   210  ILE210     -0.2864
    133  CB        60.4130   15.9010  -31.2030 C.3   210  ILE210      0.0276
    134  CG1       60.9040   15.9190  -29.7510 C.3   210  ILE210      0.0022
    135  CG2       59.4330   14.7690  -31.4310 C.3   210  ILE210      0.0022
    136  CD1       61.6050   14.6490  -29.3180 C.3   210  ILE210      0.0001
    137  N         60.7400   17.7950  -37.4670 N.3   212  ASN212     -0.1240
    138  CA        61.0550   18.8440  -38.4340 C.3   212  ASN212      0.1653
    139  C         59.9970   18.9260  -39.5350 C.2   212  ASN212      0.2266
    140  O         59.6530   17.9180  -40.1570 O.2   212  ASN212     -0.2867
    141  CB        62.4440   18.6320  -39.0440 C.3   212  ASN212      0.1155
    142  CG        62.8770   19.7920  -39.9280 C.2   212  ASN212      0.2627
    143  OD1       62.3720   20.9080  -39.7970 O.2   212  ASN212     -0.2716
    144  ND2       63.8160   19.5310  -40.8380 N.am  212  ASN212     -0.0877
    145  N         59.2080   20.7360  -43.0320 N.3   214  VAL214     -0.1245
    146  CA        59.8470   21.4710  -44.1150 C.3   214  VAL214      0.1561
    147  C         58.8270   22.0090  -45.1050 C.2   214  VAL214      0.2260
    148  O         57.9740   21.2720  -45.6060 O.2   214  VAL214     -0.2867
    149  CB        60.8690   20.5910  -44.8750 C.3   214  VAL214      0.0252
    150  CG1       61.5540   21.3900  -45.9840 C.3   214  VAL214      0.0019
    151  CG2       61.8970   20.0170  -43.9070 C.3   214  VAL214      0.0019
    152  N         57.1130   18.6040  -46.3680 N.3   235  ASP235     -0.1239
    153  CA        57.8880   17.4020  -46.0550 C.3   235  ASP235      0.1674
    154  C         58.1860   17.4060  -44.5580 C.2   235  ASP235      0.2266
    155  O         58.9160   18.2700  -44.0770 O.2   235  ASP235     -0.2867
    156  CB        59.2010   17.4000  -46.8590 C.3   235  ASP235      0.1410
    157  CG        60.2870   16.5380  -46.2250 C.2   235  ASP235      0.3668
    158  OD1       59.9700   15.4530  -45.6920 O.co2 235  ASP235     -0.2456
    159  OD2       61.4710   16.9480  -46.2640 O.co2 235  ASP235     -0.2456
    160  N         59.1340   15.1020  -40.7650 N.3   237  ALA237     -0.1231
    161  CA        59.7300   13.9110  -40.1800 C.3   237  ALA237      0.1694
    162  C         59.9280   14.0650  -38.6770 C.2   237  ALA237      0.2592
    163  O         60.5880   15.0030  -38.2210 O.2   237  ALA237     -0.2718
    164  CB        61.0680   13.5990  -40.8570 C.3   237  ALA237      0.0304
    165  N         59.3470   13.1380  -37.9180 N.am  238  MET238     -0.1965
    166  CA        59.5950   13.0310  -36.4900 C.3   238  MET238      0.1736
    167  C         60.4040   11.7620  -36.2140 C.2   238  MET238      0.2617
    168  O         60.0750   10.6840  -36.7160 O.2   238  MET238     -0.2715
    169  CB        58.2760   13.0180  -35.7060 C.3   238  MET238      0.0427
    170  CG        58.4070   12.5810  -34.2410 C.3   238  MET238      0.0599
    171  SD        57.0070   13.1140  -33.2100 S.3   238  MET238     -0.1393
    172  CE        55.6230   12.4220  -34.1180 C.3   238  MET238      0.0692
    173  N         61.4810   11.9010  -35.4430 N.am  239  GLY239     -0.1955
    174  CA        62.3250   10.7550  -35.0940 C.3   239  GLY239      0.1869
    175  C         61.5670    9.7940  -34.2010 C.2   239  GLY239      0.2309
    176  O         61.1590   10.1620  -33.0970 O.2   239  GLY239     -0.2863
    177  N         62.5480    7.0770  -32.5850 N.3   241  GLU241     -0.1231
    178  CA        63.2820    6.7830  -31.3570 C.3   241  GLU241      0.1699
    179  C         63.2010    7.9460  -30.3600 C.2   241  GLU241      0.2592
    180  O         63.0740    7.7320  -29.1540 O.2   241  GLU241     -0.2718
    181  CB        64.7450    6.4470  -31.6780 C.3   241  GLU241      0.0402
    182  CG        64.9400    5.2310  -32.5840 C.3   241  GLU241      0.1161
    183  CD        64.7230    5.5190  -34.0700 C.2   241  GLU241      0.3649
    184  OE1       64.5340    6.6930  -34.4510 O.co2 241  GLU241     -0.2457
    185  OE2       64.7380    4.5550  -34.8650 O.co2 241  GLU241     -0.2457
    186  N         63.2600    9.1710  -30.8710 N.am  242  ARG242     -0.1980
    187  CA        63.2180   10.3610  -30.0160 C.3   242  ARG242      0.1597
    188  C         61.8440   10.5930  -29.3760 C.2   242  ARG242      0.2287
    189  O         61.7560   10.8950  -28.1870 O.2   242  ARG242     -0.2864
    190  CB        63.6830   11.6030  -30.7800 C.3   242  ARG242      0.0334
    191  CG        65.1540   11.5620  -31.1760 C.3   242  ARG242      0.0492
    192  CD        65.5800   12.8250  -31.9130 C.3   242  ARG242      0.2205
    193  NE        66.9490   12.7290  -32.4300 N.pl3 242  ARG242     -0.0865
    194  CZ        67.6340   13.7570  -32.9270 C.cat 242  ARG242      0.5346
    195  NH1       67.0810   14.9640  -32.9780 N.pl3 242  ARG242      0.1354
    196  NH2       68.8700   13.5810  -33.3790 N.pl3 242  ARG242      0.1354
    197  N         67.4760    7.9500  -26.2140 N.3   253  ASN253     -0.1240
    198  CA        66.9480    7.0260  -27.2130 C.3   253  ASN253      0.1653
    199  C         67.2800    5.5880  -26.8390 C.2   253  ASN253      0.2266
    200  O         66.4970    4.6780  -27.0850 O.2   253  ASN253     -0.2867
    201  CB        67.5230    7.3200  -28.6050 C.3   253  ASN253      0.1155
    202  CG        66.9670    8.5880  -29.2180 C.2   253  ASN253      0.2627
    203  OD1       66.2960    9.3740  -28.5520 O.2   253  ASN253     -0.2716
    204  ND2       67.2430    8.7910  -30.5050 N.am  253  ASN253     -0.0877
@<TRIPOS>BOND
     1    13    12    2
     2    17    16    1
     3    12    11    1
     4    16    15    1
     5    11    14    1
     6    11    10    1
     7    14    15    1
     8     9     8    2
     9    10     8   am
    10   109   110   ar
    11   109   107   ar
    12   100    99    2
    13     8     7    1
    14     4     3    2
    15   156   157    1
    16   156   153    1
    17   110   108   ar
    18   107   104   ar
    19   152   153    1
    20    99    98    1
    21   159   157   ar
    22   157   158   ar
    23   153   154    1
    24   150   149    1
    25     3     2    1
    26     3     6   am
    27     1     2    1
    28     7     6    1
    29     5     2    1
    30   148   147    2
    31   108   106   ar
    32   104   106   ar
    33   104   102   ar
    34    38    36   ar
    35    38    37   ar
    36    36    34   ar
    37   147   146    1
    38    29    30    1
    39    98    97    1
    40    98   101    1
    41   149   146    1
    42   149   151    1
    43   106   105   ar
    44   154   155    2
    45   101   102    1
    46   102   103   ar
    47   146   145    1
    48    37    35   ar
    49    34    33    1
    50    34    35   ar
    51    30    33    1
    52    30    31    1
    53   105   103   ar
    54    32    31    2
    55    28    26    1
    56    19    18    1
    57    19    20    1
    58    19    22    1
    59    25    26    2
    60    25    24    1
    61    95    96    1
    62    95    94    1
    63    23    22    1
    64    23    24    1
    65    26    27    1
    66    20    21    2
    67   164   161    1
    68   144   142   am
    69    93    94    1
    70    93    90    1
    71   160   161    1
    72    92    91    2
    73   161   162    1
    74   140   139    2
    75   142   143    2
    76   142   141    1
    77    91    90    1
    78    90    89    1
    79    81    80    2
    80    88    87   ar
    81    88    86   ar
    82   139   138    1
    83    39    40    1
    84    87    85   ar
    85   141   138    1
    86    86    84   ar
    87   162   163    2
    88   162   165   am
    89   138   137    1
    90    80    79    1
    91    85    83   ar
    92    46    44   ar
    93    78    79    1
    94    84    83   ar
    95    40    43    1
    96    40    41    1
    97   165   166    1
    98    83    82    1
    99    44    43    1
   100    44    45   ar
   101   119   117   ar
   102    79    82    1
   103    41    42    2
   104   116   117    1
   105   116   115    1
   106   117   118   ar
   107    71    70    2
   108   168   167    2
   109   111   112    1
   110   166   167    1
   111   166   169    1
   112   127   126   ar
   113   167   173   am
   114    70    69    1
   115   112   115    1
   116   112   113    1
   117   169   170    1
   118   173   174    1
   119   126   128   ar
   120   126   125    1
   121   174   175    1
   122   185   183   ar
   123    72    69    1
   124    72    73    1
   125    69    68    1
   126   184   183   ar
   127   113   114    2
   128   170   171    1
   129   132   131    2
   130   125   124    1
   131   175   176    2
   132    65    67   ar
   133    65    63   ar
   134    68    60   am
   135   172   171    1
   136   183   182    1
   137    67    66   ar
   138   131   130    1
   139   196   194    1
   140    73    75   ar
   141    73    74   ar
   142    63    62    1
   143    63    64   ar
   144    60    59    1
   145    60    61    2
   146    62    59    1
   147    75    77   ar
   148   195   194    1
   149   194   193    2
   150   124   121    1
   151    59    58    1
   152   177   178    1
   153   182   181    1
   154    66    64   ar
   155   123   122    2
   156   193   192    1
   157    74    76   ar
   158   130   129    1
   159   130   133    1
   160   122   129   am
   161   122   121    1
   162    50    49    2
   163   192   191    1
   164   121   120    1
   165   181   178    1
   166    77    76   ar
   167   135   133    1
   168    58    49   am
   169   178   179    1
   170   133   134    1
   171   191   190    1
   172    49    48    1
   173   186   179   am
   174   186   187    1
   175   190   187    1
   176    57    55    1
   177    54    55    2
   178    54    53    1
   179   204   202   am
   180   179   180    2
   181    52    53    1
   182    52    51    1
   183   187   188    1
   184    55    56    1
   185   134   136    1
   186    48    51    1
   187    48    47    1
   188   188   189    2
   189   202   201    1
   190   202   203    2
   191   201   198    1
   192   198   199    1
   193   198   197    1
   194   200   199    2
