@<TRIPOS>MOLECULE
tmp/3hy3A00.pdb
 180 174 0 0 0
SMALL
GASTEIGER

@<TRIPOS>ATOM
      1  N          0.0120   27.9890   -9.1600 N.3    18  LYS18      -0.1245
      2  CA         1.0280   28.0840  -10.2030 C.3    18  LYS18       0.1561
      3  C          1.1000   29.4480  -10.8600 C.2    18  LYS18       0.2260
      4  O          2.1940   29.8960  -11.2240 O.2    18  LYS18      -0.2867
      5  CB         0.8130   27.0310  -11.2940 C.3    18  LYS18       0.0271
      6  CG         1.3630   25.6320  -10.9030 C.3    18  LYS18       0.0035
      7  CD         0.7600   24.5100  -11.7620 C.3    18  LYS18       0.0206
      8  CE         1.7070   23.3200  -11.9300 C.3    18  LYS18       0.1093
      9  NZ         3.1510   23.7350  -11.9900 N.3    18  LYS18      -0.1314
     10  N         14.8310   18.4600   -0.3850 N.3    55  PHE55      -0.1227
     11  CA        14.6880   18.4720   -1.8610 C.3    55  PHE55       0.1736
     12  C         15.5710   19.5120   -2.5500 C.2    55  PHE55       0.2595
     13  O         16.0560   20.4860   -1.9450 O.2    55  PHE55      -0.2718
     14  CB        13.2430   18.7350   -2.1920 C.3    55  PHE55       0.0547
     15  CG        12.7250   20.0200   -1.6010 C.ar   55  PHE55      -0.0202
     16  CD1       12.8120   21.2480   -2.3350 C.ar   55  PHE55      -0.0042
     17  CD2       12.1200   20.0120   -0.3430 C.ar   55  PHE55      -0.0042
     18  CE1       12.2780   22.4530   -1.7900 C.ar   55  PHE55      -0.0003
     19  CE2       11.5600   21.2630    0.1910 C.ar   55  PHE55      -0.0003
     20  CZ        11.7060   22.4440   -0.5150 C.ar   55  PHE55      -0.0000
     21  N         15.8270   19.2590   -3.8390 N.am   56  LEU56      -0.1980
     22  CA        16.6510   20.1410   -4.6400 C.3    56  LEU56       0.1596
     23  C         15.6870   21.0270   -5.4360 C.2    56  LEU56       0.2287
     24  O         14.7920   20.5300   -6.1080 O.2    56  LEU56      -0.2864
     25  CB        17.4650   19.2800   -5.6110 C.3    56  LEU56       0.0297
     26  CG        18.8260   18.7770   -5.1630 C.3    56  LEU56       0.0022
     27  CD1       19.2960   19.0550   -3.7090 C.3    56  LEU56       0.0001
     28  CD2       19.3080   17.4980   -5.7180 C.3    56  LEU56       0.0001
     29  N         13.0800   23.2610   -7.3040 N.3    58  MET58      -0.1245
     30  CA        12.5480   23.6630   -8.6720 C.3    58  MET58       0.1570
     31  C         12.3290   25.1770   -8.7060 C.2    58  MET58       0.2261
     32  O         12.3920   25.8660   -7.6320 O.2    58  MET58      -0.2867
     33  CB        11.2660   22.8740   -9.0050 C.3    58  MET58       0.0387
     34  CG        11.6070   21.3850   -9.3010 C.3    58  MET58       0.0595
     35  SD        10.0510   20.4580   -9.4970 S.3    58  MET58      -0.1393
     36  CE        10.5680   18.6860   -9.4820 C.3    58  MET58       0.0692
     37  N          9.8570   26.7830   -6.2540 N.3    61  GLU61      -0.1245
     38  CA         9.9540   26.3130   -4.8520 C.3    61  GLU61       0.1567
     39  C         10.9200   27.2310   -4.1030 C.2    61  GLU61       0.2260
     40  O         11.8890   27.7280   -4.6770 O.2    61  GLU61      -0.2867
     41  CB        10.4720   24.8410   -4.7890 C.3    61  GLU61       0.0388
     42  CG         9.3340   23.8000   -4.9690 C.3    61  GLU61       0.1160
     43  CD         9.9420   22.4190   -5.2340 C.2    61  GLU61       0.3649
     44  OE1       11.1420   22.3410   -5.4200 O.co2  61  GLU61      -0.2457
     45  OE2        9.2270   21.4170   -5.2920 O.co2  61  GLU61      -0.2457
     46  N         15.7600   13.2830   -2.9380 N.3    81  PRO81      -0.2116
     47  CA        14.8550   12.4520   -3.7170 C.3    81  PRO81       0.1372
     48  C         15.5170   11.8270   -4.8990 C.2    81  PRO81       0.2244
     49  O         16.3010   12.4520   -5.5900 O.2    81  PRO81      -0.2868
     50  CB        13.7440   13.4090   -4.1750 C.3    81  PRO81       0.0268
     51  CG        13.7420   14.5050   -3.0630 C.3    81  PRO81       0.0207
     52  CD        15.1960   14.6490   -2.6950 C.3    81  PRO81       0.0892
     53  N         13.5460    9.8430   -7.9150 N.3    83  TYR83      -0.1241
     54  CA        12.2460    9.4800   -8.3110 C.3    83  TYR83       0.1605
     55  C         12.3430    8.5130   -9.5320 C.2    83  TYR83       0.2264
     56  O         13.1160    8.7550  -10.4310 O.2    83  TYR83      -0.2867
     57  CB        11.4680   10.7490   -8.6910 C.3    83  TYR83       0.0534
     58  CG        10.0120   10.5180   -9.0730 C.ar   83  TYR83      -0.0201
     59  CD1        9.0330   10.1050   -8.1360 C.ar   83  TYR83      -0.0009
     60  CD2        9.6020   10.7080  -10.3970 C.ar   83  TYR83      -0.0009
     61  CE1        7.6560    9.9080   -8.5140 C.ar   83  TYR83       0.0417
     62  CE2        8.2390   10.5310  -10.7590 C.ar   83  TYR83       0.0417
     63  CZ         7.3080   10.1770   -9.8200 C.ar   83  TYR83       0.1957
     64  OH         6.0720   10.0010  -10.2320 O.3    83  TYR83      -0.2866
     65  N         10.2480    7.4670  -12.5030 N.3    85  PHE85      -0.1241
     66  CA         9.0660    7.9790  -13.2000 C.3    85  PHE85       0.1605
     67  C          8.1820    6.8420  -13.6960 C.2    85  PHE85       0.2264
     68  O          7.0000    6.9780  -13.6740 O.2    85  PHE85      -0.2867
     69  CB         9.4500    8.8950  -14.3680 C.3    85  PHE85       0.0534
     70  CG        10.2170   10.1420  -13.9210 C.ar   85  PHE85      -0.0203
     71  CD1        9.5930   11.3620  -13.9140 C.ar   85  PHE85      -0.0042
     72  CD2       11.5440   10.0630  -13.4730 C.ar   85  PHE85      -0.0042
     73  CE1       10.2660   12.5530  -13.5340 C.ar   85  PHE85      -0.0003
     74  CE2       12.2310   11.2260  -13.0380 C.ar   85  PHE85      -0.0003
     75  CZ        11.5700   12.4850  -13.0720 C.ar   85  PHE85      -0.0000
     76  N          9.4050    7.0180   -5.1290 N.3    90  MET90      -0.1301
     77  CA        10.5920    7.8460   -4.7930 C.3    90  MET90       0.1256
     78  C         11.3440    7.0940   -3.6580 C.3    90  MET90       0.2010
     79  O         10.7170    6.3890   -2.7700 O.3    90  MET90      -0.2188
     80  CB        10.0870    9.2160   -4.2800 C.3    90  MET90       0.0333
     81  CG        11.2030   10.2120   -3.9360 C.3    90  MET90       0.0592
     82  SD        10.4610   11.7900   -3.3190 S.3    90  MET90      -0.1393
     83  CE         9.2160   11.1810   -2.2240 C.3    90  MET90       0.0692
     84  N         16.9280   15.1100  -14.2440 N.3   107  THR107     -0.1218
     85  CA        15.7110   14.6010  -14.8290 C.3   107  THR107      0.1862
     86  C         15.0900   15.5440  -15.8740 C.2   107  THR107      0.2287
     87  O         15.5620   16.6300  -16.0820 O.2   107  THR107     -0.2866
     88  CB        14.6530   14.4120  -13.7040 C.3   107  THR107      0.1770
     89  OG1       14.1960   15.7210  -13.2720 O.3   107  THR107     -0.2211
     90  CG2       15.3570   13.6710  -12.5070 C.3   107  THR107      0.0375
     91  N         12.5990   17.2800  -15.2710 N.3   109  TRP109     -0.1241
     92  CA        12.2360   18.4840  -14.5410 C.3   109  TRP109      0.1605
     93  C         13.4810   19.3580  -14.2930 C.2   109  TRP109      0.2264
     94  O         13.4510   20.3230  -13.5450 O.2   109  TRP109     -0.2867
     95  CB        11.5490   18.0370  -13.1990 C.3   109  TRP109      0.0550
     96  CG        10.1520   17.4450  -13.4950 C.ar  109  TRP109      0.0003
     97  CD1        9.8490   16.2190  -14.0730 C.ar  109  TRP109      0.0946
     98  CD2        8.8750   18.1070  -13.2620 C.ar  109  TRP109      0.0152
     99  NE1        8.4540   16.1090  -14.2190 N.ar  109  TRP109     -0.2442
    100  CE2        7.8530   17.2500  -13.7250 C.ar  109  TRP109      0.0810
    101  CE3        8.5060   19.3350  -12.6680 C.ar  109  TRP109      0.0012
    102  CZ2        6.4700   17.5750  -13.5670 C.ar  109  TRP109      0.0191
    103  CZ3        7.1110   19.6720  -12.5550 C.ar  109  TRP109      0.0001
    104  CH2        6.1360   18.8010  -13.0140 C.ar  109  TRP109      0.0015
    105  N         16.0690   18.7640  -12.5550 N.3   111  ILE111     -0.1245
    106  CA        16.5350   18.6390  -11.1610 C.3   111  ILE111      0.1561
    107  C         17.6080   17.4980  -11.1300 C.2   111  ILE111      0.2260
    108  O         17.4290   16.4140  -11.7350 O.2   111  ILE111     -0.2867
    109  CB        15.3040   18.2090  -10.2570 C.3   111  ILE111      0.0252
    110  CG1       14.2820   19.3380  -10.2620 C.3   111  ILE111      0.0019
    111  CG2       15.7430   18.0160   -8.7820 C.3   111  ILE111      0.0019
    112  CD1       14.9760   20.7260   -9.8090 C.3   111  ILE111      0.0001
    113  N         19.5320   14.2720   -9.8490 N.3   113  GLN113     -0.1245
    114  CA        19.3810   13.0580   -9.0040 C.3   113  GLN113      0.1566
    115  C         20.3480   11.9940   -9.5420 C.2   113  GLN113      0.2260
    116  O         20.6480   12.0160  -10.7710 O.2   113  GLN113     -0.2867
    117  CB        17.9260   12.6030   -8.9090 C.3   113  GLN113      0.0367
    118  CG        17.4210   11.8220  -10.1230 C.3   113  GLN113      0.0905
    119  CD        15.9980   11.2390   -9.9990 C.2   113  GLN113      0.2608
    120  OE1       15.0980   11.8150   -9.3690 O.2   113  GLN113     -0.2717
    121  NE2       15.7580   10.1660  -10.7280 N.am  113  GLN113     -0.0878
    122  N          8.4610   19.6360    0.1200 N.3   135  PRO135     -0.2102
    123  CA         8.0440   20.6490   -0.9080 C.3   135  PRO135      0.1504
    124  C          6.5430   20.5000   -1.1990 C.2   135  PRO135      0.2576
    125  O          5.8520   19.5800   -0.7110 O.2   135  PRO135     -0.2718
    126  CB         8.8720   20.2330   -2.1160 C.3   135  PRO135      0.0282
    127  CG         9.0060   18.7540   -1.9800 C.3   135  PRO135      0.0208
    128  CD         8.8590   18.3650   -0.4950 C.3   135  PRO135      0.0893
    129  N          5.9680   21.4510   -1.9370 N.am  136  GLY136     -0.1957
    130  CA         4.5820   21.2510   -2.3710 C.3   136  GLY136      0.1869
    131  C          4.1420   22.5500   -3.0390 C.2   136  GLY136      0.2309
    132  O          4.8190   23.5580   -2.9460 O.2   136  GLY136     -0.2863
    133  N          2.0040   18.0310   -6.2900 N.3   148  ARG148     -0.1231
    134  CA         1.8700   18.2720   -7.7500 C.3   148  ARG148      0.1694
    135  C          0.8590   17.3310   -8.4000 C.2   148  ARG148      0.2593
    136  O          0.4310   17.5500   -9.5950 O.2   148  ARG148     -0.2718
    137  CB         3.2270   18.0880   -8.3880 C.3   148  ARG148      0.0321
    138  CG         4.1240   19.2860   -8.1100 C.3   148  ARG148      0.0489
    139  CD         5.4790   19.0840   -8.7110 C.3   148  ARG148      0.2205
    140  NE         6.4930   19.9500   -8.0760 N.pl3 148  ARG148     -0.0865
    141  CZ         6.6640   21.2490   -8.3930 C.cat 148  ARG148      0.5346
    142  NH1        5.9380   21.8320   -9.3490 N.pl3 148  ARG148      0.1354
    143  NH2        7.5830   21.9780   -7.7510 N.pl3 148  ARG148      0.1354
    144  N          0.4520   16.2950   -7.6750 N.am  149  GLY149     -0.1942
    145  CA        -0.6020   15.4750   -8.1510 C.3   149  GLY149      0.2014
    146  C         -0.4210   13.9900   -7.9310 C.2   149  GLY149      0.2638
    147  O         -1.3740   13.3250   -7.5060 O.2   149  GLY149     -0.2714
    148  N          0.7930   13.4550   -8.1210 N.am  150  LYS150     -0.1977
    149  CA         0.8590   11.9850   -8.0880 C.3   150  LYS150      0.1596
    150  C          1.1410   11.3420   -6.7040 C.2   150  LYS150      0.2287
    151  O          1.1870   10.0840   -6.5690 O.2   150  LYS150     -0.2864
    152  CB         1.7870   11.4540   -9.2200 C.3   150  LYS150      0.0298
    153  CG         1.2610   11.8720  -10.5930 C.3   150  LYS150      0.0038
    154  CD         1.8060   10.9910  -11.6980 C.3   150  LYS150      0.0206
    155  CE         2.5840   11.8410  -12.7030 C.3   150  LYS150      0.1093
    156  NZ         3.8570   12.3250  -12.0920 N.3   150  LYS150     -0.1314
    157  N          3.6730   11.1330   -4.5720 N.3   152  TYR152     -0.1227
    158  CA         4.8950   10.4230   -4.2270 C.3   152  TYR152      0.1736
    159  C          5.3750   10.7140   -2.7930 C.2   152  TYR152      0.2595
    160  O          5.8470    9.8170   -2.1280 O.2   152  TYR152     -0.2718
    161  CB         5.9720   10.6310   -5.2760 C.3   152  TYR152      0.0548
    162  CG         6.0340   12.0240   -5.7410 C.ar  152  TYR152     -0.0200
    163  CD1        6.9880   12.8860   -5.2370 C.ar  152  TYR152     -0.0009
    164  CD2        5.0730   12.5360   -6.6210 C.ar  152  TYR152     -0.0009
    165  CE1        7.0380   14.2640   -5.6470 C.ar  152  TYR152      0.0417
    166  CE2        5.1040   13.9030   -7.0320 C.ar  152  TYR152      0.0417
    167  CZ         6.1030   14.7750   -6.5080 C.ar  152  TYR152      0.1957
    168  OH         6.1950   16.1080   -6.9350 O.3   152  TYR152     -0.2866
    169  N          5.2470   11.9650   -2.3160 N.am  153  TYR153     -0.1976
    170  CA         5.6360   12.2160   -0.9170 C.3   153  TYR153      0.1639
    171  C          4.6750   11.5880    0.0540 C.2   153  TYR153      0.2290
    172  O          5.0860   11.0390    1.1000 O.2   153  TYR153     -0.2864
    173  CB         5.8040   13.7290   -0.6160 C.3   153  TYR153      0.0560
    174  CG         7.2090   14.2530   -0.7920 C.ar  153  TYR153     -0.0198
    175  CD1        7.6430   14.7880   -2.0140 C.ar  153  TYR153     -0.0009
    176  CD2        8.1310   14.1810    0.2740 C.ar  153  TYR153     -0.0009
    177  CE1        8.9170   15.2570   -2.2090 C.ar  153  TYR153      0.0417
    178  CE2        9.4300   14.7020    0.1080 C.ar  153  TYR153      0.0417
    179  CZ         9.8310   15.1820   -1.1300 C.ar  153  TYR153      0.1957
    180  OH        11.0650   15.6700   -1.2350 O.3   153  TYR153     -0.2866
@<TRIPOS>BOND
     1    87    86    2
     2    86    85    1
     3    91    92    1
     4    85    84    1
     5    85    88    1
     6    92    93    1
     7    92    95    1
     8    69    70    1
     9    69    66    1
    10    93    94    2
    11    99    97   ar
    12    99   100   ar
    13    97    96   ar
    14    70    71   ar
    15    70    72   ar
    16    71    73   ar
    17   100   102   ar
    18   100    98   ar
    19    88    89    1
    20    88    90    1
    21    67    68    2
    22    67    66    1
    23   102   104   ar
    24    73    75   ar
    25    96    98   ar
    26    96    95    1
    27    72    74   ar
    28    98   101   ar
    29    66    65    1
    30    75    74   ar
    31   104   103   ar
    32   155   156    1
    33   155   154    1
    34   101   103   ar
    35   105   106    1
    36     9     8    1
    37     8     7    1
    38     7     6    1
    39   108   107    2
    40   154   153    1
    41     5     6    1
    42     5     2    1
    43     4     3    2
    44   106   107    1
    45   106   109    1
    46     3     2    1
    47   116   115    2
    48    62    60   ar
    49    62    63   ar
    50   121   119   am
    51   153   152    1
    52    56    55    2
    53    60    58   ar
    54   110   109    1
    55   110   112    1
    56   109   111    1
    57    64    63    1
    58     2     1    1
    59   118   119    1
    60   118   117    1
    61   119   120    2
    62   113   114    1
    63    63    61   ar
    64   136   135    2
    65   115   114    1
    66    55    54    1
    67    35    36    1
    68    35    34    1
    69   142   141    1
    70    34    33    1
    71   152   149    1
    72    58    57    1
    73    58    59   ar
    74    33    30    1
    75   114   117    1
    76   139   138    1
    77   139   140    1
    78    31    30    1
    79    31    32    2
    80    57    54    1
    81    30    29    1
    82    61    59   ar
    83   135   134    1
    84   135   144   am
    85   141   140    2
    86   141   143    1
    87   137   138    1
    88   137   134    1
    89    54    53    1
    90   145   146    1
    91   145   144    1
    92   148   149    1
    93   148   146   am
    94   149   150    1
    95   146   147    2
    96   134   133    1
    97   166   164   ar
    98   166   167   ar
    99   168   167    1
   100   150   151    2
   101   164   162   ar
   102   167   165   ar
   103    37    38    1
   104    24    23    2
   105   162   161    1
   106   162   163   ar
   107    28    26    1
   108   165   163   ar
   109    25    26    1
   110    25    22    1
   111    49    48    2
   112    23    22    1
   113    44    43   ar
   114    45    43   ar
   115   161   158    1
   116    43    42    1
   117    26    27    1
   118    76    77    1
   119    42    41    1
   120    48    47    1
   121    38    41    1
   122    38    39    1
   123    77    80    1
   124    77    78    1
   125    40    39    2
   126    22    21    1
   127   157   158    1
   128    80    81    1
   129   158   159    1
   130    50    47    1
   131    50    51    1
   132    81    82    1
   133    21    12   am
   134    47    46    1
   135    78    79    1
   136    82    83    1
   137    51    52    1
   138   131   132    2
   139   131   130    1
   140    46    52    1
   141   159   169   am
   142   159   160    2
   143    12    13    2
   144    12    11    1
   145   130   129    1
   146    16    18   ar
   147    16    15   ar
   148   169   170    1
   149   177   175   ar
   150   177   179   ar
   151    14    11    1
   152    14    15    1
   153   126   127    1
   154   126   123    1
   155   175   174   ar
   156   127   128    1
   157   129   124   am
   158    11    10    1
   159    18    20   ar
   160    15    17   ar
   161   180   179    1
   162   124   123    1
   163   124   125    2
   164   179   178   ar
   165   170   173    1
   166   170   171    1
   167   123   122    1
   168   174   173    1
   169   174   176   ar
   170    20    19   ar
   171   128   122    1
   172    17    19   ar
   173   171   172    2
   174   178   176   ar
