@<TRIPOS>MOLECULE
tmp/3hy4A00.pdb
 187 183 0 0 0
SMALL
GASTEIGER

@<TRIPOS>ATOM
      1  N        -15.0310   18.5320    0.6290 N.3    54  PHE54      -0.1227
      2  CA       -14.8170   18.5320    2.0740 C.3    54  PHE54       0.1736
      3  C        -15.6360   19.5970    2.7780 C.2    54  PHE54       0.2595
      4  O        -16.0960   20.5530    2.1550 O.2    54  PHE54      -0.2718
      5  CB       -13.3360   18.7370    2.4010 C.3    54  PHE54       0.0547
      6  CG       -12.7670   20.0160    1.8580 C.ar   54  PHE54      -0.0202
      7  CD1      -12.7860   21.1750    2.6130 C.ar   54  PHE54      -0.0042
      8  CD2      -12.2120   20.0600    0.5910 C.ar   54  PHE54      -0.0042
      9  CE1      -12.2640   22.3490    2.1130 C.ar   54  PHE54      -0.0003
     10  CE2      -11.6860   21.2330    0.0890 C.ar   54  PHE54      -0.0003
     11  CZ       -11.7140   22.3770    0.8490 C.ar   54  PHE54      -0.0000
     12  N        -15.8050   19.4200    4.0850 N.am   55  LEU55      -0.1980
     13  CA       -16.5130   20.3870    4.9110 C.3    55  LEU55       0.1596
     14  C        -15.5090   21.2860    5.6250 C.2    55  LEU55       0.2287
     15  O        -14.7130   20.8300    6.4440 O.2    55  LEU55      -0.2864
     16  CB       -17.4190   19.6750    5.9090 C.3    55  LEU55       0.0297
     17  CG       -18.4270   18.7020    5.2930 C.3    55  LEU55       0.0022
     18  CD1      -19.2300   18.0140    6.3790 C.3    55  LEU55       0.0001
     19  CD2      -19.3470   19.4220    4.3170 C.3    55  LEU55       0.0001
     20  N        -13.0680   23.6500    7.5680 N.3    57  MET57      -0.1245
     21  CA       -12.6570   24.1410    8.8690 C.3    57  MET57       0.1570
     22  C        -12.2970   25.6010    8.6850 C.2    57  MET57       0.2261
     23  O        -12.2300   26.0880    7.5600 O.2    57  MET57      -0.2867
     24  CB       -11.4400   23.3780    9.3710 C.3    57  MET57       0.0387
     25  CG       -11.5730   21.8790    9.2800 C.3    57  MET57       0.0595
     26  SD       -10.1890   21.0730   10.0840 S.3    57  MET57      -0.1393
     27  CE       -10.4020   19.3840    9.5320 C.3    57  MET57       0.0692
     28  N         -9.6520   27.0090    6.2140 N.3    60  GLU60      -0.1245
     29  CA        -9.8820   26.4370    4.8950 C.3    60  GLU60       0.1567
     30  C        -10.9530   27.1890    4.1220 C.2    60  GLU60       0.2260
     31  O        -11.9510   27.6300    4.6900 O.2    60  GLU60      -0.2867
     32  CB       -10.3240   24.9880    5.0210 C.3    60  GLU60       0.0388
     33  CG        -9.2320   24.0050    5.3280 C.3    60  GLU60       0.1160
     34  CD        -9.7990   22.6230    5.4590 C.2    60  GLU60       0.3649
     35  OE1      -11.0250   22.5380    5.6680 O.co2  60  GLU60      -0.2457
     36  OE2       -9.0420   21.6360    5.3420 O.co2  60  GLU60      -0.2457
     37  N        -15.8030   13.2350    2.8650 N.3    80  PRO80      -0.2116
     38  CA       -14.8750   12.3240    3.5370 C.3    80  PRO80       0.1372
     39  C        -15.4490   11.7360    4.8170 C.2    80  PRO80       0.2244
     40  O        -16.2280   12.3850    5.5110 O.2    80  PRO80      -0.2868
     41  CB       -13.6890   13.2280    3.8810 C.3    80  PRO80       0.0268
     42  CG       -13.7720   14.3520    2.9260 C.3    80  PRO80       0.0207
     43  CD       -15.2380   14.5860    2.7220 C.3    80  PRO80       0.0892
     44  N        -13.2740    9.9060    7.6940 N.3    82  TYR82      -0.1241
     45  CA       -11.9700    9.3990    8.1080 C.3    82  TYR82       0.1605
     46  C        -12.0220    8.6450    9.4350 C.2    82  TYR82       0.2264
     47  O        -12.9340    8.8370   10.2370 O.2    82  TYR82      -0.2867
     48  CB       -10.9420   10.5340    8.1770 C.3    82  TYR82       0.0534
     49  CG       -11.1340   11.4940    9.3330 C.ar   82  TYR82      -0.0201
     50  CD1      -11.9980   12.5780    9.2280 C.ar   82  TYR82      -0.0009
     51  CD2      -10.4410   11.3220   10.5270 C.ar   82  TYR82      -0.0009
     52  CE1      -12.1710   13.4650   10.2830 C.ar   82  TYR82       0.0417
     53  CE2      -10.6090   12.2000   11.5860 C.ar   82  TYR82       0.0417
     54  CZ       -11.4740   13.2690   11.4600 C.ar   82  TYR82       0.1957
     55  OH       -11.6420   14.1420   12.5140 O.3    82  TYR82      -0.2866
     56  N         -9.7860    7.7630   12.9450 N.3    84  PHE84      -0.1227
     57  CA        -8.6720    8.3300   13.7040 C.3    84  PHE84       0.1736
     58  C         -7.5900    7.2980   14.0270 C.2    84  PHE84       0.2595
     59  O         -6.4380    7.6520   14.2820 O.2    84  PHE84      -0.2718
     60  CB        -9.1710    9.0180   14.9820 C.3    84  PHE84       0.0547
     61  CG        -9.5180    8.0660   16.0970 C.ar   84  PHE84      -0.0202
     62  CD1      -10.7380    7.4090   16.1120 C.ar   84  PHE84      -0.0042
     63  CD2       -8.6280    7.8380   17.1380 C.ar   84  PHE84      -0.0042
     64  CE1      -11.0610    6.5390   17.1380 C.ar   84  PHE84      -0.0003
     65  CE2       -8.9450    6.9680   18.1670 C.ar   84  PHE84      -0.0003
     66  CZ       -10.1630    6.3180   18.1670 C.ar   84  PHE84      -0.0000
     67  N         -7.9620    6.0220   14.0100 N.am   85  GLN85      -0.1965
     68  CA        -7.0080    4.9550   14.2820 C.3    85  GLN85       0.1733
     69  C         -5.8440    5.0000   13.3030 C.2    85  GLN85       0.2617
     70  O         -4.6800    5.0070   13.7040 O.2    85  GLN85      -0.2715
     71  CB        -7.6830    3.5800   14.1990 C.3    85  GLN85       0.0408
     72  CG        -8.7470    3.3240   15.2550 C.3    85  GLN85       0.0908
     73  CD       -10.1070    3.8530   14.8500 C.2    85  GLN85       0.2608
     74  OE1      -10.3070    4.2800   13.7110 O.2    85  GLN85      -0.2717
     75  NE2      -11.0550    3.8220   15.7810 N.am   85  GLN85      -0.0878
     76  N         -6.1730    5.0370   12.0170 N.am   86  SER86      -0.1950
     77  CA        -5.1760    4.9100   10.9660 C.3    86  SER86       0.1924
     78  C         -5.1350    6.1290   10.0580 C.2    86  SER86       0.2314
     79  O         -5.3620    7.2600   10.4920 O.2    86  SER86      -0.2863
     80  CB        -5.4800    3.6720   10.1220 C.3    86  SER86       0.2116
     81  OG        -6.7210    3.8150    9.4510 O.3    86  SER86      -0.2180
     82  N         -9.8430    6.5640    5.0520 N.3    89  MET89      -0.1245
     83  CA       -11.0340    7.3800    4.8640 C.3    89  MET89       0.1570
     84  C        -11.7560    6.9940    3.5740 C.2    89  MET89       0.2261
     85  O        -11.1230    6.7300    2.5530 O.2    89  MET89      -0.2867
     86  CB       -10.6870    8.8780    4.8540 C.3    89  MET89       0.0387
     87  CG        -9.8030    9.3170    3.6920 C.3    89  MET89       0.0595
     88  SD       -10.1910   10.9600    3.0420 S.3    89  MET89      -0.1393
     89  CE       -10.4260   11.8820    4.5530 C.3    89  MET89       0.0692
     90  N        -13.5130   15.0150   16.6910 N.3   107  SER107     -0.1202
     91  CA       -12.7510   15.7930   17.6580 C.3   107  SER107      0.2020
     92  C        -12.2860   17.1140   17.0460 C.2   107  SER107      0.2618
     93  O        -12.0380   18.0870   17.7570 O.2   107  SER107     -0.2717
     94  CB       -11.5550   14.9870   18.1730 C.3   107  SER107      0.2103
     95  OG       -10.6720   14.6460   17.1210 O.3   107  SER107     -0.2182
     96  N        -12.1730   17.1440   15.7220 N.am  108  TRP108     -0.1975
     97  CA       -11.8050   18.3630   15.0130 C.3   108  TRP108      0.1640
     98  C        -13.0460   19.2020   14.7340 C.2   108  TRP108      0.2290
     99  O        -12.9920   20.1860   13.9930 O.2   108  TRP108     -0.2864
    100  CB       -11.0990   18.0250   13.6950 C.3   108  TRP108      0.0576
    101  CG        -9.6900   17.5350   13.8620 C.ar  108  TRP108      0.0006
    102  CD1       -9.2880   16.4070   14.5150 C.ar  108  TRP108      0.0946
    103  CD2       -8.4980   18.1520   13.3550 C.ar  108  TRP108      0.0152
    104  NE1       -7.9200   16.2880   14.4560 N.ar  108  TRP108     -0.2442
    105  CE2       -7.4110   17.3450   13.7480 C.ar  108  TRP108      0.0810
    106  CE3       -8.2420   19.3090   12.6120 C.ar  108  TRP108      0.0012
    107  CZ2       -6.0910   17.6590   13.4230 C.ar  108  TRP108      0.0191
    108  CZ3       -6.9270   19.6180   12.2890 C.ar  108  TRP108      0.0001
    109  CH2       -5.8710   18.7950   12.6930 C.ar  108  TRP108      0.0015
    110  N        -15.3860   18.3050   12.9060 N.3   110  ILE110     -0.1245
    111  CA       -15.7150   18.1010   11.5020 C.3   110  ILE110      0.1561
    112  C        -16.8380   17.0850   11.3720 C.2   110  ILE110      0.2260
    113  O        -16.7650   16.0010   11.9500 O.2   110  ILE110     -0.2867
    114  CB       -14.4900   17.6580   10.6810 C.3   110  ILE110      0.0252
    115  CG1      -13.6450   18.8770   10.3290 C.3   110  ILE110      0.0019
    116  CG2      -14.9260   16.9690    9.4040 C.3   110  ILE110      0.0019
    117  CD1      -14.4640   20.0280    9.7550 C.3   110  ILE110      0.0001
    118  N         -8.3670   19.4770    0.0160 N.3   134  PRO134     -0.2102
    119  CA        -7.9750   20.3890    1.0890 C.3   134  PRO134      0.1504
    120  C         -6.4620   20.3710    1.2460 C.2   134  PRO134      0.2576
    121  O         -5.7870   19.6830    0.4820 O.2   134  PRO134     -0.2718
    122  CB        -8.6340   19.7730    2.3180 C.3   134  PRO134      0.0282
    123  CG        -8.6910   18.3280    2.0260 C.3   134  PRO134      0.0208
    124  CD        -8.7480   18.1520    0.5330 C.3   134  PRO134      0.0893
    125  N         -5.9390   21.1180    2.2120 N.am  135  GLY135     -0.1957
    126  CA        -4.5100   21.1490    2.4480 C.3   135  GLY135      0.1869
    127  C         -4.0550   22.4400    3.0890 C.2   135  GLY135      0.2309
    128  O         -4.6700   23.4900    2.8980 O.2   135  GLY135     -0.2863
    129  N          1.2860   19.4480   -2.7010 N.3   144  ARG144     -0.1245
    130  CA         0.3480   19.6800   -1.6070 C.3   144  ARG144      0.1563
    131  C          1.0120   19.5020   -0.2480 C.2   144  ARG144      0.2260
    132  O          1.8370   18.6120   -0.0570 O.2   144  ARG144     -0.2867
    133  CB        -0.8630   18.7420   -1.7230 C.3   144  ARG144      0.0307
    134  CG        -2.0350   19.1120   -0.8160 C.3   144  ARG144      0.0489
    135  CD        -3.2210   18.1650   -0.9800 C.3   144  ARG144      0.2205
    136  NE        -3.0640   16.9600   -0.1710 N.pl3 144  ARG144     -0.0865
    137  CZ        -3.7350   16.7130    0.9510 C.cat 144  ARG144      0.5346
    138  NH1       -4.6300   17.5770    1.4020 N.pl3 144  ARG144      0.1354
    139  NH2       -3.5160   15.5920    1.6190 N.pl3 144  ARG144      0.1354
    140  N         -2.2350   17.6510    6.0870 N.3   147  ARG147     -0.1245
    141  CA        -2.2280   17.8490    7.5300 C.3   147  ARG147      0.1563
    142  C         -1.3060   16.8530    8.2260 C.2   147  ARG147      0.2260
    143  O         -1.1720   16.8720    9.4470 O.2   147  ARG147     -0.2867
    144  CB        -3.6470   17.7860    8.0950 C.3   147  ARG147      0.0307
    145  CG        -4.5440   18.8840    7.5580 C.3   147  ARG147      0.0489
    146  CD        -5.8230   18.9910    8.3500 C.3   147  ARG147      0.2205
    147  NE        -6.6470   20.1100    7.9030 N.pl3 147  ARG147     -0.0865
    148  CZ        -6.4200   21.3780    8.2270 C.cat 147  ARG147      0.5346
    149  NH1       -5.3880   21.6920    8.9960 N.pl3 147  ARG147      0.1354
    150  NH2       -7.2210   22.3330    7.7790 N.pl3 147  ARG147      0.1354
    151  N         -1.2750   13.3700    8.1420 N.3   149  LYS149     -0.1231
    152  CA        -1.7420   12.0280    8.4860 C.3   149  LYS149      0.1693
    153  C         -1.8710   11.0990    7.2750 C.2   149  LYS149      0.2593
    154  O         -2.0930    9.8980    7.4280 O.2   149  LYS149     -0.2718
    155  CB        -3.0580   12.1080    9.2570 C.3   149  LYS149      0.0285
    156  CG        -3.1170   13.2830   10.2240 C.3   149  LYS149      0.0035
    157  CD        -2.1210   13.1480   11.3740 C.3   149  LYS149      0.0206
    158  CE        -1.8590   14.4990   12.0410 C.3   149  LYS149      0.1093
    159  NZ        -1.4100   14.3730   13.4610 N.3   149  LYS149     -0.1314
    160  N         -1.7330   11.6630    6.0770 N.am  150  GLY150     -0.1942
    161  CA        -1.6710   10.8810    4.8530 C.3   150  GLY150      0.2014
    162  C         -2.9970   10.3470    4.3500 C.2   150  GLY150      0.2639
    163  O         -3.0380    9.3630    3.6160 O.2   150  GLY150     -0.2714
    164  N         -4.0850   11.0010    4.7320 N.am  151  TYR151     -0.1959
    165  CA        -5.4140   10.5210    4.3760 C.3   151  TYR151      0.1771
    166  C         -5.6830   10.5830    2.8780 C.2   151  TYR151      0.2619
    167  O         -6.1240    9.5990    2.2850 O.2   151  TYR151     -0.2715
    168  CB        -6.4960   11.2890    5.1420 C.3   151  TYR151      0.0574
    169  CG        -6.6610   10.8520    6.5800 C.ar  151  TYR151     -0.0198
    170  CD1       -6.2140   11.6470    7.6250 C.ar  151  TYR151     -0.0009
    171  CD2       -7.2650    9.6410    6.8920 C.ar  151  TYR151     -0.0009
    172  CE1       -6.3650   11.2490    8.9390 C.ar  151  TYR151      0.0417
    173  CE2       -7.4210    9.2350    8.2030 C.ar  151  TYR151      0.0417
    174  CZ        -6.9680   10.0420    9.2200 C.ar  151  TYR151      0.1957
    175  OH        -7.1180    9.6390   10.5250 O.3   151  TYR151     -0.2866
    176  N         -5.4200   11.7370    2.2680 N.am  152  TYR152     -0.1974
    177  CA        -5.7410   11.9370    0.8560 C.3   152  TYR152      0.1639
    178  C         -4.7920   11.2150   -0.0890 C.2   152  TYR152      0.2290
    179  O         -5.2320   10.6250   -1.0750 O.2   152  TYR152     -0.2864
    180  CB        -5.8240   13.4230    0.5140 C.3   152  TYR152      0.0560
    181  CG        -7.2160   13.9790    0.6740 C.ar  152  TYR152     -0.0198
    182  CD1       -7.5930   14.6400    1.8350 C.ar  152  TYR152     -0.0009
    183  CD2       -8.1650   13.8220   -0.3290 C.ar  152  TYR152     -0.0009
    184  CE1       -8.8730   15.1400    1.9900 C.ar  152  TYR152      0.0417
    185  CE2       -9.4470   14.3210   -0.1840 C.ar  152  TYR152      0.0417
    186  CZ        -9.7940   14.9800    0.9770 C.ar  152  TYR152      0.1957
    187  OH       -11.0660   15.4800    1.1270 O.3   152  TYR152     -0.2866
@<TRIPOS>BOND
     1   129   130    1
     2   133   130    1
     3   133   134    1
     4   130   131    1
     5   179   178    2
     6   135   134    1
     7   135   136    1
     8   183   185   ar
     9   183   181   ar
    10   131   132    2
    11   185   186   ar
    12   136   137    2
    13   178   177    1
    14   118   124    1
    15   118   119    1
    16    10     8   ar
    17    10    11   ar
    18   121   120    2
    19   180   181    1
    20   180   177    1
    21   124   123    1
    22     8     6   ar
    23     1     2    1
    24   181   182   ar
    25    11     9   ar
    26   177   176    1
    27   137   138    1
    28   137   139    1
    29   186   187    1
    30   186   184   ar
    31   119   120    1
    32   119   122    1
    33   120   125   am
    34   182   184   ar
    35     6     5    1
    36     6     7   ar
    37   123   122    1
    38     2     5    1
    39     2     3    1
    40     9     7   ar
    41     4     3    2
    42   125   126    1
    43   176   166   am
    44   167   166    2
    45   126   127    1
    46    85    84    2
    47    43    37    1
    48    43    42    1
    49     3    12   am
    50    37    38    1
    51   166   165    1
    52   128   127    2
    53    42    41    1
    54    88    87    1
    55    88    89    1
    56    38    41    1
    57    38    39    1
    58    84    83    1
    59   163   162    2
    60    87    86    1
    61    12    13    1
    62    30    31    2
    63    30    29    1
    64    19    17    1
    65   162   164   am
    66   162   161    1
    67   165   164    1
    68   165   168    1
    69    39    40    2
    70   161   160    1
    71    86    83    1
    72    83    82    1
    73    29    32    1
    74    29    28    1
    75    13    14    1
    76    13    16    1
    77    32    33    1
    78   168   169    1
    79    17    16    1
    80    17    18    1
    81    33    34    1
    82    36    34   ar
    83    34    35   ar
    84    14    15    2
    85   160   153   am
    86   140   141    1
    87   169   171   ar
    88   169   170   ar
    89   171   173   ar
    90   153   154    2
    91   153   152    1
    92   141   144    1
    93   141   142    1
    94   145   144    1
    95   145   146    1
    96    23    22    2
    97    20    21    1
    98   170   172   ar
    99    44    45    1
   100   150   148    1
   101   147   148    2
   102   147   146    1
   103    45    48    1
   104    45    46    1
   105   151   152    1
   106    48    49    1
   107   173   174   ar
   108   142   143    2
   109   148   149    1
   110   152   155    1
   111    22    21    1
   112    21    24    1
   113   172   174   ar
   114   174   175    1
   115    50    49   ar
   116    50    52   ar
   117   155   156    1
   118    25    24    1
   119    25    26    1
   120    49    51   ar
   121   116   114    1
   122    46    47    2
   123    81    80    1
   124    27    26    1
   125   117   115    1
   126    78    79    2
   127    78    77    1
   128    80    77    1
   129   156   157    1
   130    52    54   ar
   131   115   114    1
   132    51    53   ar
   133   114   111    1
   134    77    76    1
   135   112   111    1
   136   112   113    2
   137   157   158    1
   138    54    53   ar
   139    54    55    1
   140   111   110    1
   141    76    69   am
   142   158   159    1
   143   108   106   ar
   144   108   109   ar
   145   106   103   ar
   146   109   107   ar
   147    56    57    1
   148    69    70    2
   149    69    68    1
   150   103   105   ar
   151   103   101   ar
   152   107   105   ar
   153   100   101    1
   154   100    97    1
   155    57    58    1
   156    57    60    1
   157    74    73    2
   158   105   104   ar
   159   101   102   ar
   160    99    98    2
   161    67    58   am
   162    67    68    1
   163    58    59    2
   164    71    68    1
   165    71    72    1
   166   104   102   ar
   167    98    97    1
   168    73    72    1
   169    73    75   am
   170    60    61    1
   171    97    96    1
   172    96    92   am
   173    61    62   ar
   174    61    63   ar
   175    62    64   ar
   176    90    91    1
   177    92    91    1
   178    92    93    2
   179    95    94    1
   180    63    65   ar
   181    64    66   ar
   182    91    94    1
   183    65    66   ar
