@<TRIPOS>MOLECULE
tmp/3hy5A00.pdb
 221 210 0 0 0
SMALL
GASTEIGER

@<TRIPOS>ATOM
      1  N          0.1870   25.0180   10.6530 N.3   139  PHE139     -0.1241
      2  CA         0.8660   24.1550    9.6990 C.3   139  PHE139      0.1605
      3  C          0.4220   24.4860    8.2840 C.2   139  PHE139      0.2264
      4  O         -0.7730   24.5930    8.0030 O.2   139  PHE139     -0.2867
      5  CB         0.6130   22.6760    9.9890 C.3   139  PHE139      0.0534
      6  CG         1.4410   21.7490    9.1390 C.ar  139  PHE139     -0.0203
      7  CD1        2.7090   21.3660    9.5450 C.ar  139  PHE139     -0.0042
      8  CD2        0.9610   21.2730    7.9280 C.ar  139  PHE139     -0.0042
      9  CE1        3.4800   20.5190    8.7670 C.ar  139  PHE139     -0.0003
     10  CE2        1.7280   20.4230    7.1450 C.ar  139  PHE139     -0.0003
     11  CZ         2.9880   20.0480    7.5660 C.ar  139  PHE139     -0.0000
     12  N          0.8480   22.9600    4.6280 N.3   141  ILE141     -0.1245
     13  CA         1.3090   21.7840    3.9040 C.3   141  ILE141      0.1561
     14  C          1.7910   22.1160    2.4990 C.2   141  ILE141      0.2260
     15  O          2.5840   21.3760    1.9200 O.2   141  ILE141     -0.2867
     16  CB         0.2220   20.7050    3.8190 C.3   141  ILE141      0.0252
     17  CG1        0.8400   19.3900    3.3410 C.3   141  ILE141      0.0019
     18  CG2       -0.8990   21.1590    2.8950 C.3   141  ILE141      0.0019
     19  CD1        0.1380   18.1650    3.8470 C.3   141  ILE141      0.0001
     20  N          5.2240   21.3980    1.0410 N.3   144  TRP144     -0.1241
     21  CA         5.8710   20.4490    1.9380 C.3   144  TRP144      0.1605
     22  C          6.3490   19.2400    1.1520 C.2   144  TRP144      0.2264
     23  O          5.6720   18.7760    0.2340 O.2   144  TRP144     -0.2867
     24  CB         4.9370   20.0070    3.0680 C.3   144  TRP144      0.0550
     25  CG         5.5420   18.9430    3.9410 C.ar  144  TRP144      0.0003
     26  CD1        6.8160   18.9130    4.4290 C.ar  144  TRP144      0.0946
     27  CD2        4.8950   17.7630    4.4370 C.ar  144  TRP144      0.0152
     28  NE1        7.0060   17.7850    5.1930 N.ar  144  TRP144     -0.2442
     29  CE2        5.8430   17.0640    5.2140 C.ar  144  TRP144      0.0810
     30  CE3        3.6110   17.2300    4.2990 C.ar  144  TRP144      0.0012
     31  CZ2        5.5450   15.8600    5.8490 C.ar  144  TRP144      0.0191
     32  CZ3        3.3180   16.0340    4.9300 C.ar  144  TRP144      0.0001
     33  CH2        4.2800   15.3630    5.6960 C.ar  144  TRP144      0.0015
     34  N          7.6920   13.4680    8.8340 N.3   151  PHE151     -0.1241
     35  CA         6.5020   13.6730    9.6470 C.3   151  PHE151      0.1605
     36  C          6.8860   13.5540   11.1160 C.2   151  PHE151      0.2264
     37  O          6.2540   14.1470   11.9900 O.2   151  PHE151     -0.2867
     38  CB         5.4410   12.6300    9.2950 C.3   151  PHE151      0.0534
     39  CG         4.0550   12.9910    9.7500 C.ar  151  PHE151     -0.0203
     40  CD1        3.1150   13.4560    8.8460 C.ar  151  PHE151     -0.0042
     41  CD2        3.6900   12.8600   11.0790 C.ar  151  PHE151     -0.0042
     42  CE1        1.8370   13.7830    9.2560 C.ar  151  PHE151     -0.0003
     43  CE2        2.4130   13.1900   11.4970 C.ar  151  PHE151     -0.0003
     44  CZ         1.4860   13.6520   10.5830 C.ar  151  PHE151     -0.0000
     45  N          8.5350   16.7760   12.4250 N.3   154  ILE154     -0.1231
     46  CA         7.4540   17.7320   12.6320 C.3   154  ILE154      0.1692
     47  C          6.7480   17.4940   13.9630 C.2   154  ILE154      0.2591
     48  O          6.3400   18.4390   14.6350 O.2   154  ILE154     -0.2718
     49  CB         6.4240   17.6720   11.4890 C.3   154  ILE154      0.0266
     50  CG1        7.1050   17.9530   10.1490 C.3   154  ILE154      0.0019
     51  CG2        5.2950   18.6590   11.7340 C.3   154  ILE154      0.0020
     52  CD1        6.1720   17.8930    8.9570 C.3   154  ILE154      0.0001
     53  N          6.6080   16.2280   14.3420 N.am  155  LEU155     -0.1980
     54  CA         5.9760   15.8850   15.6120 C.3   155  LEU155      0.1596
     55  C          6.8980   16.1950   16.7890 C.2   155  LEU155      0.2287
     56  O          6.4650   16.7600   17.7920 O.2   155  LEU155     -0.2864
     57  CB         5.5420   14.4170   15.6320 C.3   155  LEU155      0.0297
     58  CG         4.3280   14.0860   14.7600 C.3   155  LEU155      0.0022
     59  CD1        3.9800   12.6080   14.8460 C.3   155  LEU155      0.0001
     60  CD2        3.1310   14.9440   15.1520 C.3   155  LEU155      0.0001
     61  N          6.4800   19.5990   17.5660 N.3   158  TYR158     -0.1241
     62  CA         5.2630   19.7550   18.3540 C.3   158  TYR158      0.1605
     63  C          5.5390   19.4730   19.8250 C.2   158  TYR158      0.2264
     64  O          5.1650   20.2570   20.6980 O.2   158  TYR158     -0.2867
     65  CB         4.1710   18.8080   17.8530 C.3   158  TYR158      0.0534
     66  CG         3.1920   19.4250   16.8800 C.ar  158  TYR158     -0.0201
     67  CD1        2.0490   20.0750   17.3340 C.ar  158  TYR158     -0.0009
     68  CD2        3.3980   19.3410   15.5080 C.ar  158  TYR158     -0.0009
     69  CE1        1.1460   20.6360   16.4480 C.ar  158  TYR158      0.0417
     70  CE2        2.5010   19.8990   14.6140 C.ar  158  TYR158      0.0417
     71  CZ         1.3780   20.5450   15.0890 C.ar  158  TYR158      0.1957
     72  OH         0.4870   21.0990   14.1990 O.3   158  TYR158     -0.2866
     73  N         -5.3670   24.5080   16.6170 N.3   178  ILE178     -0.1245
     74  CA        -4.5060   24.2740   15.4620 C.3   178  ILE178      0.1561
     75  C         -5.1470   24.7060   14.1470 C.2   178  ILE178      0.2260
     76  O         -6.3030   24.3890   13.8800 O.2   178  ILE178     -0.2867
     77  CB        -4.1270   22.7820   15.3570 C.3   178  ILE178      0.0252
     78  CG1       -3.3770   22.3330   16.6140 C.3   178  ILE178      0.0019
     79  CG2       -3.3040   22.5210   14.1030 C.3   178  ILE178      0.0019
     80  CD1       -3.1770   20.8370   16.7070 C.3   178  ILE178      0.0001
     81  N         -4.8800   24.3750   10.0210 N.3   180  GLU180     -0.1245
     82  CA        -4.3120   23.4950    9.0120 C.3   180  GLU180      0.1567
     83  C         -4.5420   24.0700    7.6240 C.2   180  GLU180      0.2260
     84  O         -5.6460   23.9860    7.0840 O.2   180  GLU180     -0.2867
     85  CB        -4.9270   22.0980    9.1120 C.3   180  GLU180      0.0388
     86  CG        -4.6040   21.3550   10.4030 C.3   180  GLU180      0.1160
     87  CD        -3.2080   20.7620   10.4080 C.2   180  GLU180      0.3649
     88  OE1       -2.4730   20.9630    9.4190 O.co2 180  GLU180     -0.2457
     89  OE2       -2.8460   20.0900   11.3980 O.co2 180  GLU180     -0.2457
     90  N         -4.4470   23.3840    4.3490 N.3   182  PHE182     -0.1241
     91  CA        -4.3920   22.3810    3.2940 C.3   182  PHE182      0.1605
     92  C         -4.7540   22.9610    1.9290 C.2   182  PHE182      0.2264
     93  O         -5.5670   22.3940    1.1980 O.2   182  PHE182     -0.2867
     94  CB        -5.2880   21.1850    3.6270 C.3   182  PHE182      0.0534
     95  CG        -4.6220   20.1580    4.4900 C.ar  182  PHE182     -0.0203
     96  CD1       -5.2400   19.6770    5.6270 C.ar  182  PHE182     -0.0042
     97  CD2       -3.3660   19.6830    4.1690 C.ar  182  PHE182     -0.0042
     98  CE1       -4.6180   18.7320    6.4190 C.ar  182  PHE182     -0.0003
     99  CE2       -2.7420   18.7430    4.9590 C.ar  182  PHE182     -0.0003
    100  CZ        -3.3670   18.2680    6.0840 C.ar  182  PHE182     -0.0000
    101  N         -2.2650   21.0200   -0.4570 N.3   185  PHE185     -0.1241
    102  CA        -2.3830   19.5760   -0.3020 C.3   185  PHE185      0.1605
    103  C         -2.5420   18.8940   -1.6550 C.2   185  PHE185      0.2264
    104  O         -3.4890   19.1670   -2.3890 O.2   185  PHE185     -0.2867
    105  CB        -3.5620   19.2300    0.6070 C.3   185  PHE185      0.0534
    106  CG        -3.5510   17.8130    1.0990 C.ar  185  PHE185     -0.0203
    107  CD1       -2.4080   17.2740    1.6650 C.ar  185  PHE185     -0.0042
    108  CD2       -4.6850   17.0220    1.0100 C.ar  185  PHE185     -0.0042
    109  CE1       -2.3920   15.9690    2.1250 C.ar  185  PHE185     -0.0003
    110  CE2       -4.6750   15.7170    1.4710 C.ar  185  PHE185     -0.0003
    111  CZ        -3.5270   15.1910    2.0300 C.ar  185  PHE185     -0.0000
    112  N          1.1600    9.5170    2.8990 N.3   193  LEU193     -0.1245
    113  CA         0.9480    9.6130    4.3390 C.3   193  LEU193      0.1561
    114  C          0.7710    8.2430    4.9810 C.2   193  LEU193      0.2260
    115  O         -0.2000    7.5370    4.7060 O.2   193  LEU193     -0.2867
    116  CB        -0.2630   10.4950    4.6430 C.3   193  LEU193      0.0270
    117  CG        -0.0720   11.9870    4.3670 C.3   193  LEU193      0.0019
    118  CD1       -1.3860   12.7400    4.5070 C.3   193  LEU193      0.0001
    119  CD2        0.9880   12.5630    5.2950 C.3   193  LEU193      0.0001
    120  N          0.0420    9.0270   11.1290 N.3   198  LEU198     -0.1245
    121  CA        -1.1730    9.7270   11.5360 C.3   198  LEU198      0.1561
    122  C         -1.5860    9.3570   12.9620 C.2   198  LEU198      0.2260
    123  O         -1.9860   10.2180   13.7460 O.2   198  LEU198     -0.2867
    124  CB        -2.3140    9.4360   10.5600 C.3   198  LEU198      0.0270
    125  CG        -2.0120    9.7570    9.0970 C.3   198  LEU198      0.0019
    126  CD1       -3.2570    9.5880    8.2330 C.3   198  LEU198      0.0001
    127  CD2       -1.4580   11.1640    8.9770 C.3   198  LEU198      0.0001
    128  N          0.5410   11.2210   15.4530 N.3   201  MET201     -0.1230
    129  CA         0.0050   12.5490   15.7060 C.3   201  MET201      0.1702
    130  C         -1.2100   12.4550   16.6230 C.2   201  MET201      0.2592
    131  O         -1.1900   12.9530   17.7490 O.2   201  MET201     -0.2718
    132  CB        -0.3670   13.2520   14.4020 C.3   201  MET201      0.0401
    133  CG        -0.5760   14.7450   14.5760 C.3   201  MET201      0.0596
    134  SD        -0.7580   15.6460   13.0300 S.3   201  MET201     -0.1393
    135  CE        -0.8420   17.3190   13.6550 C.3   201  MET201      0.0692
    136  N         -2.2620   11.8070   16.1390 N.am  202  VAL202     -0.1980
    137  CA        -3.4710   11.6260   16.9320 C.3   202  VAL202      0.1595
    138  C         -3.1400   11.2970   18.3810 C.2   202  VAL202      0.2287
    139  O         -3.6930   11.8940   19.3060 O.2   202  VAL202     -0.2864
    140  CB        -4.3400   10.4870   16.3910 C.3   202  VAL202      0.0276
    141  CG1       -5.5210   10.2570   17.3210 C.3   202  VAL202      0.0022
    142  CG2       -4.8130   10.7980   14.9800 C.3   202  VAL202      0.0022
    143  N         -2.1060   14.1380   20.3490 N.3   205  LEU205     -0.1245
    144  CA        -3.2860   14.9450   20.6460 C.3   205  LEU205      0.1561
    145  C         -4.1910   14.3560   21.7360 C.2   205  LEU205      0.2260
    146  O         -4.8510   15.1000   22.4630 O.2   205  LEU205     -0.2867
    147  CB        -4.0960   15.1810   19.3680 C.3   205  LEU205      0.0270
    148  CG        -3.5900   16.2600   18.4100 C.3   205  LEU205      0.0019
    149  CD1       -2.0690   16.2800   18.3420 C.3   205  LEU205      0.0001
    150  CD2       -4.2010   16.0650   17.0300 C.3   205  LEU205      0.0001
    151  N         -9.5710   22.0340   16.0040 N.3   216  ILE216     -0.1245
    152  CA        -8.7280   21.8640   14.8380 C.3   216  ILE216      0.1561
    153  C         -9.4590   22.4480   13.6390 C.2   216  ILE216      0.2260
    154  O        -10.6200   22.1250   13.3990 O.2   216  ILE216     -0.2867
    155  CB        -8.3990   20.3860   14.6000 C.3   216  ILE216      0.0252
    156  CG1       -7.6670   19.8210   15.8200 C.3   216  ILE216      0.0019
    157  CG2       -7.5660   20.2210   13.3400 C.3   216  ILE216      0.0019
    158  CD1       -7.3500   18.3510   15.7260 C.3   216  ILE216      0.0001
    159  N         -9.4350   23.2420    9.4280 N.3   218  PHE218     -0.1241
    160  CA        -8.8710   22.9450    8.1220 C.3   218  PHE218      0.1605
    161  C         -9.3670   23.9840    7.1240 C.2   218  PHE218      0.2264
    162  O        -10.5180   24.4130    7.1870 O.2   218  PHE218     -0.2867
    163  CB        -9.2590   21.5330    7.6720 C.3   218  PHE218      0.0534
    164  CG        -8.5490   20.4360    8.4250 C.ar  218  PHE218     -0.0203
    165  CD1       -7.2740   20.0400    8.0590 C.ar  218  PHE218     -0.0042
    166  CD2       -9.1600   19.7950    9.4920 C.ar  218  PHE218     -0.0042
    167  CE1       -6.6190   19.0300    8.7470 C.ar  218  PHE218     -0.0003
    168  CE2       -8.5090   18.7820   10.1820 C.ar  218  PHE218     -0.0003
    169  CZ        -7.2380   18.4020    9.8090 C.ar  218  PHE218     -0.0000
    170  N         -9.8500   15.5730    0.5990 N.3   225  PHE225     -0.1241
    171  CA        -9.5130   15.6180    2.0160 C.3   225  PHE225      0.1605
    172  C        -10.3800   14.6280    2.7750 C.2   225  PHE225      0.2264
    173  O         -9.9660   14.0890    3.7990 O.2   225  PHE225     -0.2867
    174  CB        -9.6840   17.0250    2.5990 C.3   225  PHE225      0.0534
    175  CG        -9.5270   17.0830    4.1000 C.ar  225  PHE225     -0.0203
    176  CD1       -8.3620   16.6360    4.7050 C.ar  225  PHE225     -0.0042
    177  CD2      -10.5420   17.5830    4.9030 C.ar  225  PHE225     -0.0042
    178  CE1       -8.2120   16.6820    6.0820 C.ar  225  PHE225     -0.0003
    179  CE2      -10.3980   17.6320    6.2830 C.ar  225  PHE225     -0.0003
    180  CZ        -9.2310   17.1820    6.8710 C.ar  225  PHE225     -0.0000
    181  N         -8.6670   11.4250    3.3450 N.3   228  THR228     -0.1203
    182  CA        -7.6450   11.4450    4.3870 C.3   228  THR228      0.1994
    183  C         -8.2520   11.5920    5.7830 C.2   228  THR228      0.2617
    184  O         -7.6990   11.1050    6.7710 O.2   228  THR228     -0.2717
    185  CB        -6.6500   12.5890    4.1520 C.3   228  THR228      0.1784
    186  OG1       -6.2290   12.5830    2.7810 O.3   228  THR228     -0.2211
    187  CG2       -5.4430   12.4330    5.0610 C.3   228  THR228      0.0376
    188  N         -9.3900   12.2750    5.8490 N.am  229  TYR229     -0.1975
    189  CA       -10.1360   12.4430    7.0890 C.3   229  TYR229      0.1639
    190  C        -10.6860   11.0930    7.5410 C.2   229  TYR229      0.2290
    191  O        -10.5940   10.7340    8.7150 O.2   229  TYR229     -0.2864
    192  CB       -11.2850   13.4270    6.8550 C.3   229  TYR229      0.0560
    193  CG       -12.0450   13.8590    8.0910 C.ar  229  TYR229     -0.0198
    194  CD1      -11.9850   15.1690    8.5400 C.ar  229  TYR229     -0.0009
    195  CD2      -12.8410   12.9650    8.7930 C.ar  229  TYR229     -0.0009
    196  CE1      -12.6830   15.5750    9.6590 C.ar  229  TYR229      0.0417
    197  CE2      -13.5450   13.3630    9.9160 C.ar  229  TYR229      0.0417
    198  CZ       -13.4610   14.6710   10.3440 C.ar  229  TYR229      0.1957
    199  OH       -14.1560   15.0790   11.4620 O.3   229  TYR229     -0.2866
    200  N         -8.2600    8.8460    9.4260 N.3   232  VAL232     -0.1245
    201  CA        -7.9990    9.2170   10.8110 C.3   232  VAL232      0.1561
    202  C         -9.2630    9.1480   11.6570 C.2   232  VAL232      0.2260
    203  O         -9.2010    8.9080   12.8610 O.2   232  VAL232     -0.2867
    204  CB        -7.4190   10.6380   10.9130 C.3   232  VAL232      0.0252
    205  CG1       -7.1950   11.0170   12.3670 C.3   232  VAL232      0.0019
    206  CG2       -6.1230   10.7410   10.1300 C.3   232  VAL232      0.0019
    207  N         -9.9350    9.1100   16.2530 N.3   236  LEU236     -0.1245
    208  CA       -10.3540   10.2210   17.1070 C.3   236  LEU236      0.1561
    209  C        -11.5230    9.8790   18.0280 C.2   236  LEU236      0.2260
    210  O        -12.5900    9.4700   17.5710 O.2   236  LEU236     -0.2867
    211  CB       -10.7100   11.4410   16.2550 C.3   236  LEU236      0.0270
    212  CG        -9.6290   11.8930   15.2700 C.3   236  LEU236      0.0019
    213  CD1      -10.1120   13.0580   14.4190 C.3   236  LEU236      0.0001
    214  CD2       -8.3510   12.2570   16.0130 C.3   236  LEU236      0.0001
    215  N        -13.0450   18.9510   15.3450 N.3   244  VAL244     -0.1245
    216  CA       -12.4760   19.1270   14.0160 C.3   244  VAL244      0.1561
    217  C        -13.4320   19.9520   13.1710 C.2   244  VAL244      0.2260
    218  O        -14.6300   19.6790   13.1320 O.2   244  VAL244     -0.2867
    219  CB       -12.1890   17.7910   13.3200 C.3   244  VAL244      0.0252
    220  CG1      -11.7530   18.0340   11.8860 C.3   244  VAL244      0.0019
    221  CG2      -11.1250   17.0180   14.0820 C.3   244  VAL244      0.0019
@<TRIPOS>BOND
     1   104   103    2
     2   103   102    1
     3   101   102    1
     4   102   105    1
     5    23    22    2
     6   170   171    1
     7   105   106    1
     8   108   106   ar
     9   108   110   ar
    10    20    21    1
    11   106   107   ar
    12    22    21    1
    13    93    92    2
    14   110   111   ar
    15   107   109   ar
    16    15    14    2
    17    92    91    1
    18    21    24    1
    19   171   174    1
    20   171   172    1
    21   111   109   ar
    22    14    13    1
    23   174   175    1
    24   172   173    2
    25   186   185    1
    26    18    16    1
    27   112   113    1
    28    24    25    1
    29    91    94    1
    30    91    90    1
    31    17    16    1
    32    17    19    1
    33   181   182    1
    34    94    95    1
    35    16    13    1
    36    13    12    1
    37    25    26   ar
    38    25    27   ar
    39   175   176   ar
    40   175   177   ar
    41   185   182    1
    42   185   187    1
    43    97    95   ar
    44    97    99   ar
    45    30    27   ar
    46    30    32   ar
    47   113   116    1
    48   113   114    1
    49   117   118    1
    50   117   116    1
    51   117   119    1
    52   182   183    1
    53    26    28   ar
    54    27    29   ar
    55    95    96   ar
    56   176   178   ar
    57   115   114    2
    58   177   179   ar
    59    32    33   ar
    60    99   100   ar
    61    28    29   ar
    62    29    31   ar
    63    96    98   ar
    64    33    31   ar
    65   183   188   am
    66   183   184    2
    67   188   189    1
    68   178   180   ar
    69   100    98   ar
    70   179   180   ar
    71   192   189    1
    72   192   193    1
    73    84    83    2
    74   189   190    1
    75   161   162    2
    76   161   160    1
    77    10    11   ar
    78    10     8   ar
    79   190   191    2
    80    11     9   ar
    81    83    82    1
    82   163   160    1
    83   163   164    1
    84     8     6   ar
    85     4     3    2
    86   165   164   ar
    87   165   167   ar
    88   193   194   ar
    89   193   195   ar
    90   160   159    1
    91   126   125    1
    92     3     2    1
    93   164   166   ar
    94   194   196   ar
    95   167   169   ar
    96     9     7   ar
    97   195   197   ar
    98    34    35    1
    99    40    42   ar
   100    40    39   ar
   101    52    50    1
   102   127   125    1
   103    82    85    1
   104    82    81    1
   105   125   124    1
   106    85    86    1
   107     6     7   ar
   108     6     5    1
   109    42    44   ar
   110    38    35    1
   111    38    39    1
   112    88    87   ar
   113   200   201    1
   114   166   168   ar
   115    35    36    1
   116   196   198   ar
   117     2     5    1
   118     2     1    1
   119    39    41   ar
   120   169   168   ar
   121   197   198   ar
   122   206   204    1
   123    50    49    1
   124   198   199    1
   125    86    87    1
   126    87    89   ar
   127   124   121    1
   128    44    43   ar
   129   201   204    1
   130   201   202    1
   131   204   205    1
   132    41    43   ar
   133    36    37    2
   134   120   121    1
   135    49    51    1
   136    49    46    1
   137   121   122    1
   138   202   203    2
   139   220   219    1
   140    45    46    1
   141    46    47    1
   142   122   123    2
   143   134   135    1
   144   134   133    1
   145   218   217    2
   146   217   216    1
   147   219   216    1
   148   219   221    1
   149   157   155    1
   150   154   153    2
   151   153   152    1
   152    76    75    2
   153    47    53   am
   154    47    48    2
   155   216   215    1
   156    79    77    1
   157    75    74    1
   158    72    71    1
   159    53    54    1
   160   132   133    1
   161   132   129    1
   162   213   212    1
   163   155   152    1
   164   155   156    1
   165    70    71   ar
   166    70    68   ar
   167    58    59    1
   168    58    60    1
   169    58    57    1
   170   152   151    1
   171   142   140    1
   172    71    69   ar
   173   212   214    1
   174   212   211    1
   175    77    74    1
   176    77    78    1
   177   128   129    1
   178    74    73    1
   179    68    66   ar
   180    54    57    1
   181    54    55    1
   182   129   130    1
   183   158   156    1
   184   136   130   am
   185   136   137    1
   186   207   208    1
   187   211   208    1
   188   140   137    1
   189   140   141    1
   190    69    67   ar
   191    78    80    1
   192   130   131    2
   193    55    56    2
   194    66    67   ar
   195    66    65    1
   196   137   138    1
   197   150   148    1
   198   208   209    1
   199    61    62    1
   200   210   209    2
   201    65    62    1
   202   149   148    1
   203    62    63    1
   204   138   139    2
   205   148   147    1
   206   147   144    1
   207    63    64    2
   208   143   144    1
   209   144   145    1
   210   145   146    2
