@<TRIPOS>MOLECULE
tmp/3hy6A00.pdb
 107 102 0 0 0
SMALL
GASTEIGER

@<TRIPOS>ATOM
      1  N         -8.5930   20.3660   -6.3150 N.3    10  LYS10      -0.1245
      2  CA        -7.1340   20.3190   -6.1940 C.3    10  LYS10       0.1561
      3  C         -6.5000   20.8610   -7.4630 C.2    10  LYS10       0.2260
      4  O         -5.5710   21.6690   -7.4020 O.2    10  LYS10      -0.2867
      5  CB        -6.6350   18.8840   -5.9650 C.3    10  LYS10       0.0271
      6  CG        -6.8890   18.2830   -4.5890 C.3    10  LYS10       0.0035
      7  CD        -6.3540   16.8430   -4.5350 C.3    10  LYS10       0.0206
      8  CE        -6.4130   16.2880   -3.1190 C.3    10  LYS10       0.1093
      9  NZ        -5.8000   14.9430   -3.0320 N.3    10  LYS10      -0.1314
     10  N         -4.2380   24.1830   -7.8950 N.3    14  ARG14      -0.1245
     11  CA        -2.8860   24.1110   -8.4840 C.3    14  ARG14       0.1563
     12  C         -2.6430   25.1840   -9.5460 C.2    14  ARG14       0.2260
     13  O         -1.5890   25.8370   -9.5600 O.2    14  ARG14      -0.2867
     14  CB        -2.5960   22.7350   -9.0710 C.3    14  ARG14       0.0307
     15  CG        -2.3400   21.6570   -8.0240 C.3    14  ARG14       0.0489
     16  CD        -1.9590   20.3230   -8.6540 C.3    14  ARG14       0.2205
     17  NE        -2.0510   19.2570   -7.6620 N.pl3  14  ARG14      -0.0865
     18  CZ        -2.9500   18.2800   -7.6650 C.cat  14  ARG14       0.5346
     19  NH1       -3.8490   18.1810   -8.6430 N.pl3  14  ARG14       0.1354
     20  NH2       -2.9410   17.3860   -6.6820 N.pl3  14  ARG14       0.1354
     21  N         -1.4230   19.6240    2.7590 N.3   145  ARG145     -0.1231
     22  CA        -0.4860   19.9040    1.6650 C.3   145  ARG145      0.1694
     23  C         -1.1070   19.6100    0.3100 C.2   145  ARG145      0.2592
     24  O         -1.8350   18.6070    0.1350 O.2   145  ARG145     -0.2718
     25  CB         0.8090   19.0870    1.7950 C.3   145  ARG145      0.0321
     26  CG         1.8880   19.5150    0.8030 C.3   145  ARG145      0.0489
     27  CD         3.1830   18.7310    0.9430 C.3   145  ARG145      0.2205
     28  NE         2.9080   17.3650    0.5700 N.pl3 145  ARG145     -0.0865
     29  CZ         3.2000   16.8140   -0.5960 C.cat 145  ARG145      0.5346
     30  NH1        3.8850   17.4650   -1.5250 N.pl3 145  ARG145      0.1354
     31  NH2        2.8250   15.5690   -0.7970 N.pl3 145  ARG145      0.1354
     32  N         -0.7900   20.4770   -0.6500 N.am  146  LEU146     -0.1966
     33  CA        -1.1800   20.2620   -2.0290 C.3   146  LEU146      0.1728
     34  C          0.0880   20.0540   -2.8290 C.2   146  LEU146      0.2617
     35  O          0.8770   20.9820   -2.9760 O.2   146  LEU146     -0.2715
     36  CB        -2.0000   21.4390   -2.5620 C.3   146  LEU146      0.0311
     37  CG        -2.3660   21.4090   -4.0640 C.3   146  LEU146      0.0022
     38  CD1       -3.1170   20.1320   -4.4830 C.3   146  LEU146      0.0001
     39  CD2       -3.1720   22.6220   -4.4300 C.3   146  LEU146      0.0001
     40  N          0.2970   18.8250   -3.3030 N.am  147  GLY147     -0.1940
     41  CA         1.4400   18.4960   -4.1590 C.3   147  GLY147      0.2014
     42  C          1.1870   18.7820   -5.6370 C.2   147  GLY147      0.2639
     43  O          0.2740   19.5330   -5.9880 O.2   147  GLY147     -0.2714
     44  N          1.9840   18.1660   -6.5100 N.am  148  ARG148     -0.1963
     45  CA         1.8860   18.4120   -7.9660 C.3   148  ARG148      0.1729
     46  C          0.9290   17.4540   -8.6910 C.2   148  ARG148      0.2617
     47  O          0.7060   17.5740   -9.8980 O.2   148  ARG148     -0.2715
     48  CB         3.2730   18.3850   -8.6060 C.3   148  ARG148      0.0348
     49  CG         4.1530   19.4850   -8.0870 C.3   148  ARG148      0.0492
     50  CD         5.5800   19.4180   -8.5890 C.3   148  ARG148      0.2205
     51  NE         6.4020   20.4560   -7.9570 N.pl3 148  ARG148     -0.0865
     52  CZ         6.4940   21.7160   -8.3880 C.cat 148  ARG148      0.5346
     53  NH1        5.8240   22.1170   -9.4620 N.pl3 148  ARG148      0.1354
     54  NH2        7.2540   22.5880   -7.7390 N.pl3 148  ARG148      0.1354
     55  N          0.3660   16.5000   -7.9580 N.am  149  GLY149     -0.1940
     56  CA        -0.5990   15.6130   -8.5440 C.3   149  GLY149      0.2014
     57  C         -0.1800   14.1530   -8.5450 C.2   149  GLY149      0.2639
     58  O         -0.9960   13.2800   -8.7980 O.2   149  GLY149     -0.2714
     59  N          1.0790   13.8770   -8.2590 N.am  150  LYS150     -0.1963
     60  CA         1.5600   12.5010   -8.3680 C.3   150  LYS150      0.1728
     61  C          1.4590   11.7210   -7.0720 C.2   150  LYS150      0.2617
     62  O          1.4760   10.4790   -7.0930 O.2   150  LYS150     -0.2715
     63  CB         2.9950   12.4720   -8.8900 C.3   150  LYS150      0.0311
     64  CG         3.0980   12.7970  -10.3610 C.3   150  LYS150      0.0038
     65  CD         2.6320   11.6190  -11.2270 C.3   150  LYS150      0.0206
     66  CE         1.8910   12.1070  -12.4730 C.3   150  LYS150      0.1093
     67  NZ         0.4670   12.4710  -12.1480 N.3   150  LYS150     -0.1314
     68  N          1.3670   12.4440   -5.9530 N.am  151  GLY151     -0.1940
     69  CA         1.2980   11.8230   -4.6310 C.3   151  GLY151      0.2014
     70  C          2.5460   11.0740   -4.1710 C.2   151  GLY151      0.2638
     71  O          2.4480   10.1700   -3.3510 O.2   151  GLY151     -0.2714
     72  N          3.7050   11.4380   -4.7190 N.am  152  TYR152     -0.1973
     73  CA         5.0050   10.8730   -4.3320 C.3   152  TYR152      0.1639
     74  C          5.2750   11.0090   -2.8300 C.2   152  TYR152      0.2290
     75  O          5.6190   10.0430   -2.1590 O.2   152  TYR152     -0.2864
     76  CB         6.1320   11.6210   -5.0620 C.3   152  TYR152      0.0560
     77  CG         6.3760   11.2270   -6.4970 C.ar  152  TYR152     -0.0198
     78  CD1        6.1770   12.1380   -7.5380 C.ar  152  TYR152     -0.0009
     79  CD2        6.8640    9.9560   -6.8200 C.ar  152  TYR152     -0.0009
     80  CE1        6.4440   11.7760   -8.8780 C.ar  152  TYR152      0.0417
     81  CE2        7.1360    9.6000   -8.1450 C.ar  152  TYR152      0.0417
     82  CZ         6.9000   10.5020   -9.1580 C.ar  152  TYR152      0.1957
     83  OH         7.1620   10.1300  -10.4450 O.3   152  TYR152     -0.2866
     84  N          3.0930   11.9270   -0.2840 N.3   154  ASP154     -0.1239
     85  CA         2.1010   11.1850    0.4920 C.3   154  ASP154      0.1674
     86  C          2.5170    9.7060    0.6020 C.2   154  ASP154      0.2266
     87  O          2.5600    9.1610    1.6950 O.2   154  ASP154     -0.2867
     88  CB         0.7050   11.2400   -0.1400 C.3   154  ASP154      0.1410
     89  CG         0.1540   12.6460   -0.2680 C.2   154  ASP154      0.3668
     90  OD1        0.2660   13.4570    0.6820 O.co2 154  ASP154     -0.2456
     91  OD2       -0.4400   12.9200   -1.3300 O.co2 154  ASP154     -0.2456
     92  N         -8.1800   14.4310    0.5590 N.3   186  ASN186     -0.1240
     93  CA        -8.9370   13.2050    0.8620 C.3   186  ASN186      0.1653
     94  C         -8.2840   12.4050    1.9880 C.2   186  ASN186      0.2266
     95  O         -7.3040   12.8530    2.5790 O.2   186  ASN186     -0.2867
     96  CB        -9.1680   12.3320   -0.3810 C.3   186  ASN186      0.1155
     97  CG        -7.9110   12.1330   -1.2130 C.2   186  ASN186      0.2627
     98  OD1       -7.7440   12.7700   -2.2460 O.2   186  ASN186     -0.2716
     99  ND2       -7.0270   11.2520   -0.7700 N.am  186  ASN186     -0.0877
    100  N         -4.3620   11.7880    1.7180 N.3   189  ASP189     -0.1239
    101  CA        -3.3930   12.8870    1.8200 C.3   189  ASP189      0.1674
    102  C         -2.7640   12.9790    3.2150 C.2   189  ASP189      0.2266
    103  O         -3.4390   12.7680    4.2180 O.2   189  ASP189     -0.2867
    104  CB        -4.0470   14.2330    1.4430 C.3   189  ASP189      0.1410
    105  CG        -4.4870   14.2850   -0.0220 C.2   189  ASP189      0.3668
    106  OD1       -3.6640   13.9740   -0.9000 O.co2 189  ASP189     -0.2456
    107  OD2       -5.6580   14.6210   -0.2940 O.co2 189  ASP189     -0.2456
@<TRIPOS>BOND
     1    66    67    1
     2    66    65    1
     3    65    64    1
     4    83    82    1
     5    64    63    1
     6    47    46    2
     7    13    12    2
     8    12    11    1
     9    53    52    1
    10    82    80   ar
    11    82    81   ar
    12    14    11    1
    13    14    15    1
    14    63    60    1
    15    80    78   ar
    16    58    57    2
    17    46    45    1
    18    46    55   am
    19    16    15    1
    20    16    17    1
    21    19    18    1
    22    48    49    1
    23    48    45    1
    24    50    49    1
    25    50    51    1
    26    57    56    1
    27    57    59   am
    28    56    55    1
    29    11    10    1
    30    52    51    2
    31    52    54    1
    32    60    59    1
    33    60    61    1
    34    81    79   ar
    35    45    44    1
    36    18    17    2
    37    18    20    1
    38    78    77   ar
    39     3     4    2
    40     3     2    1
    41    62    61    2
    42    61    68   am
    43    79    77   ar
    44    44    42   am
    45    77    76    1
    46     1     2    1
    47     2     5    1
    48    43    42    2
    49     5     6    1
    50    68    69    1
    51    42    41    1
    52    76    73    1
    53    72    73    1
    54    72    70   am
    55    69    70    1
    56     6     7    1
    57     7     8    1
    58    38    37    1
    59    39    37    1
    60    73    74    1
    61    70    71    2
    62    41    40    1
    63    37    36    1
    64    40    34   am
    65     8     9    1
    66    35    34    2
    67    74    75    2
    68    34    33    1
    69    36    33    1
    70    98    97    2
    71    33    32    1
    72    30    29    1
    73    91    89   ar
    74    97    99   am
    75    97    96    1
    76   106   105   ar
    77    31    29    1
    78    32    23   am
    79    29    28    2
    80    96    93    1
    81   107   105   ar
    82    84    85    1
    83    89    88    1
    84    89    90   ar
    85    88    85    1
    86   105   104    1
    87    24    23    2
    88    23    22    1
    89    85    86    1
    90    92    93    1
    91    28    27    1
    92    86    87    2
    93    26    27    1
    94    26    25    1
    95    93    94    1
    96   104   101    1
    97    22    25    1
    98    22    21    1
    99   100   101    1
   100   101   102    1
   101    94    95    2
   102   102   103    2
