@<TRIPOS>MOLECULE
tmp/3hyeN00.pdb
 123 115 0 0 0
SMALL
GASTEIGER

@<TRIPOS>ATOM
      1  N         43.7960 -143.5210   62.8440 N.3     1  THR1       -0.1218
      2  CA        43.5840 -142.4620   63.8710 C.3     1  THR1        0.1862
      3  C         42.6020 -142.8670   64.9430 C.2     1  THR1        0.2287
      4  O         41.5960 -143.5230   64.6740 O.2     1  THR1       -0.2866
      5  CB        43.0370 -141.1870   63.2540 C.3     1  THR1        0.1770
      6  OG1       44.0410 -140.5980   62.4150 O.3     1  THR1       -0.2211
      7  CG2       42.6420 -140.1760   64.3470 C.3     1  THR1        0.0375
      8  N         49.9230 -141.2360   65.2690 N.3    19  ARG19      -0.1231
      9  CA        50.3230 -141.8300   63.9990 C.3    19  ARG19       0.1694
     10  C         49.6690 -141.2740   62.7290 C.2    19  ARG19       0.2593
     11  O         48.4550 -141.0710   62.6770 O.2    19  ARG19      -0.2718
     12  CB        50.0860 -143.3420   64.0690 C.3    19  ARG19       0.0321
     13  CG        50.2470 -144.0880   62.7420 C.3    19  ARG19       0.0489
     14  CD        50.1220 -145.5920   62.9530 C.3    19  ARG19       0.2205
     15  NE        51.1890 -146.0800   63.8210 N.pl3  19  ARG19      -0.0865
     16  CZ        51.3900 -147.3550   64.1480 C.cat  19  ARG19       0.5346
     17  NH1       50.5910 -148.3070   63.6810 N.pl3  19  ARG19       0.1354
     18  NH2       52.4060 -147.6750   64.9390 N.pl3  19  ARG19       0.1354
     19  N         50.4900 -140.9880   61.7230 N.am   20  THR20      -0.1939
     20  CA        49.9700 -140.5540   60.4280 C.3    20  THR20       0.2028
     21  C         50.5710 -141.5490   59.4290 C.2    20  THR20       0.2643
     22  O         51.7820 -141.7860   59.4020 O.2    20  THR20      -0.2714
     23  CB        50.3880 -139.1130   60.0140 C.3    20  THR20       0.1808
     24  OG1       51.7670 -139.1000   59.6590 O.3    20  THR20      -0.2208
     25  CG2       50.1630 -138.1350   61.1320 C.3    20  THR20       0.0379
     26  N         49.7190 -142.1540   58.6220 N.am   21  THR21      -0.1936
     27  CA        50.1980 -143.1250   57.6540 C.3    21  THR21       0.2028
     28  C         49.8700 -142.7530   56.2260 C.2    21  THR21       0.2643
     29  O         48.9030 -142.0470   55.9510 O.2    21  THR21      -0.2714
     30  CB        49.5680 -144.4910   57.8720 C.3    21  THR21       0.1808
     31  OG1       48.1510 -144.3560   57.7480 O.3    21  THR21      -0.2208
     32  CG2       49.8930 -145.0300   59.2450 C.3    21  THR21       0.0379
     33  N         50.7150 -143.2360   55.3290 N.am   22  THR22      -0.1936
     34  CA        50.5250 -143.0840   53.8950 C.3    22  THR22       0.2028
     35  C         50.6510 -144.5500   53.4720 C.2    22  THR22       0.2642
     36  O         51.7400 -145.0500   53.1750 O.2    22  THR22      -0.2714
     37  CB        51.6150 -142.1990   53.2490 C.3    22  THR22       0.1808
     38  OG1       52.9030 -142.5690   53.7520 O.3    22  THR22      -0.2208
     39  CG2       51.3570 -140.7260   53.5650 C.3    22  THR22       0.0379
     40  N         49.5220 -145.2490   53.5160 N.am   23  GLY23      -0.1954
     41  CA        49.5320 -146.6570   53.1830 C.3    23  GLY23       0.1869
     42  C         49.9720 -147.4240   54.4140 C.2    23  GLY23       0.2309
     43  O         49.4390 -147.2090   55.5050 O.2    23  GLY23      -0.2863
     44  N         53.0600 -137.5080   65.7750 N.3    31  THR31      -0.1218
     45  CA        52.1340 -136.4690   65.3310 C.3    31  THR31       0.1862
     46  C         51.2990 -135.8860   66.4710 C.2    31  THR31       0.2287
     47  O         50.9680 -136.5830   67.4230 O.2    31  THR31      -0.2866
     48  CB        51.1650 -137.0380   64.2790 C.3    31  THR31       0.1770
     49  OG1       51.9190 -137.7270   63.2790 O.3    31  THR31      -0.2211
     50  CG2       50.3290 -135.9150   63.6340 C.3    31  THR31       0.0375
     51  N         47.8010 -134.5290   67.0440 N.3    33  LYS33      -0.1245
     52  CA        46.4580 -134.3820   66.5150 C.3    33  LYS33       0.1561
     53  C         45.5590 -133.5110   67.3810 C.2    33  LYS33       0.2260
     54  O         44.3690 -133.3520   67.0990 O.2    33  LYS33      -0.2867
     55  CB        45.8420 -135.7740   66.3320 C.3    33  LYS33       0.0271
     56  CG        46.7580 -136.7210   65.5630 C.3    33  LYS33       0.0035
     57  CD        46.0870 -138.0380   65.2540 C.3    33  LYS33       0.0206
     58  CE        47.0160 -138.9420   64.4660 C.3    33  LYS33       0.1093
     59  NZ        46.3840 -140.2480   64.1750 N.3    33  LYS33      -0.1314
     60  N         41.7310 -133.8970   65.5530 N.3    45  ARG45      -0.1231
     61  CA        41.6600 -134.0490   64.1070 C.3    45  ARG45       0.1694
     62  C         41.8100 -135.4790   63.5920 C.2    45  ARG45       0.2593
     63  O         42.6650 -136.2350   64.0510 O.2    45  ARG45      -0.2718
     64  CB        42.7240 -133.1680   63.4500 C.3    45  ARG45       0.0321
     65  CG        42.5520 -131.6830   63.7380 C.3    45  ARG45       0.0489
     66  CD        43.6050 -130.8270   63.0570 C.3    45  ARG45       0.2205
     67  NE        44.9330 -131.0520   63.6050 N.pl3  45  ARG45      -0.0865
     68  CZ        45.9280 -131.6410   62.9520 C.cat  45  ARG45       0.5346
     69  NH1       45.7500 -132.0810   61.7090 N.pl3  45  ARG45       0.1354
     70  NH2       47.1160 -131.7660   63.5350 N.pl3  45  ARG45       0.1354
     71  N         40.9550 -135.8390   62.6350 N.am   46  SER46      -0.1938
     72  CA        40.9850 -137.1510   61.9790 C.3    46  SER46       0.2055
     73  C         40.5700 -136.9410   60.5170 C.2    46  SER46       0.2644
     74  O         39.8970 -135.9540   60.1820 O.2    46  SER46      -0.2714
     75  CB        40.0440 -138.1560   62.6610 C.3    46  SER46       0.2130
     76  OG        38.6930 -137.9130   62.3400 O.3    46  SER46      -0.2179
     77  N         40.9830 -137.8670   59.6560 N.am   47  GLY47      -0.1939
     78  CA        40.6830 -137.7550   58.2470 C.3    47  GLY47       0.2014
     79  C         41.9300 -137.2510   57.5480 C.2    47  GLY47       0.2640
     80  O         43.0350 -137.7490   57.7810 O.2    47  GLY47      -0.2714
     81  N         41.7540 -136.2590   56.6850 N.am   48  SER48      -0.1935
     82  CA        42.8670 -135.6760   55.9540 C.3    48  SER48       0.2055
     83  C         43.6760 -134.7390   56.8570 C.2    48  SER48       0.2642
     84  O         43.1170 -133.8460   57.5060 O.2    48  SER48      -0.2714
     85  CB        42.3400 -134.8930   54.7480 C.3    48  SER48       0.2130
     86  OG        43.3530 -134.0690   54.2030 O.3    48  SER48      -0.2179
     87  N         44.9890 -134.9460   56.9010 N.am   49  ALA49      -0.1977
     88  CA        45.8510 -134.0940   57.7060 C.3    49  ALA49       0.1597
     89  C         45.8490 -132.7060   57.0730 C.2    49  ALA49       0.2287
     90  O         45.7180 -131.6980   57.7630 O.2    49  ALA49      -0.2864
     91  CB        47.2650 -134.6600   57.7450 C.3    49  ALA49       0.0319
     92  N         42.2470 -131.0520   57.6750 N.3    52  THR52      -0.1203
     93  CA        42.0290 -130.6310   59.0590 C.3    52  THR52       0.1994
     94  C         42.9290 -129.4680   59.4960 C.2    52  THR52       0.2617
     95  O         42.4910 -128.6190   60.2750 O.2    52  THR52      -0.2717
     96  CB        42.1550 -131.8200   60.0540 C.3    52  THR52       0.1784
     97  OG1       43.4860 -132.3560   60.0250 O.3    52  THR52      -0.2211
     98  CG2       41.1550 -132.9070   59.6860 C.3    52  THR52       0.0376
     99  N         44.1630 -129.4140   58.9940 N.am   53  GLN53      -0.1979
    100  CA        45.0630 -128.3090   59.3250 C.3    53  GLN53       0.1601
    101  C         44.4820 -127.0200   58.7350 C.2    53  GLN53       0.2287
    102  O         44.2900 -126.0230   59.4470 O.2    53  GLN53      -0.2864
    103  CB        46.4790 -128.5460   58.7660 C.3    53  GLN53       0.0394
    104  CG        47.3020 -129.5560   59.5560 C.3    53  GLN53       0.0908
    105  CD        48.7110 -129.7860   58.9840 C.2    53  GLN53       0.2608
    106  OE1       49.2770 -128.9160   58.3150 O.2    53  GLN53      -0.2717
    107  NE2       49.2880 -130.9580   59.2710 N.am   53  GLN53      -0.0878
    108  N         37.7440 -141.5500   64.4540 N.3   128  GLY128     -0.1210
    109  CA        38.9420 -142.0940   63.8500 C.3   128  GLY128      0.1956
    110  C         38.7480 -143.5800   63.6350 C.2   128  GLY128      0.2612
    111  O         37.9560 -144.2250   64.3360 O.2   128  GLY128     -0.2717
    112  N         39.4630 -144.1330   62.6620 N.am  129  SER129     -0.1952
    113  CA        39.3420 -145.5460   62.3570 C.3   129  SER129      0.1924
    114  C         39.4030 -146.4130   63.6140 C.2   129  SER129      0.2314
    115  O         38.6170 -147.3590   63.7560 O.2   129  SER129     -0.2863
    116  CB        40.4400 -145.9540   61.3790 C.3   129  SER129      0.2116
    117  OG        41.7050 -145.4780   61.8050 O.3   129  SER129     -0.2180
    118  N         46.1750 -148.3210   61.9740 N.3   168  SER168     -0.1217
    119  CA        46.2550 -146.9100   61.6190 C.3   168  SER168      0.1889
    120  C         46.4840 -146.0300   62.8450 C.2   168  SER168      0.2288
    121  O         46.6780 -144.8240   62.7240 O.2   168  SER168     -0.2866
    122  CB        44.9770 -146.4700   60.8950 C.3   168  SER168      0.2089
    123  OG        44.8430 -147.1500   59.6610 O.3   168  SER168     -0.2183
@<TRIPOS>BOND
     1    36    35    2
     2    41    40    1
     3    41    42    1
     4    37    39    1
     5    37    38    1
     6    37    34    1
     7    35    40   am
     8    35    34    1
     9    34    33    1
    10    86    85    1
    11    42    43    2
    12    85    82    1
    13    33    28   am
    14    29    28    2
    15    82    81    1
    16    82    83    1
    17    28    27    1
    18    81    79   am
    19    83    87   am
    20    83    84    2
    21    87    88    1
    22    89    88    1
    23    89    90    2
    24    79    80    2
    25    79    78    1
    26    27    30    1
    27    27    26    1
    28    92    93    1
    29    88    91    1
    30    31    30    1
    31    30    32    1
    32    78    77    1
    33   106   105    2
    34    26    21   am
    35   101   100    1
    36   101   102    2
    37   103   100    1
    38   103   104    1
    39   105   107   am
    40   105   104    1
    41    99   100    1
    42    99    94   am
    43    93    94    1
    44    93    96    1
    45    22    21    2
    46    21    20    1
    47    94    95    2
    48    77    73   am
    49    24    23    1
    50   123   122    1
    51    98    96    1
    52    23    20    1
    53    23    25    1
    54    97    96    1
    55    74    73    2
    56    20    19    1
    57    73    72    1
    58   122   119    1
    59   116   117    1
    60   116   113    1
    61   119   118    1
    62   119   120    1
    63    69    68    1
    64    19    10   am
    65    72    71    1
    66    72    75    1
    67    76    75    1
    68   113   112    1
    69   113   114    1
    70     6     5    1
    71    71    62   am
    72   112   110   am
    73    11    10    2
    74   121   120    2
    75    10     9    1
    76    13    14    1
    77    13    12    1
    78     1     2    1
    79    68    70    1
    80    68    67    2
    81    14    15    1
    82    66    67    1
    83    66    65    1
    84     5     2    1
    85     5     7    1
    86    49    48    1
    87    64    65    1
    88    64    61    1
    89    62    63    2
    90    62    61    1
    91   114   115    2
    92    50    48    1
    93   110   109    1
    94   110   111    2
    95    17    16    1
    96    15    16    2
    97   109   108    1
    98     2     3    1
    99     9    12    1
   100     9     8    1
   101    61    60    1
   102    16    18    1
   103    59    58    1
   104    48    45    1
   105    58    57    1
   106     4     3    2
   107    57    56    1
   108    45    44    1
   109    45    46    1
   110    56    55    1
   111    55    52    1
   112    46    47    2
   113    52    51    1
   114    52    53    1
   115    54    53    2
