@<TRIPOS>MOLECULE
tmp/3hyeV00.pdb
 111 103 0 0 0
SMALL
GASTEIGER

@<TRIPOS>ATOM
      1  N          4.7540 -159.7120   43.6610 N.3     1  THR1       -0.1218
      2  CA         4.2830 -160.9780   44.2860 C.3     1  THR1        0.1862
      3  C          4.2130 -160.8840   45.7900 C.2     1  THR1        0.2287
      4  O          5.0710 -160.2670   46.4300 O.2     1  THR1       -0.2866
      5  CB         5.2090 -162.1620   43.9910 C.3     1  THR1        0.1770
      6  OG1        5.1100 -162.5130   42.6160 O.3     1  THR1       -0.2211
      7  CG2        4.8340 -163.3720   44.8400 C.3     1  THR1        0.0375
      8  N         -1.1760 -162.1100   40.5620 N.3    19  ARG19      -0.1231
      9  CA        -0.6510 -161.2730   39.4860 C.3    19  ARG19       0.1694
     10  C          0.7230 -161.7180   38.9850 C.2    19  ARG19       0.2593
     11  O          1.6160 -162.0280   39.7690 O.2    19  ARG19      -0.2718
     12  CB        -0.5630 -159.8060   39.9320 C.3    19  ARG19       0.0321
     13  CG         0.1860 -158.8980   38.9370 C.3    19  ARG19       0.0489
     14  CD         0.1860 -157.4430   39.3800 C.3    19  ARG19       0.2205
     15  NE        -1.1740 -156.9140   39.4760 N.pl3  19  ARG19      -0.0865
     16  CZ        -1.4730 -155.6710   39.8300 C.cat  19  ARG19       0.5346
     17  NH1       -0.5040 -154.8140   40.1240 N.pl3  19  ARG19       0.1354
     18  NH2       -2.7410 -155.2920   39.8970 N.pl3  19  ARG19       0.1354
     19  N          0.8770 -161.7340   37.6660 N.am   20  SER20      -0.1938
     20  CA         2.1320 -162.1060   37.0200 C.3    20  SER20       0.2055
     21  C          2.5230 -160.9080   36.1420 C.2    20  SER20       0.2643
     22  O          1.7210 -160.4480   35.3300 O.2    20  SER20      -0.2714
     23  CB         1.9150 -163.3570   36.1670 C.3    20  SER20       0.2130
     24  OG         3.1450 -163.8770   35.6970 O.3    20  SER20      -0.2179
     25  N          3.7360 -160.3890   36.2980 N.am   21  THR21      -0.1950
     26  CA         4.1210 -159.2250   35.5120 C.3    21  THR21       0.1897
     27  C          5.3160 -159.3660   34.5840 C.2    21  THR21       0.2313
     28  O          6.1690 -160.2200   34.7730 O.2    21  THR21      -0.2863
     29  CB         4.4140 -158.0150   36.4200 C.3    21  THR21       0.1794
     30  OG1        5.5840 -158.2740   37.2010 O.3    21  THR21      -0.2208
     31  CG2        3.2450 -157.7380   37.3380 C.3    21  THR21       0.0378
     32  N          7.6680 -156.5540   33.5160 N.3    23  GLY23      -0.1225
     33  CA         7.9630 -155.1480   33.6220 C.3    23  GLY23       0.1811
     34  C          6.7390 -154.5410   34.2660 C.2    23  GLY23       0.2280
     35  O          6.2510 -155.0890   35.2530 O.2    23  GLY23      -0.2866
     36  N         -2.7040 -165.8840   37.6490 N.3    31  CYS31      -0.1221
     37  CA        -1.7950 -167.0190   37.6070 C.3    31  CYS31       0.1808
     38  C         -1.8940 -167.7520   38.9450 C.2    31  CYS31       0.2601
     39  O         -2.5070 -167.2610   39.8920 O.2    31  CYS31      -0.2717
     40  CB        -0.3540 -166.5620   37.3710 C.3    31  CYS31       0.0970
     41  SG         0.4140 -165.7360   38.7850 S.3    31  CYS31      -0.0800
     42  N         -1.2910 -168.9310   39.0170 N.am   32  ALA32      -0.1965
     43  CA        -1.3280 -169.7190   40.2380 C.3    32  ALA32       0.1728
     44  C          0.0760 -169.8570   40.7910 C.2    32  ALA32       0.2616
     45  O          0.9290 -170.5090   40.1870 O.2    32  ALA32      -0.2715
     46  CB        -1.9130 -171.0860   39.9570 C.3    32  ALA32       0.0334
     47  N          0.3150 -169.2460   41.9460 N.am   33  LYS33      -0.1977
     48  CA         1.6330 -169.3040   42.5580 C.3    33  LYS33       0.1596
     49  C          1.7770 -170.4350   43.5770 C.2    33  LYS33       0.2287
     50  O          2.8690 -170.6920   44.0790 O.2    33  LYS33      -0.2864
     51  CB         1.9580 -167.9460   43.1810 C.3    33  LYS33       0.0298
     52  CG         1.9110 -166.8440   42.1470 C.3    33  LYS33       0.0038
     53  CD         2.2050 -165.4720   42.7140 C.3    33  LYS33       0.0206
     54  CE         1.9590 -164.4180   41.6480 C.3    33  LYS33       0.1093
     55  NZ         2.0570 -163.0510   42.1840 N.3    33  LYS33      -0.1314
     56  N          1.9950 -174.2040   44.3510 N.3    35  HIS35      -0.1241
     57  CA         2.3650 -175.4450   43.6810 C.3    35  HIS35       0.1621
     58  C          2.2990 -176.6210   44.6350 C.2    35  HIS35       0.2264
     59  O          2.4890 -176.4710   45.8380 O.2    35  HIS35      -0.2867
     60  CB         3.8000 -175.3690   43.1580 C.3    35  HIS35       0.0745
     61  CG         4.0870 -174.1600   42.3270 C.ar   35  HIS35       0.0817
     62  ND1        3.5410 -173.9660   41.0770 N.ar   35  HIS35      -0.2268
     63  CD2        4.8820 -173.0890   42.5620 C.ar   35  HIS35       0.1154
     64  CE1        3.9910 -172.8300   40.5740 C.ar   35  HIS35       0.1986
     65  NE2        4.8060 -172.2780   41.4550 N.ar   35  HIS35      -0.2212
     66  N          5.4690 -169.8350   45.3570 N.3    45  GLY45      -0.1210
     67  CA         6.6580 -169.3200   44.7010 C.3    45  GLY45       0.1956
     68  C          6.6580 -167.8730   44.2450 C.2    45  GLY45       0.2612
     69  O          5.6670 -167.3550   43.7480 O.2    45  GLY45      -0.2717
     70  N          7.8070 -167.2300   44.4130 N.am   46  ALA46      -0.1965
     71  CA         8.0140 -165.8420   44.0280 C.3    46  ALA46       0.1728
     72  C          9.3110 -165.7890   43.2210 C.2    46  ALA46       0.2617
     73  O         10.1140 -166.7230   43.2790 O.2    46  ALA46      -0.2715
     74  CB         8.1290 -164.9740   45.2700 C.3    46  ALA46       0.0334
     75  N          9.5200 -164.7040   42.4760 N.am   47  GLY47      -0.1940
     76  CA        10.7180 -164.5850   41.6620 C.3    47  GLY47       0.2014
     77  C         10.4330 -164.9400   40.2130 C.2    47  GLY47       0.2640
     78  O          9.4050 -164.5460   39.6770 O.2    47  GLY47      -0.2714
     79  N         11.3340 -165.6800   39.5750 N.am   48  THR48      -0.1936
     80  CA        11.1650 -166.0850   38.1770 C.3    48  THR48       0.2028
     81  C         10.1800 -167.2540   38.0550 C.2    48  THR48       0.2642
     82  O         10.4950 -168.3850   38.4150 O.2    48  THR48      -0.2714
     83  CB        12.5060 -166.5130   37.5710 C.3    48  THR48       0.1808
     84  OG1       13.4980 -165.5130   37.8540 O.3    48  THR48      -0.2208
     85  CG2       12.3770 -166.6950   36.0790 C.3    48  THR48       0.0379
     86  N          8.9930 -166.9680   37.5350 N.am   49  ALA49      -0.1977
     87  CA         7.9250 -167.9520   37.3750 C.3    49  ALA49       0.1597
     88  C          8.3120 -169.2920   36.7490 C.2    49  ALA49       0.2287
     89  O          7.9220 -170.3470   37.2500 O.2    49  ALA49      -0.2864
     90  CB         6.7950 -167.3290   36.5810 C.3    49  ALA49       0.0319
     91  N         10.2770 -171.1470   39.5800 N.3    52  THR52      -0.1218
     92  CA         9.5380 -171.6870   40.7130 C.3    52  THR52       0.1862
     93  C          8.7380 -172.9050   40.2700 C.2    52  THR52       0.2287
     94  O          8.6200 -173.8890   41.0040 O.2    52  THR52      -0.2866
     95  CB         8.5700 -170.6590   41.3210 C.3    52  THR52       0.1770
     96  OG1        7.5620 -170.3050   40.3610 O.3    52  THR52      -0.2211
     97  CG2        9.3290 -169.4220   41.7580 C.3    52  THR52       0.0375
     98  N          8.5710 -161.9010   48.2180 N.3   128  GLY128     -0.1210
     99  CA         8.0820 -161.1410   47.0790 C.3   128  GLY128      0.1956
    100  C          8.0860 -159.6440   47.3040 C.2   128  GLY128      0.2612
    101  O          8.3640 -159.1800   48.4040 O.2   128  GLY128     -0.2717
    102  N          7.7730 -158.8780   46.2650 N.am  129  SER129     -0.1952
    103  CA         7.7490 -157.4330   46.4060 C.3   129  SER129      0.1924
    104  C          6.6990 -157.0120   47.4320 C.2   129  SER129      0.2314
    105  O          6.8670 -155.9800   48.0970 O.2   129  SER129     -0.2863
    106  CB         7.4910 -156.7740   45.0550 C.3   129  SER129      0.2116
    107  OG         6.4580 -157.4360   44.3570 O.3   129  SER129     -0.2180
    108  N          3.4390 -154.6740   42.5630 N.3   168  GLY168     -0.1225
    109  CA         3.8690 -155.9490   42.0210 C.3   168  GLY168      0.1811
    110  C          2.8740 -157.0530   42.3080 C.2   168  GLY168      0.2280
    111  O          3.0300 -158.1800   41.8400 O.2   168  GLY168     -0.2866
@<TRIPOS>BOND
     1    32    33    1
     2    33    34    1
     3    34    35    2
     4    27    28    2
     5    27    26    1
     6    22    21    2
     7    26    25    1
     8    26    29    1
     9    24    23    1
    10    85    83    1
    11    21    25   am
    12    21    20    1
    13    23    20    1
    14    29    30    1
    15    29    31    1
    16    90    87    1
    17    88    89    2
    18    88    87    1
    19    20    19    1
    20    40    37    1
    21    40    41    1
    22    87    86    1
    23    86    81   am
    24    83    84    1
    25    83    80    1
    26    37    36    1
    27    37    38    1
    28    19    10   am
    29    81    80    1
    30    81    82    2
    31    80    79    1
    32    13    14    1
    33    13    12    1
    34    38    42   am
    35    38    39    2
    36    10     9    1
    37    10    11    2
    38    42    43    1
    39    14    15    1
    40    15    16    2
    41     9    12    1
    42     9     8    1
    43    79    77   am
    44    91    92    1
    45    78    77    2
    46    16    18    1
    47    16    17    1
    48    46    43    1
    49    45    44    2
    50    77    76    1
    51    43    44    1
    52    93    92    1
    53    93    94    2
    54    96    95    1
    55    64    62   ar
    56    64    65   ar
    57    92    95    1
    58    44    47   am
    59    62    61   ar
    60    95    97    1
    61    65    63   ar
    62    54    55    1
    63    54    53    1
    64    76    75    1
    65   111   110    2
    66    47    48    1
    67   109   110    1
    68   109   108    1
    69    52    53    1
    70    52    51    1
    71    61    63   ar
    72    61    60    1
    73    75    72   am
    74    48    51    1
    75    48    49    1
    76     6     5    1
    77    60    57    1
    78    72    73    2
    79    72    71    1
    80    49    50    2
    81     1     2    1
    82    57    56    1
    83    57    58    1
    84    69    68    2
    85     5     2    1
    86     5     7    1
    87    71    70    1
    88    71    74    1
    89    68    70   am
    90    68    67    1
    91     2     3    1
    92   107   106    1
    93    58    59    2
    94    67    66    1
    95   106   103    1
    96     3     4    2
    97   102   103    1
    98   102   100   am
    99   103   104    1
   100    99   100    1
   101    99    98    1
   102   100   101    2
   103   104   105    2
