@<TRIPOS>MOLECULE
tmp/3hyfA00.pdb
 95 89 0 0 0
SMALL
GASTEIGER

@<TRIPOS>ATOM
      1  N          3.9540   56.9150   22.6150 N.3    18  ASP18      -0.1225
      2  CA         3.3050   56.0100   23.5600 C.3    18  ASP18       0.1805
      3  C          1.8130   56.0480   23.3400 C.2    18  ASP18       0.2598
      4  O          1.3030   56.9280   22.6480 O.2    18  ASP18      -0.2718
      5  CB         3.6170   56.4160   25.0020 C.3    18  ASP18       0.1424
      6  CG         3.3930   55.2700   25.9930 C.2    18  ASP18       0.3668
      7  OD1        3.3650   54.1020   25.5640 O.co2  18  ASP18      -0.2456
      8  OD2        3.2350   55.5520   27.1930 O.co2  18  ASP18      -0.2456
      9  N          1.1250   55.0740   23.9180 N.am   19  GLY19      -0.1957
     10  CA        -0.3220   55.0720   23.8650 C.3    19  GLY19       0.1869
     11  C         -0.8600   54.5300   25.1690 C.2    19  GLY19       0.2309
     12  O         -0.1470   53.8470   25.9070 O.2    19  GLY19      -0.2863
     13  N         -0.4960   52.0700   20.6270 N.3    53  GLU53      -0.1245
     14  CA         0.9560   52.1020   20.4170 C.3    53  GLU53       0.1567
     15  C          1.3030   52.1230   18.9350 C.2    53  GLU53       0.2260
     16  O          2.2230   52.8310   18.5210 O.2    53  GLU53      -0.2867
     17  CB         1.6360   50.8930   21.0670 C.3    53  GLU53       0.0388
     18  CG         1.4310   50.7900   22.5630 C.3    53  GLU53       0.1160
     19  CD         2.4010   51.6220   23.3860 C.2    53  GLU53       0.3649
     20  OE1        2.3150   51.5350   24.6270 O.co2  53  GLU53      -0.2457
     21  OE2        3.2410   52.3610   22.8190 O.co2  53  GLU53      -0.2457
     22  N          8.2300   52.2930   23.8010 N.3    73  ASP73      -0.1225
     23  CA         8.3850   51.3630   24.9170 C.3    73  ASP73       0.1805
     24  C          7.5060   50.1270   24.7580 C.2    73  ASP73       0.2598
     25  O          7.3880   49.3140   25.6800 O.2    73  ASP73      -0.2718
     26  CB         8.1180   52.0600   26.2730 C.3    73  ASP73       0.1424
     27  CG         6.6850   52.5590   26.4270 C.2    73  ASP73       0.3668
     28  OD1        6.4590   53.4820   27.2320 O.co2  73  ASP73      -0.2456
     29  OD2        5.7870   52.0340   25.7520 O.co2  73  ASP73      -0.2456
     30  N          6.9210   49.9720   23.5730 N.am   74  SER74      -0.1938
     31  CA         6.0080   48.8670   23.3110 C.3    74  SER74       0.2055
     32  C          6.7170   47.6470   22.7400 C.2    74  SER74       0.2642
     33  O          7.1460   47.6470   21.5860 O.2    74  SER74      -0.2714
     34  CB         4.9160   49.3060   22.3370 C.3    74  SER74       0.2130
     35  OG         4.0450   48.2270   22.0580 O.3    74  SER74      -0.2179
     36  N          6.8140   46.5910   23.5400 N.am   75  GLN75      -0.1976
     37  CA         7.4090   45.3500   23.0560 C.3    75  GLN75       0.1601
     38  C          6.5930   44.7880   21.9020 C.2    75  GLN75       0.2287
     39  O          7.1530   44.2790   20.9360 O.2    75  GLN75      -0.2864
     40  CB         7.4920   44.3210   24.1850 C.3    75  GLN75       0.0394
     41  CG         8.4620   44.7160   25.2860 C.3    75  GLN75       0.0908
     42  CD         8.4630   43.7160   26.4230 C.2    75  GLN75       0.2608
     43  OE1        7.4450   43.5070   27.0780 O.2    75  GLN75      -0.2717
     44  NE2        9.6080   43.0870   26.6550 N.am   75  GLN75      -0.0878
     45  N          9.4400   51.0820   29.7860 N.3   121  ALA121     -0.1231
     46  CA         8.4770   52.0450   30.3120 C.3   121  ALA121      0.1694
     47  C          8.7220   52.3410   31.7930 C.2   121  ALA121      0.2592
     48  O          9.1180   51.4510   32.5510 O.2   121  ALA121     -0.2718
     49  CB         7.0630   51.5060   30.1260 C.3   121  ALA121      0.0304
     50  N          8.4620   53.5850   32.1890 N.am  122  HIS122     -0.1962
     51  CA         8.5010   53.9990   33.5870 C.3   122  HIS122      0.1787
     52  C          9.8550   53.7580   34.2380 C.2   122  HIS122      0.2620
     53  O          9.9450   53.3020   35.3820 O.2   122  HIS122     -0.2715
     54  CB         7.3860   53.2900   34.3500 C.3   122  HIS122      0.0785
     55  CG         6.0250   53.6220   33.8260 C.ar  122  HIS122      0.0821
     56  ND1        5.4510   54.8640   33.9980 N.ar  122  HIS122     -0.2267
     57  CD2        5.1660   52.9140   33.0530 C.ar  122  HIS122      0.1154
     58  CE1        4.3000   54.9070   33.3510 C.ar  122  HIS122      0.1986
     59  NE2        4.1030   53.7380   32.7680 N.ar  122  HIS122     -0.2212
     60  N         10.9100   54.0680   33.4930 N.am  123  LYS123     -0.1977
     61  CA        12.2670   53.9360   34.0010 C.3   123  LYS123      0.1596
     62  C         13.0010   55.2640   33.9040 C.2   123  LYS123      0.2287
     63  O         14.2270   55.3000   33.8650 O.2   123  LYS123     -0.2864
     64  CB        13.0260   52.8640   33.2220 C.3   123  LYS123      0.0298
     65  CG        12.6060   51.4360   33.5500 C.3   123  LYS123      0.0038
     66  CD        13.0410   51.0520   34.9560 C.3   123  LYS123      0.0206
     67  CE        11.8510   50.7020   35.8360 C.3   123  LYS123      0.1093
     68  NZ        11.1600   49.4720   35.3720 N.3   123  LYS123     -0.1314
     69  N          4.2380   59.4640   27.9780 N.3   132  ASP132     -0.1239
     70  CA         3.3510   58.6180   28.7660 C.3   132  ASP132      0.1674
     71  C          2.3730   59.4490   29.5970 C.2   132  ASP132      0.2266
     72  O          1.1940   59.1060   29.6990 O.2   132  ASP132     -0.2867
     73  CB         4.1490   57.6920   29.6880 C.3   132  ASP132      0.1410
     74  CG         3.2630   56.9680   30.6860 C.2   132  ASP132      0.3668
     75  OD1        3.1040   57.4700   31.8230 O.co2 132  ASP132     -0.2456
     76  OD2        2.7180   55.9010   30.3390 O.co2 132  ASP132     -0.2456
     77  N         -5.6690   56.6810   32.1280 N.3   140  ARG140     -0.1245
     78  CA        -5.1900   55.7430   33.1270 C.3   140  ARG140      0.1563
     79  C         -5.3240   56.3580   34.5050 C.2   140  ARG140      0.2260
     80  O         -4.6990   57.3770   34.8100 O.2   140  ARG140     -0.2867
     81  CB        -3.7250   55.3610   32.8660 C.3   140  ARG140      0.0307
     82  CG        -3.2000   54.2660   33.8000 C.3   140  ARG140      0.0489
     83  CD        -1.7270   53.9630   33.5440 C.3   140  ARG140      0.2205
     84  NE        -0.8690   55.0970   33.8840 N.pl3 140  ARG140     -0.0865
     85  CZ         0.1940   55.4670   33.1750 C.cat 140  ARG140      0.5346
     86  NH1        0.5360   54.7920   32.0870 N.pl3 140  ARG140      0.1354
     87  NH2        0.9050   56.5200   33.5430 N.pl3 140  ARG140      0.1354
     88  N         -0.8570   54.5860   38.0880 N.3   143  LEU143     -0.1245
     89  CA         0.1370   53.6850   37.5220 C.3   143  LEU143      0.1561
     90  C          0.1850   52.3700   38.2960 C.2   143  LEU143      0.2260
     91  O         -0.2750   52.3560   39.4590 O.2   143  LEU143     -0.2867
     92  CB         1.5150   54.3530   37.5410 C.3   143  LEU143      0.0270
     93  CG         2.6450   53.5770   36.8620 C.3   143  LEU143      0.0019
     94  CD1        2.2390   53.2530   35.4400 C.3   143  LEU143      0.0001
     95  CD2        3.9240   54.3930   36.8860 C.3   143  LEU143      0.0001
@<TRIPOS>BOND
     1    16    15    2
     2    15    14    1
     3    14    13    1
     4    14    17    1
     5    39    38    2
     6    17    18    1
     7    33    32    2
     8    38    37    1
     9    35    34    1
    10    34    31    1
    11    18    19    1
    12     1     2    1
    13     4     3    2
    14    32    31    1
    15    32    36   am
    16    21    19   ar
    17    37    36    1
    18    37    40    1
    19    31    30    1
    20     3     2    1
    21     3     9   am
    22    19    20   ar
    23     2     5    1
    24    30    24   am
    25    22    23    1
    26    10     9    1
    27    10    11    1
    28    40    41    1
    29    24    23    1
    30    24    25    2
    31    23    26    1
    32     5     6    1
    33    11    12    2
    34    41    42    1
    35     7     6   ar
    36    29    27   ar
    37     6     8   ar
    38    26    27    1
    39    42    44   am
    40    42    43    2
    41    27    28   ar
    42    69    70    1
    43    70    71    1
    44    70    73    1
    45    71    72    2
    46    73    74    1
    47    45    46    1
    48    49    46    1
    49    46    47    1
    50    76    74   ar
    51    74    75   ar
    52    47    50   am
    53    47    48    2
    54    86    85    1
    55    77    78    1
    56    50    51    1
    57    59    57   ar
    58    59    58   ar
    59    81    78    1
    60    81    82    1
    61    57    55   ar
    62    78    79    1
    63    85    87    1
    64    85    84    2
    65    64    65    1
    66    64    61    1
    67    58    56   ar
    68    60    61    1
    69    60    52   am
    70    83    82    1
    71    83    84    1
    72    65    66    1
    73    51    52    1
    74    51    54    1
    75    55    56   ar
    76    55    54    1
    77    63    62    2
    78    62    61    1
    79    52    53    2
    80    79    80    2
    81    66    67    1
    82    68    67    1
    83    94    93    1
    84    93    95    1
    85    93    92    1
    86    89    92    1
    87    89    88    1
    88    89    90    1
    89    90    91    2
