@<TRIPOS>MOLECULE
tmp/3hykA00.pdb
 115 112 0 0 0
SMALL
GASTEIGER

@<TRIPOS>ATOM
      1  N         66.2480   21.2770   12.9240 N.3    41  ARG41      -0.1245
      2  CA        66.3960   21.5650   11.5180 C.3    41  ARG41       0.1563
      3  C         67.6000   20.8120   10.9340 C.2    41  ARG41       0.2260
      4  O         67.5090   20.2190    9.8520 O.2    41  ARG41      -0.2867
      5  CB        66.4700   23.0820   11.3010 C.3    41  ARG41       0.0307
      6  CG        66.6360   23.4960    9.8610 C.3    41  ARG41       0.0489
      7  CD        65.6770   22.7450    8.9390 C.3    41  ARG41       0.2205
      8  NE        66.0380   22.9730    7.5420 N.pl3  41  ARG41      -0.0865
      9  CZ        65.6410   22.2340    6.5160 C.cat  41  ARG41       0.5346
     10  NH1       64.8760   21.1620    6.6980 N.pl3  41  ARG41       0.1354
     11  NH2       66.0620   22.5520    5.3010 N.pl3  41  ARG41       0.1354
     12  N         66.6140   17.0040   10.8550 N.3    44  GLU44      -0.1231
     13  CA        65.6790   16.6530    9.7870 C.3    44  GLU44       0.1699
     14  C         66.3790   16.7910    8.4310 C.2    44  GLU44       0.2592
     15  O         66.1690   15.9830    7.5430 O.2    44  GLU44      -0.2718
     16  CB        64.3750   17.4750    9.8560 C.3    44  GLU44       0.0402
     17  CG        64.5140   18.9370    9.4730 C.3    44  GLU44       0.1161
     18  CD        63.2120   19.7260    9.6100 C.2    44  GLU44       0.3649
     19  OE1       62.2870   19.2380   10.2890 O.co2  44  GLU44      -0.2457
     20  OE2       63.1200   20.8460    9.0540 O.co2  44  GLU44      -0.2457
     21  N         67.2520   17.7770    8.2970 N.am   45  PHE45      -0.1976
     22  CA        67.9720   17.9870    7.0410 C.3    45  PHE45       0.1639
     23  C         68.8750   16.8060    6.6960 C.2    45  PHE45       0.2290
     24  O         68.8860   16.3190    5.5550 O.2    45  PHE45      -0.2864
     25  CB        68.7900   19.2720    7.1160 C.3    45  PHE45       0.0560
     26  CG        69.6000   19.5330    5.9000 C.ar   45  PHE45      -0.0200
     27  CD1       69.0280   20.1050    4.7800 C.ar   45  PHE45      -0.0042
     28  CD2       70.9370   19.2260    5.8670 C.ar   45  PHE45      -0.0042
     29  CE1       69.7710   20.3530    3.6520 C.ar   45  PHE45      -0.0003
     30  CE2       71.6850   19.4840    4.7310 C.ar   45  PHE45      -0.0003
     31  CZ        71.0970   20.0480    3.6290 C.ar   45  PHE45      -0.0000
     32  N         66.6840   13.7330    5.8470 N.3    48  GLY48      -0.1210
     33  CA        66.0870   13.8200    4.5260 C.3    48  GLY48       0.1956
     34  C         67.0850   13.4890    3.4570 C.2    48  GLY48       0.2611
     35  O         66.7560   12.8340    2.4790 O.2    48  GLY48      -0.2717
     36  N         68.3150   13.9380    3.6430 N.am   49  ARG49      -0.1979
     37  CA        69.3630   13.6360    2.6890 C.3    49  ARG49       0.1597
     38  C         69.6790   12.1710    2.6760 C.2    49  ARG49       0.2287
     39  O         69.8210   11.5650    1.6020 O.2    49  ARG49      -0.2864
     40  CB        70.6170   14.4570    2.9600 C.3    49  ARG49       0.0334
     41  CG        70.7010   15.7270    2.1470 C.3    49  ARG49       0.0492
     42  CD        69.4230   16.5410    2.1610 C.3    49  ARG49       0.2205
     43  NE        69.5120   17.6830    1.2540 N.pl3  49  ARG49      -0.0865
     44  CZ        68.5040   18.4980    0.9800 C.cat  49  ARG49       0.5346
     45  NH1       67.3220   18.2930    1.5380 N.pl3  49  ARG49       0.1354
     46  NH2       68.6740   19.5120    0.1370 N.pl3  49  ARG49       0.1354
     47  N         68.2670   22.0860   -2.9400 N.3    77  ASN77      -0.1240
     48  CA        66.9280   22.6340   -3.0850 C.3    77  ASN77       0.1653
     49  C         66.9740   23.7600   -4.1120 C.2    77  ASN77       0.2266
     50  O         67.9470   24.5170   -4.1520 O.2    77  ASN77      -0.2867
     51  CB        66.4670   23.1790   -1.7420 C.3    77  ASN77       0.1155
     52  CG        66.3940   22.0930   -0.6770 C.2    77  ASN77       0.2627
     53  OD1       67.3510   21.8780    0.0480 O.2    77  ASN77      -0.2716
     54  ND2       65.2950   21.3490   -0.6490 N.am   77  ASN77      -0.0877
     55  N         62.5780   27.4420   -5.1200 N.3    80  ARG80      -0.1231
     56  CA        61.2610   27.3000   -4.5250 C.3    80  ARG80       0.1694
     57  C         61.3200   26.3410   -3.3380 C.2    80  ARG80       0.2593
     58  O         60.3280   26.1540   -2.6450 O.2    80  ARG80      -0.2718
     59  CB        60.2590   26.7890   -5.5630 C.3    80  ARG80       0.0321
     60  CG        60.0780   27.6850   -6.8170 C.3    80  ARG80       0.0489
     61  CD        59.6430   29.1070   -6.4530 C.3    80  ARG80       0.2205
     62  NE        58.4000   29.1430   -5.6780 N.pl3  80  ARG80      -0.0865
     63  CZ        57.1800   29.3910   -6.1600 C.cat  80  ARG80       0.5346
     64  NH1       56.9780   29.6550   -7.4390 N.pl3  80  ARG80       0.1354
     65  NH2       56.1420   29.3880   -5.3370 N.pl3  80  ARG80       0.1354
     66  N         62.4900   25.7290   -3.1230 N.am   81  GLY81      -0.1942
     67  CA        62.7040   24.7840   -2.0310 C.3    81  GLY81       0.2014
     68  C         62.5860   23.3420   -2.4730 C.2    81  GLY81       0.2639
     69  O         62.7720   22.4230   -1.6610 O.2    81  GLY81      -0.2714
     70  N         62.2780   23.1240   -3.7510 N.am   82  LYS82      -0.1963
     71  CA        62.1490   21.7620   -4.2620 C.3    82  LYS82       0.1713
     72  C         63.4940   21.0410   -4.2760 C.2    82  LYS82       0.2458
     73  O         64.4630   21.5590   -4.8320 O.2    82  LYS82      -0.2730
     74  CB        61.5440   21.7350   -5.6690 C.3    82  LYS82       0.0311
     75  CG        61.5700   20.3450   -6.3300 C.3    82  LYS82       0.0038
     76  CD        60.7010   20.2820   -7.5680 C.3    82  LYS82       0.0206
     77  CE        61.1400   21.2650   -8.6680 C.3    82  LYS82       0.1093
     78  NZ        60.0960   21.4450   -9.7610 N.3    82  LYS82      -0.1314
     79  N         63.5510   19.8310   -3.6730 N.am   83  PRO83      -0.2727
     80  CA        64.7880   19.0290   -3.6410 C.3    83  PRO83       0.1402
     81  C         65.1680   18.4610   -5.0110 C.2    83  PRO83       0.2269
     82  O         64.3460   17.8080   -5.6510 O.2    83  PRO83      -0.2865
     83  CB        64.4280   17.8790   -2.7080 C.3    83  PRO83       0.0296
     84  CG        62.9490   17.7340   -2.8330 C.3    83  PRO83       0.0237
     85  CD        62.4370   19.1390   -2.9880 C.3    83  PRO83       0.0939
     86  N         61.1660   13.5080   -3.7890 N.3    96  SER96      -0.1202
     87  CA        60.3520   14.2650   -2.8520 C.3    96  SER96       0.2020
     88  C         60.7720   13.8290   -1.4520 C.2    96  SER96       0.2619
     89  O         61.1600   12.6680   -1.2420 O.2    96  SER96      -0.2717
     90  CB        58.8660   14.0330   -3.0540 C.3    96  SER96       0.2103
     91  OG        58.1180   14.9140   -2.2210 O.3    96  SER96      -0.2182
     92  N         60.7300   14.7790   -0.5220 N.am   97  ILE97      -0.1965
     93  CA        61.0780   14.5620    0.8760 C.3    97  ILE97       0.1727
     94  C         59.9930   15.1670    1.7680 C.2    97  ILE97       0.2617
     95  O         59.3050   16.1020    1.3720 O.2    97  ILE97      -0.2715
     96  CB        62.4020   15.2930    1.2220 C.3    97  ILE97       0.0290
     97  CG1       63.5680   14.7280    0.4000 C.3    97  ILE97       0.0022
     98  CG2       62.6980   15.2120    2.7160 C.3    97  ILE97       0.0023
     99  CD1       64.8200   15.6170    0.3870 C.3    97  ILE97       0.0001
    100  N         59.8370   14.6120    2.9630 N.am   98  SER98      -0.1936
    101  CA        58.9390   15.1670    3.9590 C.3    98  SER98       0.2055
    102  C         59.4480   14.7330    5.3190 C.2    98  SER98       0.2643
    103  O         59.9810   13.6300    5.4720 O.2    98  SER98      -0.2714
    104  CB        57.4900   14.6940    3.7840 C.3    98  SER98       0.2130
    105  OG        56.6470   15.2520    4.7970 O.3    98  SER98      -0.2179
    106  N         59.2930   15.6050    6.3050 N.am   99  HIS99      -0.1973
    107  CA        59.7030   15.2850    7.6600 C.3    99  HIS99       0.1656
    108  C         58.7780   15.8550    8.7280 C.2    99  HIS99       0.2291
    109  O         58.5520   17.0500    8.8000 O.2    99  HIS99      -0.2864
    110  CB        61.1760   15.6680    7.9190 C.3    99  HIS99       0.0771
    111  CG        61.6510   16.8770    7.1700 C.ar   99  HIS99       0.0820
    112  ND1       61.1140   18.1360    7.3470 N.ar   99  HIS99      -0.2267
    113  CD2       62.6770   17.0280    6.2980 C.ar   99  HIS99       0.1154
    114  CE1       61.7500   18.9940    6.5660 C.ar   99  HIS99       0.1986
    115  NE2       62.7020   18.3470    5.9190 N.ar   99  HIS99      -0.2212
@<TRIPOS>BOND
     1    78    77    1
     2    77    76    1
     3    76    75    1
     4    64    63    1
     5    60    61    1
     6    60    59    1
     7    61    62    1
     8    75    74    1
     9    63    62    2
    10    63    65    1
    11    74    71    1
    12    82    81    2
    13    59    56    1
    14    55    56    1
    15    81    80    1
    16    73    72    2
    17    56    57    1
    18    72    71    1
    19    72    79   am
    20    71    70    1
    21    50    49    2
    22    49    48    1
    23    86    87    1
    24    70    68   am
    25    79    80    1
    26    79    85    1
    27    80    83    1
    28    57    66   am
    29    57    58    2
    30    66    67    1
    31    48    47    1
    32    48    51    1
    33    90    87    1
    34    90    91    1
    35    85    84    1
    36    87    88    1
    37    84    83    1
    38    68    67    1
    39    68    69    2
    40    51    52    1
    41    88    89    2
    42    88    92   am
    43    52    54   am
    44    52    53    2
    45    92    93    1
    46    46    44    1
    47    99    97    1
    48    97    96    1
    49    93    96    1
    50    93    94    1
    51    44    43    2
    52    44    45    1
    53    96    98    1
    54    43    42    1
    55    95    94    2
    56    39    38    2
    57    94   100   am
    58    41    42    1
    59    41    40    1
    60    35    34    2
    61    38    37    1
    62    37    40    1
    63    37    36    1
    64   100   101    1
    65    34    36   am
    66    34    33    1
    67    31    29   ar
    68    31    30   ar
    69    29    27   ar
    70   104   101    1
    71   104   105    1
    72   101   102    1
    73    33    32    1
    74    30    28   ar
    75    27    26   ar
    76    11     9    1
    77   102   103    2
    78   102   106   am
    79    24    23    2
    80    28    26   ar
    81    26    25    1
    82   115   113   ar
    83   115   114   ar
    84   113   111   ar
    85   106   107    1
    86     9    10    1
    87     9     8    2
    88   114   112   ar
    89    23    22    1
    90    22    25    1
    91    22    21    1
    92   111   112   ar
    93   111   110    1
    94     8     7    1
    95    15    14    2
    96   107   110    1
    97   107   108    1
    98    21    14   am
    99    14    13    1
   100   108   109    2
   101     7     6    1
   102    20    18   ar
   103    17    18    1
   104    17    16    1
   105    18    19   ar
   106    13    16    1
   107    13    12    1
   108     4     3    2
   109     6     5    1
   110     3     2    1
   111     5     2    1
   112     2     1    1
