@<TRIPOS>MOLECULE
tmp/3hyoA00.pdb
 169 158 0 0 0
SMALL
GASTEIGER

@<TRIPOS>ATOM
      1  N         27.4000   29.5530   15.7360 N.3   103  ASP103     -0.1239
      2  CA        25.9580   29.4690   15.9210 C.3   103  ASP103      0.1674
      3  C         25.3950   30.8740   15.7440 C.2   103  ASP103      0.2266
      4  O         25.5780   31.7380   16.6130 O.2   103  ASP103     -0.2867
      5  CB        25.6160   28.9250   17.3130 C.3   103  ASP103      0.1410
      6  CG        24.1200   28.7200   17.5030 C.2   103  ASP103      0.3668
      7  OD1       23.3410   29.1000   16.6000 O.co2 103  ASP103     -0.2456
      8  OD2       23.7210   28.2040   18.5740 O.co2 103  ASP103     -0.2456
      9  N         13.9820   33.6000   16.2070 N.3   108  ASP108     -0.1239
     10  CA        13.2160   32.3580   16.2470 C.3   108  ASP108      0.1674
     11  C         11.7440   32.6930   15.9890 C.2   108  ASP108      0.2266
     12  O         11.3560   33.8670   16.0210 O.2   108  ASP108     -0.2867
     13  CB        13.3950   31.6800   17.6090 C.3   108  ASP108      0.1410
     14  CG        13.0110   30.2040   17.6060 C.2   108  ASP108      0.3668
     15  OD1       12.9020   29.5690   16.5270 O.co2 108  ASP108     -0.2456
     16  OD2       12.8360   29.6730   18.7250 O.co2 108  ASP108     -0.2456
     17  N         18.9400   28.1080   13.0300 N.3   136  ASN136     -0.1240
     18  CA        17.5850   27.5950   12.9210 C.3   136  ASN136      0.1653
     19  C         16.9250   28.0960   11.6430 C.2   136  ASN136      0.2266
     20  O         17.4910   28.8920   10.9180 O.2   136  ASN136     -0.2867
     21  CB        16.7360   27.9220   14.1580 C.3   136  ASN136      0.1155
     22  CG        16.4600   29.4100   14.3480 C.2   136  ASN136      0.2627
     23  OD1       16.3310   30.1830   13.3950 O.2   136  ASN136     -0.2716
     24  ND2       16.3310   29.8150   15.6100 N.am  136  ASN136     -0.0877
     25  N         19.1030   23.5010   12.1010 N.3   174  THR174     -0.1203
     26  CA        19.1220   22.6180   13.3050 C.3   174  THR174      0.1994
     27  C         17.8160   22.2190   14.0240 C.2   174  THR174      0.2617
     28  O         17.8370   21.3650   14.9440 O.2   174  THR174     -0.2717
     29  CB        19.9740   23.2350   14.4090 C.3   174  THR174      0.1784
     30  OG1       19.5130   24.5740   14.6130 O.3   174  THR174     -0.2211
     31  CG2       21.4730   23.2130   14.0320 C.3   174  THR174      0.0376
     32  N         16.7180   22.8390   13.6370 N.am  175  ASP175     -0.1973
     33  CA        15.4450   22.5940   14.2850 C.3   175  ASP175      0.1709
     34  C         14.3860   22.1910   13.2470 C.2   175  ASP175      0.2293
     35  O         13.2370   22.6240   13.3290 O.2   175  ASP175     -0.2864
     36  CB        15.0010   23.8780   14.9730 C.3   175  ASP175      0.1436
     37  CG        14.7810   25.0320   13.9820 C.2   175  ASP175      0.3671
     38  OD1       15.0630   24.8920   12.7500 O.co2 175  ASP175     -0.2456
     39  OD2       14.3240   26.0940   14.4540 O.co2 175  ASP175     -0.2456
     40  N         12.6500   15.6970   15.2070 N.3   182  ILE182     -0.1231
     41  CA        13.2810   17.0260   15.1790 C.3   182  ILE182      0.1692
     42  C         14.7660   16.7860   14.9340 C.2   182  ILE182      0.2593
     43  O         15.3370   15.8240   15.4640 O.2   182  ILE182     -0.2718
     44  CB        13.0240   17.8530   16.4960 C.3   182  ILE182      0.0266
     45  CG1       13.5000   19.3220   16.3660 C.3   182  ILE182      0.0019
     46  CG2       13.5470   17.1480   17.7200 C.3   182  ILE182      0.0020
     47  CD1       13.1910   20.1590   17.6340 C.3   182  ILE182      0.0001
     48  N         15.3930   17.6170   14.1100 N.am  183  GLY183     -0.1942
     49  CA        16.7970   17.3690   13.8060 C.3   183  GLY183      0.2014
     50  C         17.4260   18.3800   12.8740 C.2   183  GLY183      0.2639
     51  O         16.9300   19.4930   12.7560 O.2   183  GLY183     -0.2714
     52  N         18.5070   17.9460   12.2230 N.am  184  CYS184     -0.1967
     53  CA        19.4180   18.7760   11.4210 C.3   184  CYS184      0.1712
     54  C         19.3060   18.4220    9.9500 C.2   184  CYS184      0.2296
     55  O         19.1900   17.2470    9.6120 O.2   184  CYS184     -0.2864
     56  CB        20.8530   18.4940   11.8570 C.3   184  CYS184      0.0983
     57  SG        21.2600   19.1960   13.5050 S.3   184  CYS184     -0.0798
     58  N         15.7180   12.8150   15.6010 N.3   198  ALA198     -0.1245
     59  CA        15.3910   11.8990   16.6860 C.3   198  ALA198      0.1562
     60  C         14.0040   12.2960   17.1060 C.2   198  ALA198      0.2260
     61  O         13.5300   13.3950   16.7980 O.2   198  ALA198     -0.2867
     62  CB        16.3730   12.0600   17.8550 C.3   198  ALA198      0.0290
     63  N         10.9440   13.7710   18.6390 N.3   200  ARG200     -0.1231
     64  CA        10.7270   14.9970   19.4150 C.3   200  ARG200      0.1694
     65  C         10.0270   14.6890   20.7420 C.2   200  ARG200      0.2591
     66  O          9.0420   13.9330   20.7630 O.2   200  ARG200     -0.2718
     67  CB         9.8870   15.9790   18.6020 C.3   200  ARG200      0.0321
     68  CG         9.7530   17.3280   19.2530 C.3   200  ARG200      0.0489
     69  CD         9.2010   18.3320   18.2990 C.3   200  ARG200      0.2205
     70  NE         9.0840   19.6430   18.9400 N.pl3 200  ARG200     -0.0865
     71  CZ         7.9270   20.2010   19.3000 C.cat 200  ARG200      0.5346
     72  NH1        6.7760   19.5610   19.0900 N.pl3 200  ARG200      0.1354
     73  NH2        7.9140   21.4040   19.8780 N.pl3 200  ARG200      0.1354
     74  N         10.5210   15.2860   21.8390 N.am  201  LEU201     -0.1980
     75  CA         9.9390   15.0970   23.1720 C.3   201  LEU201      0.1596
     76  C          9.0940   16.3010   23.5610 C.2   201  LEU201      0.2287
     77  O          9.3580   17.4240   23.1010 O.2   201  LEU201     -0.2864
     78  CB        11.0560   14.8270   24.2150 C.3   201  LEU201      0.0297
     79  CG        12.0270   13.6950   23.7950 C.3   201  LEU201      0.0022
     80  CD1       13.0830   13.4600   24.8640 C.3   201  LEU201      0.0001
     81  CD2       11.3120   12.3540   23.4630 C.3   201  LEU201      0.0001
     82  N          7.4600   19.5330   25.2710 N.3   203  GLY203     -0.1210
     83  CA         7.9200   20.6590   26.0750 C.3   203  GLY203      0.1956
     84  C          8.9350   21.4820   25.3140 C.2   203  GLY203      0.2612
     85  O          9.3320   21.1230   24.2010 O.2   203  GLY203     -0.2717
     86  N          9.3650   22.5880   25.9180 N.am  204  HIS204     -0.1961
     87  CA        10.4430   23.3900   25.3350 C.3   204  HIS204      0.1787
     88  C         11.5100   23.6020   26.4080 C.2   204  HIS204      0.2620
     89  O         11.1740   23.8290   27.5690 O.2   204  HIS204     -0.2715
     90  CB         9.9410   24.7570   24.8720 C.3   204  HIS204      0.0785
     91  CG        11.0500   25.7320   24.6050 C.ar  204  HIS204      0.0821
     92  ND1       11.8130   25.6960   23.4530 N.ar  204  HIS204     -0.2267
     93  CD2       11.5560   26.7380   25.3610 C.ar  204  HIS204      0.1154
     94  CE1       12.7190   26.6600   23.4980 C.ar  204  HIS204      0.1986
     95  NE2       12.5830   27.3050   24.6460 N.ar  204  HIS204     -0.2212
     96  N         12.7800   23.5540   26.0030 N.am  205  TYR205     -0.1974
     97  CA        13.9160   23.5090   26.9470 C.3   205  TYR205      0.1639
     98  C         14.9900   24.5360   26.6050 C.2   205  TYR205      0.2290
     99  O         15.4450   24.5890   25.4690 O.2   205  TYR205     -0.2864
    100  CB        14.5140   22.0760   27.0050 C.3   205  TYR205      0.0560
    101  CG        13.4110   21.1130   27.3280 C.ar  205  TYR205     -0.0198
    102  CD1       13.0170   20.9150   28.6460 C.ar  205  TYR205     -0.0009
    103  CD2       12.6720   20.5130   26.3090 C.ar  205  TYR205     -0.0009
    104  CE1       11.9320   20.0780   28.9520 C.ar  205  TYR205      0.0417
    105  CE2       11.5810   19.6780   26.5980 C.ar  205  TYR205      0.0417
    106  CZ        11.2230   19.4820   27.9100 C.ar  205  TYR205      0.1957
    107  OH        10.1440   18.6930   28.1890 O.3   205  TYR205     -0.2866
    108  N         18.7020   26.1940   26.4200 N.3   207  GLY207     -0.1210
    109  CA        20.0690   25.6880   26.3130 C.3   207  GLY207      0.1956
    110  C         20.2770   24.5570   25.3240 C.2   207  GLY207      0.2613
    111  O         21.3890   24.0980   25.1630 O.2   207  GLY207     -0.2717
    112  N         19.2220   24.0980   24.6450 N.am  208  THR208     -0.1938
    113  CA        19.3980   22.9440   23.7640 C.3   208  THR208      0.2028
    114  C         20.3080   23.2770   22.6160 C.2   208  THR208      0.2643
    115  O         21.2030   22.5080   22.3110 O.2   208  THR208     -0.2714
    116  CB        18.0700   22.3740   23.2220 C.3   208  THR208      0.1808
    117  OG1       17.2840   23.4380   22.6710 O.3   208  THR208     -0.2208
    118  CG2       17.3250   21.6850   24.3350 C.3   208  THR208      0.0379
    119  N         20.0970   24.4360   21.9870 N.am  209  GLY209     -0.1939
    120  CA        20.9650   24.8380   20.8860 C.3   209  GLY209      0.2014
    121  C         22.3980   25.0350   21.3400 C.2   209  GLY209      0.2638
    122  O         23.3110   24.6710   20.6310 O.2   209  GLY209     -0.2714
    123  N         22.5860   25.6130   22.5230 N.am  210  ASP210     -0.1971
    124  CA        23.9470   25.8330   23.0450 C.3   210  ASP210      0.1709
    125  C         24.6820   24.5170   23.2120 C.2   210  ASP210      0.2293
    126  O         25.8470   24.3840   22.8350 O.2   210  ASP210     -0.2864
    127  CB        23.8720   26.5510   24.4090 C.3   210  ASP210      0.1436
    128  CG        23.2220   27.8910   24.3080 C.2   210  ASP210      0.3671
    129  OD1       23.2610   28.4810   23.2030 O.co2 210  ASP210     -0.2456
    130  OD2       22.6690   28.3490   25.3220 O.co2 210  ASP210     -0.2456
    131  N         23.9440   21.6090   21.7690 N.3   212  LEU212     -0.1245
    132  CA        24.1210   20.9820   20.4530 C.3   212  LEU212      0.1561
    133  C         25.3670   21.5500   19.7950 C.2   212  LEU212      0.2260
    134  O         26.1490   20.8140   19.2260 O.2   212  LEU212     -0.2867
    135  CB        22.9090   21.2210   19.5460 C.3   212  LEU212      0.0270
    136  CG        22.9520   20.5670   18.1430 C.3   212  LEU212      0.0019
    137  CD1       22.6950   19.0550   18.2190 C.3   212  LEU212      0.0001
    138  CD2       21.9460   21.2490   17.2090 C.3   212  LEU212      0.0001
    139  N         22.6250   14.5310   17.7740 N.3   234  ASN234     -0.1240
    140  CA        21.1810   14.4350   17.9090 C.3   234  ASN234      0.1653
    141  C         20.7620   13.4060   18.9440 C.2   234  ASN234      0.2266
    142  O         19.8810   13.6960   19.7310 O.2   234  ASN234     -0.2867
    143  CB        20.4850   14.2530   16.5510 C.3   234  ASN234      0.1155
    144  CG        20.3670   15.5630   15.8130 C.2   234  ASN234      0.2627
    145  OD1       19.4700   16.3470   16.0730 O.2   234  ASN234     -0.2716
    146  ND2       21.3420   15.8490   14.9400 N.am  234  ASN234     -0.0877
    147  N         21.5240   14.9900   22.1820 N.3   237  LEU237     -0.1231
    148  CA        20.5410   16.0440   22.3980 C.3   237  LEU237      0.1693
    149  C         19.2310   15.4590   22.9140 C.2   237  LEU237      0.2592
    150  O         18.6070   16.0110   23.8200 O.2   237  LEU237     -0.2718
    151  CB        20.2970   16.8240   21.1050 C.3   237  LEU237      0.0284
    152  CG        20.8670   18.2420   21.0510 C.3   237  LEU237      0.0019
    153  CD1       20.2790   19.1010   22.1600 C.3   237  LEU237      0.0001
    154  CD2       22.3850   18.2160   21.1350 C.3   237  LEU237      0.0001
    155  N         18.8220   14.3370   22.3310 N.am  238  ASN238     -0.1974
    156  CA        17.6000   13.6600   22.7460 C.3   238  ASN238      0.1688
    157  C         17.7140   13.1160   24.1650 C.2   238  ASN238      0.2292
    158  O         16.7870   13.2420   24.9650 O.2   238  ASN238     -0.2864
    159  CB        17.2570   12.5290   21.7750 C.3   238  ASN238      0.1181
    160  CG        15.7960   12.1280   21.8400 C.2   238  ASN238      0.2629
    161  OD1       15.4570   11.0550   22.3380 O.2   238  ASN238     -0.2716
    162  ND2       14.9220   12.9920   21.3360 N.am  238  ASN238     -0.0877
    163  N         17.5360   16.0000   26.8500 N.3   240  VAL240     -0.1245
    164  CA        16.1530   16.4850   27.0050 C.3   240  VAL240      0.1561
    165  C         15.3750   15.4470   27.8110 C.2   240  VAL240      0.2260
    166  O         14.6640   15.7940   28.7380 O.2   240  VAL240     -0.2867
    167  CB        15.4750   16.8280   25.6380 C.3   240  VAL240      0.0252
    168  CG1       13.9740   17.0720   25.8000 C.3   240  VAL240      0.0019
    169  CG2       16.1630   18.1050   24.9990 C.3   240  VAL240      0.0019
@<TRIPOS>BOND
     1    55    54    2
     2    54    53    1
     3    20    19    2
     4    53    56    1
     5    53    52    1
     6    19    18    1
     7    56    57    1
     8    25    26    1
     9    52    50   am
    10    38    37   ar
    11    51    50    2
    12    50    49    1
    13    18    17    1
    14    18    21    1
    15    34    35    2
    16    34    33    1
    17    26    27    1
    18    26    29    1
    19    23    22    2
    20    32    27   am
    21    32    33    1
    22    49    48    1
    23    37    39   ar
    24    37    36    1
    25    27    28    2
    26    31    29    1
    27    48    42   am
    28    21    22    1
    29    33    36    1
    30    22    24   am
    31    29    30    1
    32    42    41    1
    33    42    43    2
    34   146   144   am
    35    41    40    1
    36    41    44    1
    37    58    59    1
    38     1     2    1
    39     3     2    1
    40     3     4    2
    41   144   145    2
    42   144   143    1
    43     2     5    1
    44    11    12    2
    45    11    10    1
    46     9    10    1
    47    10    13    1
    48    45    44    1
    49    45    47    1
    50    44    46    1
    51    15    14   ar
    52   143   140    1
    53     7     6   ar
    54    59    60    1
    55    59    62    1
    56    61    60    2
    57   138   136    1
    58     5     6    1
    59     6     8   ar
    60    14    13    1
    61    14    16   ar
    62   139   140    1
    63   140   141    1
    64   136   137    1
    65   136   135    1
    66    69    70    1
    67    69    68    1
    68    67    68    1
    69    67    64    1
    70    63    64    1
    71    70    71    2
    72   141   142    2
    73    72    71    1
    74   134   133    2
    75    71    73    1
    76    64    65    1
    77   135   132    1
    78   133   132    1
    79   132   131    1
    80   122   121    2
    81    65    66    2
    82    65    74   am
    83   120   121    1
    84   120   119    1
    85   152   151    1
    86   152   154    1
    87   152   153    1
    88   151   148    1
    89   162   160   am
    90   121   123   am
    91   159   160    1
    92   159   156    1
    93    74    75    1
    94   160   161    2
    95   119   114   am
    96   147   148    1
    97   115   114    2
    98   155   156    1
    99   155   149   am
   100   148   149    1
   101   123   124    1
   102   114   113    1
   103   117   116    1
   104   156   157    1
   105   126   125    2
   106   149   150    2
   107   124   125    1
   108   124   127    1
   109    77    76    2
   110    75    76    1
   111    75    78    1
   112   129   128   ar
   113   116   113    1
   114   116   118    1
   115    92    94   ar
   116    92    91   ar
   117    81    79    1
   118    94    95   ar
   119   113   112    1
   120    79    78    1
   121    79    80    1
   122   157   158    2
   123    85    84    2
   124   128   127    1
   125   128   130   ar
   126    91    90    1
   127    91    93   ar
   128   112   110   am
   129    95    93   ar
   130    90    87    1
   131   169   167    1
   132   111   110    2
   133    82    83    1
   134    84    86   am
   135    84    83    1
   136   110   109    1
   137    87    86    1
   138    87    88    1
   139    99    98    2
   140   167   168    1
   141   167   164    1
   142    96    88   am
   143    96    97    1
   144   103   105   ar
   145   103   101   ar
   146   109   108    1
   147    88    89    2
   148   105   106   ar
   149    98    97    1
   150   163   164    1
   151    97   100    1
   152   100   101    1
   153   164   165    1
   154   101   102   ar
   155   165   166    2
   156   106   107    1
   157   106   104   ar
   158   102   104   ar
