@<TRIPOS>MOLECULE
tmp/3hysA01.pdb
 100 93 0 0 0
SMALL
GASTEIGER

@<TRIPOS>ATOM
      1  N         -6.3050  -39.4110  -14.2360 N.3    34  GLY34      -0.1210
      2  CA        -7.6740  -38.8770  -14.2340 C.3    34  GLY34       0.1956
      3  C         -8.6470  -39.6890  -15.0560 C.2    34  GLY34       0.2611
      4  O         -8.2750  -40.6550  -15.7340 O.2    34  GLY34      -0.2717
      5  N         -9.8960  -39.2780  -15.0510 N.am   35  ARG35      -0.1979
      6  CA       -10.9310  -39.9200  -15.8520 C.3    35  ARG35       0.1597
      7  C        -10.4690  -40.1010  -17.3130 C.2    35  ARG35       0.2287
      8  O         -9.9620  -39.1470  -17.9380 O.2    35  ARG35      -0.2864
      9  CB       -12.1910  -39.0320  -15.8090 C.3    35  ARG35       0.0334
     10  CG       -13.3540  -39.5520  -16.6930 C.3    35  ARG35       0.0492
     11  CD       -14.7010  -38.9710  -16.2640 C.3    35  ARG35       0.2205
     12  NE       -15.7130  -39.3880  -17.2390 N.pl3  35  ARG35      -0.0865
     13  CZ       -16.0290  -38.6420  -18.2970 C.cat  35  ARG35       0.5346
     14  NH1      -15.4310  -37.4720  -18.4540 N.pl3  35  ARG35       0.1354
     15  NH2      -16.9560  -39.0360  -19.1380 N.pl3  35  ARG35       0.1354
     16  N         -6.7320  -34.7440  -11.1880 N.3   101  SER101     -0.1202
     17  CA        -8.1930  -34.7040  -11.3320 C.3   101  SER101      0.2020
     18  C         -8.8620  -35.8610  -10.6400 C.2   101  SER101      0.2618
     19  O         -8.7360  -35.9380   -9.4260 O.2   101  SER101     -0.2717
     20  CB        -8.6230  -34.6310  -12.8150 C.3   101  SER101      0.2103
     21  OG        -8.0070  -33.5210  -13.3620 O.3   101  SER101     -0.2182
     22  N         -9.5880  -36.7330  -11.3540 N.am  102  MET102     -0.1979
     23  CA       -10.2560  -37.8690  -10.6750 C.3   102  MET102      0.1605
     24  C         -9.2580  -38.6680   -9.7810 C.2   102  MET102      0.2287
     25  O         -9.5970  -39.0780   -8.6620 O.2   102  MET102     -0.2864
     26  CB       -10.8660  -38.8580  -11.6870 C.3   102  MET102      0.0413
     27  CG       -11.5960  -40.0190  -10.9410 C.3   102  MET102      0.0598
     28  SD       -12.1270  -41.2490  -12.1210 S.3   102  MET102     -0.1393
     29  CE       -10.5390  -41.9670  -12.6160 C.3   102  MET102      0.0692
     30  N        -10.0690  -30.6490   -6.7810 N.3   127  ARG127     -0.1245
     31  CA       -11.1190  -29.9100   -6.0940 C.3   127  ARG127      0.1563
     32  C        -11.6260  -30.8080   -4.9650 C.2   127  ARG127      0.2260
     33  O        -11.3920  -32.0250   -5.0000 O.2   127  ARG127     -0.2867
     34  CB       -12.2560  -29.6050   -7.0860 C.3   127  ARG127      0.0307
     35  CG       -13.0260  -30.7490   -7.6650 C.3   127  ARG127      0.0489
     36  CD       -12.1570  -31.5010   -8.7270 C.3   127  ARG127      0.2205
     37  NE       -13.0320  -32.1460   -9.7210 N.pl3 127  ARG127     -0.0865
     38  CZ       -13.3630  -33.4440   -9.7010 C.cat 127  ARG127      0.5346
     39  NH1      -12.8530  -34.2930   -8.8030 N.pl3 127  ARG127      0.1354
     40  NH2      -14.1980  -33.9080  -10.6010 N.pl3 127  ARG127      0.1354
     41  N        -20.5180  -31.7730  -15.3070 N.3   138  ASN138     -0.1240
     42  CA       -20.7090  -33.1650  -14.9920 C.3   138  ASN138      0.1653
     43  C        -22.0780  -33.6710  -15.4560 C.2   138  ASN138      0.2266
     44  O        -22.2040  -34.7050  -16.1030 O.2   138  ASN138     -0.2867
     45  CB       -20.4580  -33.3170  -13.4740 C.3   138  ASN138      0.1155
     46  CG       -20.2630  -34.7320  -13.0670 C.2   138  ASN138      0.2627
     47  OD1      -21.2170  -35.4870  -13.0460 O.2   138  ASN138     -0.2716
     48  ND2      -19.0260  -35.1110  -12.7320 N.am  138  ASN138     -0.0877
     49  N        -16.9430  -43.5140  -14.3710 N.3   197  GLN197     -0.1231
     50  CA       -15.8940  -42.6220  -13.7740 C.3   197  GLN197      0.1698
     51  C        -16.3620  -41.1950  -13.5690 C.2   197  GLN197      0.2592
     52  O        -15.8970  -40.5000  -12.6580 O.2   197  GLN197     -0.2718
     53  CB       -14.6200  -42.6380  -14.6110 C.3   197  GLN197      0.0381
     54  CG       -13.7970  -43.8370  -14.4140 C.3   197  GLN197      0.0905
     55  CD       -12.4770  -43.7680  -15.1800 C.2   197  GLN197      0.2608
     56  OE1      -12.2080  -42.8050  -15.8830 O.2   197  GLN197     -0.2717
     57  NE2      -11.6180  -44.7570  -14.9660 N.am  197  GLN197     -0.0878
     58  N        -17.3350  -40.7640  -14.3660 N.am  198  LEU198     -0.1980
     59  CA       -17.9280  -39.4560  -14.1730 C.3   198  LEU198      0.1596
     60  C        -18.5960  -39.3000  -12.8000 C.2   198  LEU198      0.2287
     61  O        -18.6600  -38.2190  -12.2990 O.2   198  LEU198     -0.2864
     62  CB       -18.9920  -39.2650  -15.2490 C.3   198  LEU198      0.0297
     63  CG       -19.4580  -37.8250  -15.4680 C.3   198  LEU198      0.0022
     64  CD1      -18.2920  -36.9990  -16.1010 C.3   198  LEU198      0.0001
     65  CD2      -20.7680  -37.8070  -16.3250 C.3   198  LEU198      0.0001
     66  N        -17.3770  -40.6180  -10.0140 N.3   200  CYS200     -0.1221
     67  CA       -16.3280  -40.7360   -9.0330 C.3   200  CYS200      0.1808
     68  C        -15.7860  -39.3310   -8.7990 C.2   200  CYS200      0.2601
     69  O        -14.6650  -38.9650   -9.1980 O.2   200  CYS200     -0.2717
     70  CB       -15.2830  -41.7640   -9.4770 C.3   200  CYS200      0.0970
     71  SG       -16.0880  -43.4440   -9.6600 S.3   200  CYS200     -0.0800
     72  N        -16.6170  -38.5200   -8.1610 N.am  201  ALA201     -0.1979
     73  CA       -16.3250  -37.0820   -8.0200 C.3   201  ALA201      0.1597
     74  C        -17.0620  -36.5890   -6.7660 C.2   201  ALA201      0.2287
     75  O        -17.9900  -37.2420   -6.2970 O.2   201  ALA201     -0.2864
     76  CB       -16.8330  -36.3290   -9.3060 C.3   201  ALA201      0.0319
     77  N        -11.7680  -27.0550  -16.6090 N.3   227  VAL227     -0.1231
     78  CA       -12.4860  -28.2460  -16.1690 C.3   227  VAL227      0.1692
     79  C        -12.3380  -28.3650  -14.6200 C.2   227  VAL227      0.2592
     80  O        -13.2800  -28.7230  -13.9320 O.2   227  VAL227     -0.2718
     81  CB       -11.9050  -29.4620  -16.8660 C.3   227  VAL227      0.0266
     82  CG1      -12.6690  -30.7110  -16.4870 C.3   227  VAL227      0.0020
     83  CG2      -11.9560  -29.2470  -18.3750 C.3   227  VAL227      0.0020
     84  N        -11.1590  -28.1130  -14.0760 N.am  228  THR228     -0.1953
     85  CA       -11.0660  -27.9860  -12.6430 C.3   228  THR228      0.1897
     86  C        -10.2380  -26.6740  -12.3650 C.2   228  THR228      0.2313
     87  O         -8.9880  -26.6760  -12.1970 O.2   228  THR228     -0.2863
     88  CB       -10.3820  -29.2080  -11.9630 C.3   228  THR228      0.1794
     89  OG1       -9.0090  -29.2630  -12.4380 O.3   228  THR228     -0.2208
     90  CG2      -11.0360  -30.5750  -12.3580 C.3   228  THR228      0.0378
     91  N         -5.9390  -27.8180  -18.3680 N.3   253  HIS253     -0.1241
     92  CA        -6.3130  -28.9530  -17.6030 C.3   253  HIS253      0.1621
     93  C         -5.3000  -30.1270  -17.7140 C.2   253  HIS253      0.2264
     94  O         -5.1080  -30.8960  -16.7290 O.2   253  HIS253     -0.2867
     95  CB        -7.6890  -29.4050  -18.0490 C.3   253  HIS253      0.0745
     96  CG        -8.2130  -30.5090  -17.2130 C.ar  253  HIS253      0.0817
     97  ND1       -8.2800  -30.4000  -15.8450 N.ar  253  HIS253     -0.2268
     98  CD2       -8.7020  -31.7400  -17.5300 C.ar  253  HIS253      0.1154
     99  CE1       -8.8290  -31.5050  -15.3520 C.ar  253  HIS253      0.1986
    100  NE2       -9.0620  -32.3410  -16.3460 N.ar  253  HIS253     -0.2212
@<TRIPOS>BOND
     1    15    13    1
     2    14    13    1
     3    83    81    1
     4    91    92    1
     5    13    12    2
     6    95    92    1
     7    95    96    1
     8     8     7    2
     9    93    92    1
    10    93    94    2
    11    98    96   ar
    12    98   100   ar
    13     7     6    1
    14    12    11    1
    15    96    97   ar
    16    81    82    1
    17    81    78    1
    18    10    11    1
    19    10     9    1
    20    77    78    1
    21   100    99   ar
    22    65    63    1
    23    78    79    1
    24    44    43    2
    25    64    63    1
    26    56    55    2
    27     6     9    1
    28     6     5    1
    29    97    99   ar
    30     4     3    2
    31    63    62    1
    32    43    42    1
    33    41    42    1
    34    62    59    1
    35    55    57   am
    36    55    54    1
    37     3     5   am
    38     3     2    1
    39    42    45    1
    40    79    84   am
    41    79    80    2
    42    53    54    1
    43    53    50    1
    44    49    50    1
    45    58    59    1
    46    58    51   am
    47     1     2    1
    48    59    60    1
    49    84    85    1
    50    50    51    1
    51    51    52    2
    52    45    46    1
    53    21    20    1
    54    46    47    2
    55    46    48   am
    56    20    17    1
    57    60    61    2
    58    85    86    1
    59    85    88    1
    60    29    28    1
    61    89    88    1
    62    86    87    2
    63    90    88    1
    64    28    27    1
    65    26    27    1
    66    26    23    1
    67    22    23    1
    68    22    18   am
    69    17    16    1
    70    17    18    1
    71    23    24    1
    72    18    19    2
    73    40    38    1
    74    66    67    1
    75    24    25    2
    76    37    38    2
    77    37    36    1
    78    38    39    1
    79    71    70    1
    80    70    67    1
    81    76    73    1
    82    69    68    2
    83    67    68    1
    84    68    72   am
    85    36    35    1
    86    72    73    1
    87    73    74    1
    88    35    34    1
    89    34    31    1
    90    30    31    1
    91    74    75    2
    92    31    32    1
    93    33    32    2
