@<TRIPOS>MOLECULE
tmp/3hysA00.pdb
 114 113 0 0 0
SMALL
GASTEIGER

@<TRIPOS>ATOM
      1  N         -0.4530  -42.9310  -19.5000 N.3    41  THR41      -0.1218
      2  CA        -0.4700  -41.4650  -19.6360 C.3    41  THR41       0.1862
      3  C          0.6640  -40.8320  -18.8350 C.2    41  THR41       0.2287
      4  O          1.0400  -39.7080  -19.1280 O.2    41  THR41      -0.2866
      5  CB        -1.8010  -40.7930  -19.1330 C.3    41  THR41       0.1770
      6  OG1       -2.0490  -41.1690  -17.7500 O.3    41  THR41      -0.2211
      7  CG2       -2.9460  -41.1890  -19.9910 C.3    41  THR41       0.0375
      8  N        -12.1710  -31.0250  -27.3410 N.3   160  ARG160     -0.1301
      9  CA       -11.1010  -31.5820  -26.5370 C.3   160  ARG160      0.1248
     10  C         -9.9140  -30.5690  -26.4310 C.3   160  ARG160      0.2009
     11  O         -9.1970  -30.4310  -25.3710 O.3   160  ARG160     -0.2188
     12  CB       -10.6370  -32.8930  -27.2220 C.3   160  ARG160      0.0254
     13  CG        -9.6500  -33.7680  -26.3320 C.3   160  ARG160      0.0485
     14  CD        -9.3460  -35.1130  -27.0130 C.3   160  ARG160      0.2205
     15  NE        -8.2110  -35.7900  -26.3450 N.pl3 160  ARG160     -0.0865
     16  CZ        -7.7290  -36.9660  -26.7230 C.cat 160  ARG160      0.5346
     17  NH1       -8.2810  -37.5890  -27.7710 N.pl3 160  ARG160      0.1354
     18  NH2       -6.6970  -37.5100  -26.0680 N.pl3 160  ARG160      0.1354
     19  N         -6.1810  -27.2560  -23.0050 N.3   165  PHE165     -0.1241
     20  CA        -4.9110  -26.6490  -23.2280 C.3   165  PHE165      0.1605
     21  C         -4.9750  -25.1820  -22.9070 C.2   165  PHE165      0.2264
     22  O         -6.0190  -24.5960  -22.9390 O.2   165  PHE165     -0.2867
     23  CB        -4.4360  -26.9530  -24.6770 C.3   165  PHE165      0.0534
     24  CG        -4.1010  -28.3890  -24.8780 C.ar  165  PHE165     -0.0203
     25  CD1       -2.8360  -28.8590  -24.5580 C.ar  165  PHE165     -0.0042
     26  CD2       -5.0810  -29.2950  -25.2520 C.ar  165  PHE165     -0.0042
     27  CE1       -2.5070  -30.2380  -24.7070 C.ar  165  PHE165     -0.0003
     28  CE2       -4.7970  -30.6670  -25.3700 C.ar  165  PHE165     -0.0003
     29  CZ        -3.4770  -31.1370  -25.1000 C.ar  165  PHE165     -0.0000
     30  N         -0.8420  -31.2190  -31.0980 N.3   179  TRP179     -0.1241
     31  CA        -1.7520  -31.8210  -30.1260 C.3   179  TRP179      0.1605
     32  C         -2.8520  -32.5820  -30.8230 C.2   179  TRP179      0.2264
     33  O         -3.2150  -33.6410  -30.3750 O.2   179  TRP179     -0.2867
     34  CB        -2.3700  -30.7790  -29.1740 C.3   179  TRP179      0.0550
     35  CG        -1.3330  -30.2610  -28.2280 C.ar  179  TRP179      0.0003
     36  CD1       -0.8550  -28.9980  -28.1680 C.ar  179  TRP179      0.0946
     37  CD2       -0.5840  -31.0160  -27.2720 C.ar  179  TRP179      0.0152
     38  NE1        0.1400  -28.8890  -27.1950 N.ar  179  TRP179     -0.2442
     39  CE2        0.2920  -30.1250  -26.6200 C.ar  179  TRP179      0.0810
     40  CE3       -0.5990  -32.3670  -26.8750 C.ar  179  TRP179      0.0012
     41  CZ2        1.1720  -30.5420  -25.6230 C.ar  179  TRP179      0.0191
     42  CZ3        0.2470  -32.7750  -25.8760 C.ar  179  TRP179      0.0001
     43  CH2        1.1430  -31.8760  -25.2580 C.ar  179  TRP179      0.0015
     44  N         -1.7140  -35.7080  -32.0120 N.3   182  MET182     -0.1230
     45  CA        -1.5870  -36.5720  -30.9050 C.3   182  MET182      0.1702
     46  C         -2.9600  -37.1160  -30.3650 C.2   182  MET182      0.2592
     47  O         -2.9780  -38.2030  -29.7810 O.2   182  MET182     -0.2718
     48  CB        -0.8780  -35.8270  -29.8240 C.3   182  MET182      0.0401
     49  CG        -0.7210  -36.6580  -28.6450 C.3   182  MET182      0.0596
     50  SD         0.7710  -36.1460  -27.7540 S.3   182  MET182     -0.1393
     51  CE         1.9500  -35.6140  -29.0660 C.3   182  MET182      0.0692
     52  N         -4.0620  -36.4090  -30.5520 N.am  183  PHE183     -0.1976
     53  CA        -5.3620  -36.9050  -30.1490 C.3   183  PHE183      0.1639
     54  C         -5.6380  -38.2250  -30.8240 C.2   183  PHE183      0.2290
     55  O         -6.2190  -39.0750  -30.2630 O.2   183  PHE183     -0.2864
     56  CB        -6.5460  -35.9930  -30.4710 C.3   183  PHE183      0.0560
     57  CG        -6.5880  -34.7170  -29.7270 C.ar  183  PHE183     -0.0200
     58  CD1       -5.9030  -34.5370  -28.5820 C.ar  183  PHE183     -0.0042
     59  CD2       -7.3550  -33.6980  -30.1850 C.ar  183  PHE183     -0.0042
     60  CE1       -5.9490  -33.3910  -27.9510 C.ar  183  PHE183     -0.0003
     61  CE2       -7.4130  -32.5440  -29.5180 C.ar  183  PHE183     -0.0003
     62  CZ        -6.7090  -32.3870  -28.4020 C.ar  183  PHE183     -0.0000
     63  N         -4.1110  -40.9070  -28.9880 N.3   186  TRP186     -0.1241
     64  CA        -4.6610  -41.1510  -27.6470 C.3   186  TRP186      0.1605
     65  C         -6.2000  -41.0550  -27.7100 C.2   186  TRP186      0.2264
     66  O         -6.7650  -40.1760  -27.0700 O.2   186  TRP186     -0.2867
     67  CB        -4.1680  -40.1380  -26.5710 C.3   186  TRP186      0.0550
     68  CG        -2.6890  -40.1860  -26.2330 C.ar  186  TRP186      0.0003
     69  CD1       -1.6620  -39.5330  -26.8880 C.ar  186  TRP186      0.0946
     70  CD2       -2.0530  -40.9200  -25.1310 C.ar  186  TRP186      0.0152
     71  NE1       -0.4540  -39.8250  -26.2900 N.ar  186  TRP186     -0.2442
     72  CE2       -0.6590  -40.6600  -25.2100 C.ar  186  TRP186      0.0810
     73  CE3       -2.5320  -41.7770  -24.1160 C.ar  186  TRP186      0.0012
     74  CZ2        0.2640  -41.2190  -24.3090 C.ar  186  TRP186      0.0191
     75  CZ3       -1.6140  -42.3250  -23.2060 C.ar  186  TRP186      0.0001
     76  CH2       -0.2310  -42.0450  -23.3180 C.ar  186  TRP186      0.0015
     77  N        -10.0830  -41.3160  -26.9360 N.3   188  ILE188     -0.1245
     78  CA       -10.7230  -41.5400  -25.6690 C.3   188  ILE188      0.1561
     79  C        -11.9990  -42.2790  -25.9760 C.2   188  ILE188      0.2260
     80  O        -12.9420  -41.6820  -26.4340 O.2   188  ILE188     -0.2867
     81  CB       -11.0540  -40.2310  -24.9300 C.3   188  ILE188      0.0252
     82  CG1       -9.8070  -39.3510  -24.6960 C.3   188  ILE188      0.0019
     83  CG2      -11.8490  -40.5210  -23.5660 C.3   188  ILE188      0.0019
     84  CD1       -8.7540  -39.8700  -23.6680 C.3   188  ILE188      0.0001
     85  N         -4.6800  -30.2700  -18.8820 N.3   254  LEU254     -0.1245
     86  CA        -3.6010  -31.2520  -19.0620 C.3   254  LEU254      0.1561
     87  C         -2.1860  -30.6720  -18.8280 C.2   254  LEU254      0.2260
     88  O         -1.2400  -30.9770  -19.5950 O.2   254  LEU254     -0.2867
     89  CB        -3.6800  -31.9180  -20.4330 C.3   254  LEU254      0.0270
     90  CG        -5.0290  -32.5910  -20.6120 C.3   254  LEU254      0.0019
     91  CD1       -5.1470  -33.3390  -21.9610 C.3   254  LEU254      0.0001
     92  CD2       -5.3950  -33.5180  -19.3680 C.3   254  LEU254      0.0001
     93  N          0.2310  -31.2180  -16.7880 N.3   256  PHE256     -0.1227
     94  CA         1.3960  -32.1060  -16.4910 C.3   256  PHE256      0.1736
     95  C          1.9570  -32.6820  -17.7830 C.2   256  PHE256      0.2595
     96  O          3.0890  -33.1980  -17.8340 O.2   256  PHE256     -0.2718
     97  CB         0.9960  -33.2640  -15.5520 C.3   256  PHE256      0.0547
     98  CG        -0.1420  -34.1200  -16.0860 C.ar  256  PHE256     -0.0202
     99  CD1        0.1110  -35.3490  -16.6650 C.ar  256  PHE256     -0.0042
    100  CD2       -1.4470  -33.6530  -16.0610 C.ar  256  PHE256     -0.0042
    101  CE1       -0.9470  -36.1270  -17.1680 C.ar  256  PHE256     -0.0003
    102  CE2       -2.5030  -34.3980  -16.5740 C.ar  256  PHE256     -0.0003
    103  CZ        -2.2460  -35.6130  -17.1690 C.ar  256  PHE256     -0.0000
    104  N          1.1290  -32.6400  -18.8090 N.am  257  PHE257     -0.1976
    105  CA         1.5060  -33.0990  -20.1180 C.3   257  PHE257      0.1639
    106  C          2.0030  -31.9360  -20.9710 C.2   257  PHE257      0.2290
    107  O          2.9730  -32.0780  -21.7890 O.2   257  PHE257     -0.2864
    108  CB         0.2720  -33.7730  -20.7510 C.3   257  PHE257      0.0560
    109  CG         0.5590  -35.0540  -21.3570 C.ar  257  PHE257     -0.0200
    110  CD1        0.9340  -35.1140  -22.7170 C.ar  257  PHE257     -0.0042
    111  CD2        0.4770  -36.2170  -20.5990 C.ar  257  PHE257     -0.0042
    112  CE1        1.2490  -36.3200  -23.3300 C.ar  257  PHE257     -0.0003
    113  CE2        0.7350  -37.4780  -21.2010 C.ar  257  PHE257     -0.0003
    114  CZ         1.1520  -37.5350  -22.5630 C.ar  257  PHE257     -0.0000
@<TRIPOS>BOND
     1    44    45    1
     2    30    31    1
     3    45    46    1
     4    45    48    1
     5    54    55    2
     6    54    53    1
     7    32    33    2
     8    32    31    1
     9    52    46   am
    10    52    53    1
    11    56    53    1
    12    56    57    1
    13    46    47    2
    14    59    57   ar
    15    59    61   ar
    16    31    34    1
    17    48    49    1
    18    57    58   ar
    19    61    62   ar
    20    34    35    1
    21    51    50    1
    22    63    64    1
    23    49    50    1
    24    58    60   ar
    25    62    60   ar
    26    35    36   ar
    27    35    37   ar
    28    36    38   ar
    29    17    16    1
    30    65    64    1
    31    65    66    2
    32    64    67    1
    33     8     9    1
    34    37    40   ar
    35    37    39   ar
    36    12     9    1
    37    12    13    1
    38    38    39   ar
    39    14    15    1
    40    14    13    1
    41    77    78    1
    42    69    71   ar
    43    69    68   ar
    44    40    42   ar
    45    16    15    2
    46    16    18    1
    47    39    41   ar
    48    67    68    1
    49     9    10    1
    50    80    79    2
    51    10    11    1
    52    71    72   ar
    53    68    70   ar
    54    79    78    1
    55    42    43   ar
    56    78    81    1
    57    41    43   ar
    58    28    26   ar
    59    28    29   ar
    60    26    24   ar
    61    72    70   ar
    62    72    74   ar
    63    70    73   ar
    64    29    27   ar
    65    81    82    1
    66    81    83    1
    67    24    23    1
    68    24    25   ar
    69    27    25   ar
    70    82    84    1
    71    23    20    1
    72    74    76   ar
    73    73    75   ar
    74   112   110   ar
    75   112   114   ar
    76    76    75   ar
    77    20    19    1
    78    20    21    1
    79    22    21    2
    80   110   109   ar
    81   114   113   ar
    82    91    90    1
    83   107   106    2
    84   109   108    1
    85   109   111   ar
    86   113   111   ar
    87   106   105    1
    88   108   105    1
    89    90    89    1
    90    90    92    1
    91    89    86    1
    92   105   104    1
    93     7     5    1
    94     2     1    1
    95     2     5    1
    96     2     3    1
    97    88    87    2
    98     5     6    1
    99     4     3    2
   100    86    85    1
   101    86    87    1
   102   104    95   am
   103    96    95    2
   104    95    94    1
   105   103   101   ar
   106   103   102   ar
   107   101    99   ar
   108    93    94    1
   109    99    98   ar
   110   102   100   ar
   111    94    97    1
   112    98   100   ar
   113    98    97    1
