@<TRIPOS>MOLECULE
tmp/3hytB00.pdb
 107 105 0 0 0
SMALL
GASTEIGER

@<TRIPOS>ATOM
      1  N          7.5560   28.2670  -34.1740 N.3    11  PRO11      -0.2102
      2  CA         8.3520   29.1670  -33.3380 C.3    11  PRO11       0.1504
      3  C          7.4690   29.9080  -32.3340 C.2    11  PRO11       0.2576
      4  O          6.3400   30.2730  -32.6650 O.2    11  PRO11      -0.2718
      5  CB         8.9480   30.1470  -34.3510 C.3    11  PRO11       0.0282
      6  CG         9.0520   29.3550  -35.6050 C.3    11  PRO11       0.0208
      7  CD         7.8500   28.4480  -35.6100 C.3    11  PRO11       0.0893
      8  N          7.9780   30.0990  -31.1180 N.am   12  ASN12      -0.1961
      9  CA         7.2770   30.8410  -30.0570 C.3    12  ASN12       0.1819
     10  C          5.8930   30.3050  -29.6690 C.2    12  ASN12       0.2622
     11  O          4.9390   31.0720  -29.5140 O.2    12  ASN12      -0.2715
     12  CB         7.1930   32.3390  -30.3950 C.3    12  ASN12       0.1195
     13  CG         8.4890   33.0760  -30.1210 C.2    12  ASN12       0.2630
     14  OD1        9.2180   32.7520  -29.1810 O.2    12  ASN12      -0.2716
     15  ND2        8.7800   34.0850  -30.9400 N.am   12  ASN12      -0.0877
     16  N          5.7930   28.9890  -29.5080 N.am   13  SER13      -0.1936
     17  CA         4.5580   28.3650  -29.0410 C.3    13  SER13       0.2055
     18  C          4.6530   27.9460  -27.5710 C.2    13  SER13       0.2644
     19  O          3.6360   27.6700  -26.9300 O.2    13  SER13      -0.2714
     20  CB         4.1810   27.1760  -29.9270 C.3    13  SER13       0.2130
     21  OG         5.2220   26.2190  -29.9720 O.3    13  SER13      -0.2179
     22  N          5.8770   27.9100  -27.0460 N.am   14  GLY14      -0.1939
     23  CA         6.1190   27.6280  -25.6320 C.3    14  GLY14       0.2014
     24  C          6.7960   26.2970  -25.3640 C.2    14  GLY14       0.2639
     25  O          6.6890   25.7600  -24.2590 O.2    14  GLY14      -0.2714
     26  N          7.4980   25.7710  -26.3700 N.am   15  LYS15      -0.1963
     27  CA         8.1670   24.4700  -26.2730 C.3    15  LYS15       0.1728
     28  C          9.1080   24.3760  -25.0750 C.2    15  LYS15       0.2617
     29  O          8.9810   23.4680  -24.2530 O.2    15  LYS15      -0.2715
     30  CB         8.9470   24.1440  -27.5540 C.3    15  LYS15       0.0311
     31  CG         8.1350   23.4890  -28.6650 C.3    15  LYS15       0.0038
     32  CD         7.8810   24.4470  -29.8210 C.3    15  LYS15       0.0206
     33  CE         9.1430   24.7210  -30.6390 C.3    15  LYS15       0.1093
     34  NZ         9.6670   23.4900  -31.3010 N.3    15  LYS15      -0.1314
     35  N         10.0430   25.3210  -24.9890 N.am   16  THR16      -0.1937
     36  CA        11.0780   25.3160  -23.9540 C.3    16  THR16       0.2028
     37  C         10.4710   25.4830  -22.5610 C.2    16  THR16       0.2642
     38  O         10.9030   24.8330  -21.6130 O.2    16  THR16      -0.2714
     39  CB        12.1590   26.3920  -24.2270 C.3    16  THR16       0.1808
     40  OG1       12.6550   26.2350  -25.5620 O.3    16  THR16      -0.2208
     41  CG2       13.3250   26.2630  -23.2550 C.3    16  THR16       0.0379
     42  N          9.4650   26.3480  -22.4600 N.am   17  THR17      -0.1950
     43  CA         8.6980   26.5360  -21.2310 C.3    17  THR17       0.1897
     44  C          8.1230   25.2090  -20.7230 C.2    17  THR17       0.2313
     45  O          8.2890   24.8650  -19.5490 O.2    17  THR17      -0.2863
     46  CB         7.5690   27.5620  -21.4470 C.3    17  THR17       0.1794
     47  OG1        8.1330   28.7800  -21.9500 O.3    17  THR17      -0.2208
     48  CG2        6.8170   27.8470  -20.1480 C.3    17  THR17       0.0378
     49  N         13.8020   18.6280  -27.0790 N.3    46  ASP46      -0.1225
     50  CA        13.2670   19.9250  -27.4830 C.3    46  ASP46       0.1805
     51  C         13.7820   20.3160  -28.8700 C.2    46  ASP46       0.2598
     52  O         14.8790   20.8550  -29.0060 O.2    46  ASP46      -0.2718
     53  CB        13.6110   21.0020  -26.4450 C.3    46  ASP46       0.1424
     54  CG        12.8350   22.3030  -26.6560 C.2    46  ASP46       0.3668
     55  OD1       12.0030   22.3800  -27.5860 O.co2  46  ASP46      -0.2456
     56  OD2       13.0580   23.2600  -25.8810 O.co2  46  ASP46      -0.2456
     57  N         12.9780   20.0330  -29.8910 N.am   47  LEU47      -0.1966
     58  CA        13.3090   20.3750  -31.2730 C.3    47  LEU47       0.1713
     59  C         13.1760   21.8800  -31.5360 C.2    47  LEU47       0.2458
     60  O         12.4740   22.5800  -30.8010 O.2    47  LEU47      -0.2730
     61  CB        12.4190   19.5880  -32.2400 C.3    47  LEU47       0.0310
     62  CG        12.5380   18.0600  -32.2490 C.3    47  LEU47       0.0022
     63  CD1       11.3230   17.4400  -32.9170 C.3    47  LEU47       0.0001
     64  CD2       13.8270   17.5930  -32.9330 C.3    47  LEU47       0.0001
     65  N         13.8680   22.3880  -32.5750 N.am   48  PRO48      -0.2716
     66  CA        13.7200   23.7960  -32.9620 C.3    48  PRO48       0.1536
     67  C         12.3240   24.1170  -33.4930 C.2    48  PRO48       0.2599
     68  O         11.6390   23.2340  -34.0120 O.2    48  PRO48      -0.2715
     69  CB        14.7530   23.9630  -34.0820 C.3    48  PRO48       0.0310
     70  CG        15.7550   22.8880  -33.8360 C.3    48  PRO48       0.0237
     71  CD        14.9580   21.7310  -33.3210 C.3    48  PRO48       0.0939
     72  N         11.9170   25.3760  -33.3570 N.am   49  GLY49      -0.1955
     73  CA        10.6350   25.8350  -33.8750 C.3    49  GLY49       0.1869
     74  C         10.6090   25.8510  -35.3910 C.2    49  GLY49       0.2309
     75  O         11.5510   26.3240  -36.0320 O.2    49  GLY49      -0.2863
     76  N         -1.2860   25.3420  -25.7660 N.3   104  ASN104     -0.1225
     77  CA        -0.6100   26.3010  -24.9130 C.3   104  ASN104      0.1785
     78  C         -1.1260   27.7140  -25.1800 C.2   104  ASN104      0.2597
     79  O         -1.9160   27.9280  -26.1030 O.2   104  ASN104     -0.2718
     80  CB         0.8990   26.2260  -25.1460 C.3   104  ASN104      0.1169
     81  CG         1.6960   26.8060  -23.9970 C.2   104  ASN104      0.2627
     82  OD1        1.4270   26.5170  -22.8310 O.2   104  ASN104     -0.2716
     83  ND2        2.6880   27.6340  -24.3210 N.am  104  ASN104     -0.0877
     84  N         -0.6780   28.6700  -24.3670 N.am  105  MET105     -0.1979
     85  CA        -1.0210   30.0860  -24.5270 C.3   105  MET105      0.1605
     86  C         -2.5040   30.3580  -24.2550 C.2   105  MET105      0.2287
     87  O         -3.1040   31.2410  -24.8720 O.2   105  MET105     -0.2864
     88  CB        -0.6180   30.6020  -25.9220 C.3   105  MET105      0.0413
     89  CG         0.8230   30.3030  -26.3400 C.3   105  MET105      0.0598
     90  SD         2.0150   31.4630  -25.6580 S.3   105  MET105     -0.1393
     91  CE         1.8910   32.8200  -26.8270 C.3   105  MET105      0.0692
     92  N         -3.8810   31.7880  -21.8190 N.3   107  ASP107     -0.1225
     93  CA        -4.0510   33.1490  -21.3250 C.3   107  ASP107      0.1805
     94  C         -4.2390   34.1730  -22.4510 C.2   107  ASP107      0.2597
     95  O         -5.1080   35.0410  -22.3570 O.2   107  ASP107     -0.2718
     96  CB        -2.9020   33.5450  -20.3830 C.3   107  ASP107      0.1424
     97  CG        -1.5310   33.1040  -20.8910 C.2   107  ASP107      0.3668
     98  OD1       -1.3760   31.9240  -21.2870 O.co2 107  ASP107     -0.2456
     99  OD2       -0.5970   33.9390  -20.8680 O.co2 107  ASP107     -0.2456
    100  N         -3.4460   34.0590  -23.5140 N.am  108  ILE108     -0.1980
    101  CA        -3.5500   34.9740  -24.6560 C.3   108  ILE108      0.1595
    102  C         -4.8650   34.7730  -25.4030 C.2   108  ILE108      0.2287
    103  O         -5.5360   35.7460  -25.7590 O.2   108  ILE108     -0.2864
    104  CB        -2.3520   34.8470  -25.6350 C.3   108  ILE108      0.0276
    105  CG1       -1.0380   35.1970  -24.9360 C.3   108  ILE108      0.0022
    106  CG2       -2.5160   35.7740  -26.8290 C.3   108  ILE108      0.0022
    107  CD1       -0.4020   34.0340  -24.2180 C.3   108  ILE108      0.0001
@<TRIPOS>BOND
     1    75    74    2
     2     7     6    1
     3     7     1    1
     4     6     5    1
     5    74    73    1
     6     5     2    1
     7     1     2    1
     8    69    70    1
     9    69    66    1
    10    68    67    2
    11    73    72    1
    12    70    71    1
    13    67    72   am
    14    67    66    1
    15     2     3    1
    16    71    65    1
    17    66    65    1
    18    64    62    1
    19    63    62    1
    20     4     3    2
    21    65    59   am
    22     3     8   am
    23    62    61    1
    24    61    58    1
    25    59    58    1
    26    59    60    2
    27    34    33    1
    28    58    57    1
    29     8     9    1
    30    15    13   am
    31    33    32    1
    32    12    13    1
    33    12     9    1
    34    13    14    2
    35     9    10    1
    36    21    20    1
    37    20    17    1
    38    57    51   am
    39    32    31    1
    40    10    11    2
    41    10    16   am
    42    16    17    1
    43    17    18    1
    44    52    51    2
    45    51    50    1
    46    31    30    1
    47    55    54   ar
    48    18    22   am
    49    18    19    2
    50    30    27    1
    51    50    49    1
    52    50    53    1
    53    22    23    1
    54   106   104    1
    55    91    90    1
    56    54    53    1
    57    54    56   ar
    58    26    27    1
    59    26    24   am
    60    89    88    1
    61    89    90    1
    62    27    28    1
    63    79    78    2
    64    88    85    1
    65    76    77    1
    66   103   102    2
    67   104   105    1
    68   104   101    1
    69    23    24    1
    70    40    39    1
    71   102   101    1
    72    24    25    2
    73    78    77    1
    74    78    84   am
    75    80    77    1
    76    80    81    1
    77    28    35   am
    78    28    29    2
    79    35    36    1
    80   105   107    1
    81    87    86    2
    82   101   100    1
    83    85    84    1
    84    85    86    1
    85    83    81   am
    86    39    36    1
    87    39    41    1
    88    81    82    2
    89    36    37    1
    90   100    94   am
    91    37    42   am
    92    37    38    2
    93    42    43    1
    94    94    95    2
    95    94    93    1
    96    47    46    1
    97    92    93    1
    98    46    43    1
    99    46    48    1
   100    93    96    1
   101    98    97   ar
   102    43    44    1
   103    97    99   ar
   104    97    96    1
   105    44    45    2
