@<TRIPOS>MOLECULE
tmp/3hyuB00.pdb
 219 209 0 0 0
SMALL
GASTEIGER

@<TRIPOS>ATOM
      1  N        -11.3330  -26.1110   -3.7440 N.3    28  LEU28      -0.1245
      2  CA        -9.9790  -26.3940   -3.2510 C.3    28  LEU28       0.1561
      3  C         -9.8260  -27.8810   -2.8680 C.2    28  LEU28       0.2260
      4  O         -8.7850  -28.4900   -3.1240 O.2    28  LEU28      -0.2867
      5  CB        -9.6370  -25.4940   -2.0610 C.3    28  LEU28       0.0270
      6  CG        -8.1940  -25.6110   -1.5730 C.3    28  LEU28       0.0019
      7  CD1       -7.1860  -25.2280   -2.6750 C.3    28  LEU28       0.0001
      8  CD2       -7.9680  -24.7390   -0.3690 C.3    28  LEU28       0.0001
      9  N         -9.3590  -29.7860   -6.0180 N.3    31  LEU31      -0.1245
     10  CA        -7.9960  -29.5550   -6.5360 C.3    31  LEU31       0.1561
     11  C         -6.9940  -30.5240   -5.8880 C.2    31  LEU31       0.2260
     12  O         -6.1830  -31.1640   -6.5730 O.2    31  LEU31      -0.2867
     13  CB        -7.5350  -28.1080   -6.2810 C.3    31  LEU31       0.0270
     14  CG        -6.1660  -27.8130   -6.9240 C.3    31  LEU31       0.0019
     15  CD1       -6.3080  -27.5540   -8.4180 C.3    31  LEU31       0.0001
     16  CD2       -5.4810  -26.6510   -6.2310 C.3    31  LEU31       0.0001
     17  N         -0.5650  -30.7240   -5.8610 N.3    38  THR38      -0.1218
     18  CA        -0.8750  -29.3990   -5.3170 C.3    38  THR38       0.1862
     19  C         -0.8150  -29.3810   -3.7800 C.2    38  THR38       0.2287
     20  O         -0.7090  -28.3080   -3.1700 O.2    38  THR38      -0.2866
     21  CB        -2.2330  -28.8670   -5.8010 C.3    38  THR38       0.1770
     22  OG1       -3.2710  -29.7890   -5.4380 O.3    38  THR38      -0.2211
     23  CG2       -2.2120  -28.6790   -7.3200 C.3    38  THR38       0.0375
     24  N          1.9740  -27.5010   -1.5530 N.3    41  PHE41      -0.1227
     25  CA         1.8790  -26.0960   -1.1340 C.3    41  PHE41       0.1736
     26  C          1.1670  -25.9140    0.2040 C.2    41  PHE41       0.2595
     27  O          1.2560  -24.8460    0.8150 O.2    41  PHE41      -0.2718
     28  CB         1.1780  -25.2670   -2.2210 C.3    41  PHE41       0.0547
     29  CG         1.9710  -25.1660   -3.4890 C.ar   41  PHE41      -0.0202
     30  CD1        3.0260  -24.2590   -3.5860 C.ar   41  PHE41      -0.0042
     31  CD2        1.6920  -25.9910   -4.5650 C.ar   41  PHE41      -0.0042
     32  CE1        3.7790  -24.1720   -4.7450 C.ar   41  PHE41      -0.0003
     33  CE2        2.4440  -25.9130   -5.7290 C.ar   41  PHE41      -0.0003
     34  CZ         3.4880  -24.9950   -5.8170 C.ar   41  PHE41      -0.0000
     35  N          0.4700  -26.9490    0.6550 N.am   42  PHE42      -0.1976
     36  CA        -0.4180  -26.8330    1.8210 C.3    42  PHE42       0.1639
     37  C         -0.1000  -27.8590    2.9290 C.2    42  PHE42       0.2290
     38  O         -0.9750  -28.2580    3.6850 O.2    42  PHE42      -0.2864
     39  CB        -1.8950  -26.9460    1.3740 C.3    42  PHE42       0.0560
     40  CG        -2.3140  -25.9300    0.3170 C.ar   42  PHE42      -0.0200
     41  CD1       -2.5790  -24.6060    0.6570 C.ar   42  PHE42      -0.0042
     42  CD2       -2.4540  -26.3030   -1.0180 C.ar   42  PHE42      -0.0042
     43  CE1       -2.9630  -23.6850   -0.3070 C.ar   42  PHE42      -0.0003
     44  CE2       -2.8450  -25.3950   -1.9810 C.ar   42  PHE42      -0.0003
     45  CZ        -3.1060  -24.0770   -1.6370 C.ar   42  PHE42      -0.0000
     46  N          1.2090  -27.6040    5.7880 N.3    44  LYS44      -0.1231
     47  CA         0.9090  -27.1090    7.1290 C.3    44  LYS44       0.1693
     48  C         -0.5400  -27.3960    7.5620 C.2    44  LYS44       0.2592
     49  O         -0.8670  -27.3440    8.7500 O.2    44  LYS44      -0.2718
     50  CB         1.2030  -25.6100    7.2170 C.3    44  LYS44       0.0285
     51  CG         0.1010  -24.7360    6.6130 C.3    44  LYS44       0.0035
     52  CD         0.0190  -23.3530    7.2570 C.3    44  LYS44       0.0206
     53  CE         0.8470  -22.3260    6.4960 C.3    44  LYS44       0.1093
     54  NZ         0.6500  -20.9200    7.0030 N.3    44  LYS44      -0.1314
     55  N         -1.4080  -27.7080    6.6010 N.am   45  PHE45      -0.1976
     56  CA        -2.8250  -27.9300    6.9010 C.3    45  PHE45       0.1639
     57  C         -3.1300  -29.2050    7.6960 C.2    45  PHE45       0.2290
     58  O         -4.1790  -29.3010    8.3320 O.2    45  PHE45      -0.2864
     59  CB        -3.6350  -27.9600    5.5990 C.3    45  PHE45       0.0560
     60  CG        -3.8770  -26.6140    4.9930 C.ar   45  PHE45      -0.0200
     61  CD1       -3.2260  -25.4920    5.4610 C.ar   45  PHE45      -0.0042
     62  CD2       -4.7470  -26.4770    3.9110 C.ar   45  PHE45      -0.0042
     63  CE1       -3.4540  -24.2480    4.8950 C.ar   45  PHE45      -0.0003
     64  CE2       -4.9730  -25.2380    3.3390 C.ar   45  PHE45      -0.0003
     65  CZ        -4.3250  -24.1210    3.8280 C.ar   45  PHE45      -0.0000
     66  N         -9.5050  -21.9480    3.9100 N.3    63  HIS63      -0.1241
     67  CA        -8.7070  -21.3740    2.8360 C.3    63  HIS63       0.1621
     68  C         -9.4760  -21.3100    1.5120 C.2    63  HIS63       0.2264
     69  O         -9.3470  -20.3360    0.7520 O.2    63  HIS63      -0.2867
     70  CB        -7.3780  -22.1200    2.6290 C.3    63  HIS63       0.0745
     71  CG        -6.4440  -21.3920    1.7120 C.ar   63  HIS63       0.0817
     72  ND1       -5.7860  -20.2400    2.0900 N.ar   63  HIS63      -0.2268
     73  CD2       -6.1000  -21.6170    0.4190 C.ar   63  HIS63       0.1154
     74  CE1       -5.0640  -19.7960    1.0720 C.ar   63  HIS63       0.1986
     75  NE2       -5.2320  -20.6150    0.0510 N.ar   63  HIS63      -0.2212
     76  N        -11.5800  -18.3220    1.5640 N.3    66  LYS66      -0.1231
     77  CA       -10.7580  -17.1370    1.3420 C.3    66  LYS66       0.1693
     78  C        -10.4350  -16.9560   -0.1460 C.2    66  LYS66       0.2591
     79  O        -10.4830  -15.8440   -0.6780 O.2    66  LYS66      -0.2718
     80  CB        -9.4670  -17.2470    2.1750 C.3    66  LYS66       0.0285
     81  CG        -8.5600  -16.0430    2.0500 C.3    66  LYS66       0.0035
     82  CD        -7.2970  -16.2340    2.9010 C.3    66  LYS66       0.0206
     83  CE        -7.6280  -16.3150    4.3670 C.3    66  LYS66       0.1093
     84  NZ        -6.3550  -16.4360    5.1570 N.3    66  LYS66      -0.1314
     85  N        -10.1150  -18.0580   -0.8310 N.am   67  VAL67      -0.1980
     86  CA        -9.8040  -18.0060   -2.2620 C.3    67  VAL67       0.1595
     87  C        -11.0280  -17.5240   -3.0320 C.2    67  VAL67       0.2287
     88  O        -10.9240  -16.6700   -3.9170 O.2    67  VAL67      -0.2864
     89  CB        -9.3670  -19.3850   -2.7920 C.3    67  VAL67       0.0276
     90  CG1       -9.2750  -19.3760   -4.3240 C.3    67  VAL67       0.0022
     91  CG2       -8.0180  -19.8000   -2.1600 C.3    67  VAL67       0.0022
     92  N        -11.7780  -13.8840   -2.6770 N.3    70  SER70      -0.1202
     93  CA       -10.8490  -13.1350   -3.5160 C.3    70  SER70       0.2020
     94  C        -11.3220  -13.1200   -4.9810 C.2    70  SER70       0.2618
     95  O        -11.2950  -12.0920   -5.6770 O.2    70  SER70      -0.2717
     96  CB        -9.4460  -13.7360   -3.3760 C.3    70  SER70       0.2103
     97  OG        -8.5530  -13.1000   -4.2460 O.3    70  SER70      -0.2182
     98  N        -11.7760  -14.2780   -5.4440 N.am   71  PHE71      -0.1975
     99  CA       -12.3960  -14.4080   -6.7520 C.3    71  PHE71       0.1639
    100  C        -13.6200  -13.4830   -6.8820 C.2    71  PHE71       0.2290
    101  O        -13.7720  -12.7980   -7.8800 O.2    71  PHE71      -0.2864
    102  CB       -12.7480  -15.8900   -6.9720 C.3    71  PHE71       0.0560
    103  CG       -13.2720  -16.2130   -8.3460 C.ar   71  PHE71      -0.0200
    104  CD1      -12.4010  -16.5450   -9.3740 C.ar   71  PHE71      -0.0042
    105  CD2      -14.6400  -16.2380   -8.5930 C.ar   71  PHE71      -0.0042
    106  CE1      -12.8990  -16.8710  -10.6460 C.ar   71  PHE71      -0.0003
    107  CE2      -15.1310  -16.5590   -9.8590 C.ar   71  PHE71      -0.0003
    108  CZ       -14.2560  -16.8660  -10.8780 C.ar   71  PHE71      -0.0000
    109  N         -5.3190   -8.2750   -9.2140 N.3    85  PHE85      -0.1241
    110  CA        -4.5810   -9.4490   -8.7520 C.3    85  PHE85       0.1605
    111  C         -3.0660   -9.2830   -8.7070 C.2    85  PHE85       0.2264
    112  O         -2.3470  -10.2470   -8.4640 O.2    85  PHE85      -0.2867
    113  CB        -4.9790  -10.7020   -9.5530 C.3    85  PHE85       0.0534
    114  CG        -6.3530  -11.2170   -9.1950 C.ar   85  PHE85      -0.0203
    115  CD1       -6.5390  -12.0130   -8.0700 C.ar   85  PHE85      -0.0042
    116  CD2       -7.4520  -10.8800   -9.9630 C.ar   85  PHE85      -0.0042
    117  CE1       -7.8120  -12.4670   -7.7220 C.ar   85  PHE85      -0.0003
    118  CE2       -8.7150  -11.3340   -9.6310 C.ar   85  PHE85      -0.0003
    119  CZ        -8.9000  -12.1250   -8.5050 C.ar   85  PHE85      -0.0000
    120  N         -1.3840  -10.4230   -5.3570 N.3    88  LEU88      -0.1245
    121  CA        -1.4660  -11.8750   -5.2660 C.3    88  LEU88       0.1561
    122  C         -0.5890  -12.5460   -6.3110 C.2    88  LEU88       0.2260
    123  O         -0.0530  -13.6260   -6.0530 O.2    88  LEU88      -0.2867
    124  CB        -2.9160  -12.3400   -5.3960 C.3    88  LEU88       0.0270
    125  CG        -3.7620  -12.0940   -4.1430 C.3    88  LEU88       0.0019
    126  CD1       -5.2600  -12.3290   -4.4630 C.3    88  LEU88       0.0001
    127  CD2       -3.3150  -12.9660   -2.9760 C.3    88  LEU88       0.0001
    128  N          2.7960  -12.6580   -4.8960 N.3    91  LEU91      -0.1231
    129  CA         2.8650  -13.7070   -3.8880 C.3    91  LEU91       0.1693
    130  C          3.0130  -15.0780   -4.5300 C.2    91  LEU91       0.2592
    131  O          3.9210  -15.8350   -4.1860 O.2    91  LEU91      -0.2718
    132  CB         1.6240  -13.6960   -2.9930 C.3    91  LEU91       0.0284
    133  CG         1.4810  -14.8450   -1.9890 C.3    91  LEU91       0.0019
    134  CD1        2.5890  -14.7970   -0.9450 C.3    91  LEU91       0.0001
    135  CD2        0.1010  -14.8210   -1.3290 C.3    91  LEU91       0.0001
    136  N          2.1110  -15.4040   -5.4470 N.am   92  HIS92      -0.1976
    137  CA         2.0350  -16.7820   -5.9510 C.3    92  HIS92       0.1656
    138  C          3.2080  -17.0820   -6.8820 C.2    92  HIS92       0.2291
    139  O          3.6300  -18.2360   -6.9830 O.2    92  HIS92      -0.2864
    140  CB         0.6920  -17.0750   -6.6580 C.3    92  HIS92       0.0771
    141  CG        -0.4950  -17.2150   -5.7320 C.ar   92  HIS92       0.0820
    142  ND1       -1.1470  -16.1330   -5.1750 N.ar   92  HIS92      -0.2267
    143  CD2       -1.1750  -18.3130   -5.3140 C.ar   92  HIS92       0.1154
    144  CE1       -2.1540  -16.5660   -4.4240 C.ar   92  HIS92       0.1986
    145  NE2       -2.1960  -17.8880   -4.4910 N.ar   92  HIS92      -0.2212
    146  N          5.8670  -18.0030   -3.9390 N.3    96  LEU96      -0.1245
    147  CA         5.4470  -19.4020   -3.8330 C.3    96  LEU96       0.1561
    148  C          5.8460  -20.2670   -5.0370 C.2    96  LEU96       0.2260
    149  O          5.8620  -21.4990   -4.9450 O.2    96  LEU96      -0.2867
    150  CB         3.9320  -19.4810   -3.5720 C.3    96  LEU96       0.0270
    151  CG         3.4100  -18.7620   -2.3200 C.3    96  LEU96       0.0019
    152  CD1        1.8640  -18.6680   -2.3110 C.3    96  LEU96       0.0001
    153  CD2        3.9120  -19.4050   -1.0430 C.3    96  LEU96       0.0001
    154  N          4.2310  -20.9930   -7.7760 N.3    98  VAL98      -0.1245
    155  CA         3.1830  -21.8770   -8.2710 C.3    98  VAL98       0.1561
    156  C          3.1580  -21.8520   -9.7870 C.2    98  VAL98       0.2260
    157  O          3.0670  -20.7860  -10.4050 O.2    98  VAL98      -0.2867
    158  CB         1.8050  -21.4320   -7.7360 C.3    98  VAL98       0.0252
    159  CG1        0.6950  -22.3420   -8.2760 C.3    98  VAL98       0.0019
    160  CG2        1.8170  -21.4220   -6.2260 C.3    98  VAL98       0.0019
    161  N         -1.5630  -24.5790  -12.6730 N.3   102  ASN102     -0.1225
    162  CA        -2.3650  -24.8460  -11.4730 C.3   102  ASN102      0.1785
    163  C         -3.4440  -23.8010  -11.1980 C.2   102  ASN102      0.2597
    164  O         -4.4970  -24.1370  -10.6470 O.2   102  ASN102     -0.2718
    165  CB        -1.4790  -25.0570  -10.2410 C.3   102  ASN102      0.1169
    166  CG        -0.5350  -26.2530  -10.4010 C.2   102  ASN102      0.2627
    167  OD1       -0.9660  -27.3930  -10.6060 O.2   102  ASN102     -0.2716
    168  ND2        0.7630  -25.9880  -10.3130 N.am  102  ASN102     -0.0877
    169  N         -3.2010  -22.5440  -11.5730 N.am  103  PHE103     -0.1976
    170  CA        -4.2850  -21.5390  -11.5060 C.3   103  PHE103      0.1639
    171  C         -5.4880  -21.9350  -12.4000 C.2   103  PHE103      0.2290
    172  O         -6.6500  -21.7810  -12.0180 O.2   103  PHE103     -0.2864
    173  CB        -3.8140  -20.1430  -11.9360 C.3   103  PHE103      0.0560
    174  CG        -2.5930  -19.6240  -11.2040 C.ar  103  PHE103     -0.0200
    175  CD1       -2.4270  -19.8070   -9.8450 C.ar  103  PHE103     -0.0042
    176  CD2       -1.6350  -18.8940  -11.9100 C.ar  103  PHE103     -0.0042
    177  CE1       -1.2730  -19.3080   -9.1890 C.ar  103  PHE103     -0.0003
    178  CE2       -0.4850  -18.3960  -11.2800 C.ar  103  PHE103     -0.0003
    179  CZ        -0.2990  -18.5880   -9.9260 C.ar  103  PHE103     -0.0000
    180  N         -7.4620  -24.8250  -10.8180 N.3   106  LEU106     -0.1231
    181  CA        -8.3530  -24.4140   -9.7190 C.3   106  LEU106      0.1693
    182  C         -9.6050  -23.7270  -10.2790 C.2   106  LEU106      0.2592
    183  O        -10.7220  -23.9410   -9.7770 O.2   106  LEU106     -0.2718
    184  CB        -7.6230  -23.5580   -8.6690 C.3   106  LEU106      0.0284
    185  CG        -8.4610  -23.1600   -7.4400 C.3   106  LEU106      0.0019
    186  CD1       -9.0970  -24.3500   -6.7550 C.3   106  LEU106      0.0001
    187  CD2       -7.5590  -22.4220   -6.4400 C.3   106  LEU106      0.0001
    188  N         -9.4260  -22.9260  -11.3360 N.am  107  GLY107     -0.1957
    189  CA       -10.5730  -22.3350  -12.0380 C.3   107  GLY107      0.1869
    190  C        -11.5290  -23.4070  -12.5330 C.2   107  GLY107      0.2309
    191  O        -12.7610  -23.2710  -12.4140 O.2   107  GLY107     -0.2863
    192  N        -13.6250  -24.7010   -9.6510 N.3   110  ILE110     -0.1245
    193  CA       -14.7410  -23.7930   -9.3540 C.3   110  ILE110      0.1561
    194  C        -15.9080  -24.0540  -10.3160 C.2   110  ILE110      0.2260
    195  O        -17.0750  -24.1040   -9.9130 O.2   110  ILE110     -0.2867
    196  CB       -14.2610  -22.3220   -9.4390 C.3   110  ILE110      0.0252
    197  CG1      -13.2490  -22.0510   -8.3110 C.3   110  ILE110      0.0019
    198  CG2      -15.4420  -21.3610   -9.3730 C.3   110  ILE110      0.0019
    199  CD1      -12.5740  -20.6670   -8.4370 C.3   110  ILE110      0.0001
    200  N         -8.7440  -14.7390  -14.6630 N.3   137  VAL137     -0.1231
    201  CA        -8.1770  -14.6740  -13.3240 C.3   137  VAL137      0.1692
    202  C         -6.8410  -15.4290  -13.3040 C.2   137  VAL137      0.2591
    203  O         -5.8550  -14.9490  -12.7210 O.2   137  VAL137     -0.2718
    204  CB        -9.1550  -15.1930  -12.2320 C.3   137  VAL137      0.0266
    205  CG1       -8.4300  -15.3650  -10.8920 C.3   137  VAL137      0.0020
    206  CG2      -10.3160  -14.2240  -12.0500 C.3   137  VAL137      0.0020
    207  N         -6.7850  -16.5940  -13.9550 N.am  138  ALA138     -0.1980
    208  CA        -5.5190  -17.3350  -14.0440 C.3   138  ALA138      0.1597
    209  C         -4.4300  -16.5250  -14.7490 C.2   138  ALA138      0.2287
    210  O         -3.2660  -16.5200  -14.3080 O.2   138  ALA138     -0.2864
    211  CB        -5.7080  -18.6900  -14.7300 C.3   138  ALA138      0.0319
    212  N         -3.1750  -13.8070  -12.4200 N.3   141  LEU141     -0.1245
    213  CA        -2.3300  -14.3460  -11.3560 C.3   141  LEU141      0.1561
    214  C         -0.9520  -14.7140  -11.8860 C.2   141  LEU141      0.2260
    215  O          0.0300  -14.7030  -11.1350 O.2   141  LEU141     -0.2867
    216  CB        -2.9910  -15.5730  -10.6920 C.3   141  LEU141      0.0270
    217  CG        -4.0850  -15.2670   -9.6620 C.3   141  LEU141      0.0019
    218  CD1       -4.8550  -16.5650   -9.3810 C.3   141  LEU141      0.0001
    219  CD2       -3.5460  -14.6560   -8.3440 C.3   141  LEU141      0.0001
@<TRIPOS>BOND
     1   209   210    2
     2   209   208    1
     3   211   208    1
     4   200   201    1
     5   208   207    1
     6   207   202   am
     7   201   202    1
     8   201   204    1
     9   202   203    2
    10   161   162    1
    11   190   191    2
    12   190   189    1
    13   212   213    1
    14   171   172    2
    15   171   170    1
    16   204   206    1
    17   204   205    1
    18   189   188    1
    19   173   170    1
    20   173   174    1
    21   176   178   ar
    22   176   174   ar
    23   214   213    1
    24   214   215    2
    25   169   170    1
    26   169   163   am
    27   162   163    1
    28   162   165    1
    29   213   216    1
    30   188   182   am
    31   178   179   ar
    32   174   175   ar
    33   163   164    2
    34   108   106   ar
    35   108   107   ar
    36   180   181    1
    37   216   217    1
    38   106   104   ar
    39   167   166    2
    40   157   156    2
    41   166   168   am
    42   166   165    1
    43   194   195    2
    44   194   193    1
    45   182   183    2
    46   182   181    1
    47   116   118   ar
    48   116   114   ar
    49   179   177   ar
    50   107   105   ar
    51   175   177   ar
    52   156   155    1
    53   181   184    1
    54   217   218    1
    55   217   219    1
    56   192   193    1
    57   118   119   ar
    58   113   114    1
    59   113   110    1
    60   196   198    1
    61   196   193    1
    62   196   197    1
    63   104   103   ar
    64   109   110    1
    65   114   115   ar
    66   110   111    1
    67   111   112    2
    68   184   185    1
    69   105   103   ar
    70   119   117   ar
    71   199   197    1
    72    15    14    1
    73   103   102    1
    74   159   158    1
    75   155   154    1
    76   155   158    1
    77   115   117   ar
    78   101   100    2
    79   158   160    1
    80   185   186    1
    81   185   187    1
    82    23    21    1
    83   139   138    2
    84   102    99    1
    85    14    13    1
    86    14    16    1
    87   138   137    1
    88   100    99    1
    89    99    98    1
    90   140   137    1
    91   140   141    1
    92    12    11    2
    93    10    13    1
    94    10     9    1
    95    10    11    1
    96   122   123    2
    97   122   121    1
    98   137   136    1
    99    17    18    1
   100    34    33   ar
   101    34    32   ar
   102    21    22    1
   103    21    18    1
   104   141   143   ar
   105   141   142   ar
   106    33    31   ar
   107    95    94    2
   108   136   130   am
   109    98    94   am
   110   124   121    1
   111   124   125    1
   112   120   121    1
   113    18    19    1
   114   143   145   ar
   115   142   144   ar
   116   148   149    2
   117   148   147    1
   118    94    93    1
   119   128   129    1
   120    32    30   ar
   121    31    29   ar
   122   130   131    2
   123   130   129    1
   124   145   144   ar
   125   126   125    1
   126    90    89    1
   127    97    96    1
   128   125   127    1
   129   146   147    1
   130    88    87    2
   131   129   132    1
   132   147   150    1
   133    19    20    2
   134     1     2    1
   135    30    29   ar
   136   150   151    1
   137    93    96    1
   138    93    92    1
   139    29    28    1
   140     2     3    1
   141     2     5    1
   142     4     3    2
   143    87    86    1
   144   132   133    1
   145    89    86    1
   146    89    91    1
   147     7     6    1
   148   151   152    1
   149   151   153    1
   150    86    85    1
   151    28    25    1
   152     5     6    1
   153   133   135    1
   154   133   134    1
   155    44    45   ar
   156    44    42   ar
   157    45    43   ar
   158     6     8    1
   159    24    25    1
   160    25    26    1
   161    42    40   ar
   162    85    78   am
   163    79    78    2
   164    43    41   ar
   165    78    77    1
   166    75    73   ar
   167    75    74   ar
   168    26    35   am
   169    26    27    2
   170    40    41   ar
   171    40    39    1
   172    73    71   ar
   173    35    36    1
   174    69    68    2
   175    74    72   ar
   176    77    76    1
   177    77    80    1
   178    39    36    1
   179    68    67    1
   180    71    72   ar
   181    71    70    1
   182    36    37    1
   183    81    80    1
   184    81    82    1
   185    70    67    1
   186    67    66    1
   187    82    83    1
   188    37    38    2
   189    64    65   ar
   190    64    62   ar
   191    65    63   ar
   192    62    60   ar
   193    83    84    1
   194    63    61   ar
   195    60    61   ar
   196    60    59    1
   197    59    56    1
   198    46    47    1
   199    53    54    1
   200    53    52    1
   201    55    56    1
   202    55    48   am
   203    51    50    1
   204    51    52    1
   205    56    57    1
   206    47    50    1
   207    47    48    1
   208    48    49    2
   209    57    58    2
