@<TRIPOS>MOLECULE
tmp/3hyuA00.pdb
 226 214 0 0 0
SMALL
GASTEIGER

@<TRIPOS>ATOM
      1  N        -20.5430  -32.5480  -25.6770 N.3    29  LEU29      -0.1245
      2  CA       -20.1320  -31.9760  -26.9770 C.3    29  LEU29       0.1561
      3  C        -20.6760  -30.5430  -27.1270 C.2    29  LEU29       0.2260
      4  O        -19.9560  -29.6170  -27.5350 O.2    29  LEU29      -0.2867
      5  CB       -20.6260  -32.8630  -28.1310 C.3    29  LEU29       0.0270
      6  CG       -19.9270  -34.2350  -28.2560 C.3    29  LEU29       0.0019
      7  CD1      -20.7410  -35.1460  -29.1720 C.3    29  LEU29       0.0001
      8  CD2      -18.4850  -34.0840  -28.7730 C.3    29  LEU29       0.0001
      9  N        -18.6740  -28.2780  -25.0220 N.3    32  MET32      -0.1245
     10  CA       -17.3770  -28.0450  -25.6610 C.3    32  MET32       0.1570
     11  C        -17.4930  -27.0080  -26.7990 C.2    32  MET32       0.2261
     12  O        -16.7210  -26.0510  -26.8500 O.2    32  MET32      -0.2867
     13  CB       -16.7970  -29.3610  -26.2040 C.3    32  MET32       0.0387
     14  CG       -15.4410  -29.2000  -26.8790 C.3    32  MET32       0.0595
     15  SD       -14.8640  -30.6950  -27.6840 S.3    32  MET32      -0.1393
     16  CE       -16.0780  -30.7770  -29.0210 C.3    32  MET32       0.0692
     17  N        -13.2040  -25.5710  -31.2800 N.3    39  THR39      -0.1218
     18  CA       -13.3810  -27.0000  -31.5110 C.3    39  THR39       0.1862
     19  C        -14.3540  -27.2730  -32.6490 C.2    39  THR39       0.2287
     20  O        -14.3570  -28.3850  -33.2090 O.2    39  THR39      -0.2866
     21  CB       -13.8850  -27.7560  -30.2540 C.3    39  THR39       0.1770
     22  OG1      -15.1440  -27.1980  -29.8360 O.3    39  THR39      -0.2211
     23  CG2      -12.8770  -27.6260  -29.1420 C.3    39  THR39       0.0375
     24  N        -13.5050  -28.8930  -36.3850 N.3    42  TYR42      -0.1227
     25  CA       -13.4670  -30.3110  -36.7250 C.3    42  TYR42       0.1736
     26  C        -14.8210  -30.8640  -37.1570 C.2    42  TYR42       0.2595
     27  O        -14.9070  -31.9630  -37.7210 O.2    42  TYR42      -0.2718
     28  CB       -12.9370  -31.1030  -35.5140 C.3    42  TYR42       0.0548
     29  CG       -11.4890  -30.7840  -35.1990 C.ar   42  TYR42      -0.0200
     30  CD1      -10.4640  -31.4590  -35.8550 C.ar   42  TYR42      -0.0009
     31  CD2      -11.1530  -29.8230  -34.2370 C.ar   42  TYR42      -0.0009
     32  CE1       -9.1250  -31.1770  -35.5910 C.ar   42  TYR42       0.0417
     33  CE2       -9.8260  -29.5230  -33.9620 C.ar   42  TYR42       0.0417
     34  CZ        -8.8200  -30.1970  -34.6450 C.ar   42  TYR42       0.1957
     35  OH        -7.5070  -29.9080  -34.3620 O.3    42  TYR42      -0.2866
     36  N        -15.8830  -30.1030  -36.8890 N.am   43  PHE43      -0.1976
     37  CA       -17.2480  -30.5810  -37.1190 C.3    43  PHE43       0.1639
     38  C        -18.0030  -29.6970  -38.1110 C.2    43  PHE43       0.2290
     39  O        -19.2250  -29.5370  -38.0120 O.2    43  PHE43      -0.2864
     40  CB       -17.9920  -30.7250  -35.7950 C.3    43  PHE43       0.0560
     41  CG       -17.4750  -31.8750  -34.9390 C.ar   43  PHE43      -0.0200
     42  CD1      -16.4820  -31.6540  -33.9880 C.ar   43  PHE43      -0.0042
     43  CD2      -17.9430  -33.1620  -35.1350 C.ar   43  PHE43      -0.0042
     44  CE1      -15.9820  -32.7110  -33.2110 C.ar   43  PHE43      -0.0003
     45  CE2      -17.4520  -34.2410  -34.3750 C.ar   43  PHE43      -0.0003
     46  CZ       -16.4680  -34.0010  -33.4020 C.ar   43  PHE43      -0.0000
     47  N        -18.8280  -30.3180  -40.9940 N.3    45  HIS45      -0.1226
     48  CA       -19.6940  -31.1360  -41.8490 C.3    45  HIS45       0.1752
     49  C        -21.0840  -31.4550  -41.2880 C.2    45  HIS45       0.2595
     50  O        -21.9390  -31.9790  -42.0320 O.2    45  HIS45      -0.2718
     51  CB       -18.9740  -32.4320  -42.2230 C.3    45  HIS45       0.0759
     52  CG       -18.6170  -33.2730  -41.0380 C.ar   45  HIS45       0.0818
     53  ND1      -17.7470  -32.8410  -40.0540 N.ar   45  HIS45      -0.2268
     54  CD2      -19.0150  -34.5160  -40.6760 C.ar   45  HIS45       0.1154
     55  CE1      -17.6360  -33.7840  -39.1320 C.ar   45  HIS45       0.1986
     56  NE2      -18.3860  -34.8130  -39.4890 N.ar   45  HIS45      -0.2212
     57  N        -21.3100  -31.1780  -39.9950 N.am   46  ILE46      -0.1980
     58  CA       -22.6000  -31.4760  -39.3530 C.3    46  ILE46       0.1595
     59  C        -23.2560  -30.2310  -38.7430 C.2    46  ILE46       0.2287
     60  O        -22.6150  -29.1930  -38.6020 O.2    46  ILE46      -0.2864
     61  CB       -22.4890  -32.5660  -38.2570 C.3    46  ILE46       0.0276
     62  CG1      -21.5150  -32.1570  -37.1500 C.3    46  ILE46       0.0022
     63  CG2      -22.0580  -33.9140  -38.8470 C.3    46  ILE46       0.0022
     64  CD1      -21.7750  -32.9270  -35.8300 C.3    46  ILE46       0.0001
     65  N        -23.6920  -38.2370  -33.0010 N.3    58  HIS58      -0.1241
     66  CA       -22.2630  -38.2920  -32.6960 C.3    58  HIS58       0.1621
     67  C        -22.0170  -38.6320  -31.2260 C.2    58  HIS58       0.2264
     68  O        -21.0650  -39.3640  -30.8960 O.2    58  HIS58      -0.2867
     69  CB       -21.5180  -37.0000  -33.1000 C.3    58  HIS58       0.0745
     70  CG       -20.0350  -37.1860  -33.1590 C.ar   58  HIS58       0.0817
     71  ND1      -19.4270  -37.8620  -34.1940 N.ar   58  HIS58      -0.2268
     72  CD2      -19.0520  -36.8760  -32.2790 C.ar   58  HIS58       0.1154
     73  CE1      -18.1230  -37.9320  -33.9670 C.ar   58  HIS58       0.1986
     74  NE2      -17.8700  -37.3430  -32.8130 N.ar   58  HIS58      -0.2212
     75  N        -22.0500  -42.3110  -30.8340 N.3    61  LYS61      -0.1231
     76  CA       -20.7580  -42.9040  -31.2660 C.3    61  LYS61       0.1693
     77  C        -19.6620  -42.7780  -30.2110 C.2    61  LYS61       0.2591
     78  O        -18.9780  -43.7520  -29.8940 O.2    61  LYS61      -0.2718
     79  CB       -20.2570  -42.2640  -32.5670 C.3    61  LYS61       0.0285
     80  CG       -21.1720  -42.5330  -33.7550 C.3    61  LYS61       0.0035
     81  CD       -20.6860  -41.7730  -34.9870 C.3    61  LYS61       0.0206
     82  CE       -21.6300  -42.0240  -36.1690 C.3    61  LYS61       0.1093
     83  NZ       -21.3420  -41.1270  -37.3330 N.3    61  LYS61      -0.1314
     84  N        -19.5160  -41.5760  -29.6590 N.am   62  VAL62      -0.1980
     85  CA       -18.4960  -41.3100  -28.6480 C.3    62  VAL62       0.1595
     86  C        -18.7900  -42.0910  -27.3600 C.2    62  VAL62       0.2287
     87  O        -17.8630  -42.6800  -26.7610 O.2    62  VAL62      -0.2864
     88  CB       -18.3580  -39.7880  -28.3740 C.3    62  VAL62       0.0276
     89  CG1      -17.3190  -39.5210  -27.2770 C.3    62  VAL62       0.0022
     90  CG2      -17.9430  -39.0590  -29.6770 C.3    62  VAL62       0.0022
     91  N        -17.8350  -45.7160  -27.8080 N.3    65  ALA65      -0.1231
     92  CA       -16.3890  -45.8630  -27.7650 C.3    65  ALA65       0.1694
     93  C        -15.8750  -45.7770  -26.3220 C.2    65  ALA65       0.2591
     94  O        -14.9800  -46.5360  -25.9310 O.2    65  ALA65      -0.2718
     95  CB       -15.7070  -44.8050  -28.6440 C.3    65  ALA65       0.0304
     96  N        -16.4330  -44.8590  -25.5300 N.am   66  LEU66      -0.1980
     97  CA       -16.0700  -44.8230  -24.1090 C.3    66  LEU66       0.1596
     98  C        -16.4700  -46.1310  -23.4160 C.2    66  LEU66       0.2287
     99  O        -15.7660  -46.6030  -22.5220 O.2    66  LEU66      -0.2864
    100  CB       -16.6630  -43.5870  -23.4030 C.3    66  LEU66       0.0297
    101  CG       -16.0170  -42.2450  -23.8150 C.3    66  LEU66       0.0022
    102  CD1      -16.8520  -41.0790  -23.2710 C.3    66  LEU66       0.0001
    103  CD2      -14.5670  -42.1440  -23.3230 C.3    66  LEU66       0.0001
    104  N         -8.5200  -49.4440  -28.6360 N.3    80  LEU80      -0.1245
    105  CA        -8.8220  -48.1830  -29.3160 C.3    80  LEU80       0.1561
    106  C         -7.9710  -47.9180  -30.5620 C.2    80  LEU80       0.2260
    107  O         -7.9240  -46.7840  -31.0600 O.2    80  LEU80      -0.2867
    108  CB        -8.6600  -47.0270  -28.3320 C.3    80  LEU80       0.0270
    109  CG        -9.5480  -47.1020  -27.0820 C.3    80  LEU80       0.0019
    110  CD1       -9.3100  -45.8690  -26.2150 C.3    80  LEU80       0.0001
    111  CD2      -11.0300  -47.2040  -27.4620 C.3    80  LEU80       0.0001
    112  N         -9.5420  -46.1620  -33.5230 N.3    83  LEU83      -0.1245
    113  CA        -9.8770  -44.7870  -33.2090 C.3    83  LEU83       0.1561
    114  C         -8.6490  -43.8650  -33.1170 C.2    83  LEU83       0.2260
    115  O         -8.7440  -42.6760  -33.4030 O.2    83  LEU83      -0.2867
    116  CB       -10.7670  -44.6910  -31.9500 C.3    83  LEU83       0.0270
    117  CG       -12.1790  -45.2240  -32.1750 C.3    83  LEU83       0.0019
    118  CD1      -12.9630  -45.2750  -30.8680 C.3    83  LEU83       0.0001
    119  CD2      -12.9300  -44.3780  -33.2140 C.3    83  LEU83       0.0001
    120  N         -8.0270  -42.8230  -36.5840 N.3    86  VAL86      -0.1231
    121  CA        -8.9180  -41.7420  -36.9610 C.3    86  VAL86       0.1692
    122  C         -8.4310  -40.3940  -36.4210 C.2    86  VAL86       0.2592
    123  O         -8.3680  -39.3980  -37.1410 O.2    86  VAL86      -0.2718
    124  CB       -10.3790  -42.0100  -36.4900 C.3    86  VAL86       0.0266
    125  CG1      -11.2730  -40.7730  -36.6760 C.3    86  VAL86       0.0020
    126  CG2      -10.9560  -43.2520  -37.2060 C.3    86  VAL86       0.0020
    127  N         -8.0890  -40.3430  -35.1400 N.am   87  HIS87      -0.1976
    128  CA        -7.9130  -39.0420  -34.5250 C.3    87  HIS87       0.1656
    129  C         -6.4810  -38.5240  -34.6540 C.2    87  HIS87       0.2291
    130  O         -6.2600  -37.3070  -34.7000 O.2    87  HIS87      -0.2864
    131  CB        -8.3540  -39.0630  -33.0390 C.3    87  HIS87       0.0771
    132  CG        -9.8450  -39.1610  -32.8430 C.ar   87  HIS87       0.0820
    133  ND1      -10.5150  -40.3660  -32.8830 N.ar   87  HIS87      -0.2267
    134  CD2      -10.7880  -38.2130  -32.6000 C.ar   87  HIS87       0.1154
    135  CE1      -11.8050  -40.1590  -32.6720 C.ar   87  HIS87       0.1986
    136  NE2      -12.0050  -38.8610  -32.5060 N.ar   87  HIS87      -0.2212
    137  N         -7.3070  -37.2120  -38.8590 N.3    91  LEU91      -0.1245
    138  CA        -7.8090  -35.8770  -38.5360 C.3    91  LEU91       0.1561
    139  C         -6.7890  -34.9290  -37.9040 C.2    91  LEU91       0.2260
    140  O         -7.0260  -33.7180  -37.8490 O.2    91  LEU91      -0.2867
    141  CB        -9.0260  -35.9660  -37.6080 C.3    91  LEU91       0.0270
    142  CG       -10.1600  -36.8630  -38.1120 C.3    91  LEU91       0.0019
    143  CD1      -11.1450  -37.1150  -36.9780 C.3    91  LEU91       0.0001
    144  CD2      -10.8420  -36.2420  -39.3400 C.3    91  LEU91       0.0001
    145  N         -5.9950  -34.2280  -34.7810 N.3    93  VAL93      -0.1245
    146  CA        -6.5950  -33.3570  -33.7540 C.3    93  VAL93       0.1561
    147  C         -5.5820  -32.8740  -32.7030 C.2    93  VAL93       0.2260
    148  O         -4.8730  -33.6790  -32.1080 O.2    93  VAL93      -0.2867
    149  CB        -7.7470  -34.0820  -33.0260 C.3    93  VAL93       0.0252
    150  CG1       -8.4220  -33.1710  -31.9950 C.3    93  VAL93       0.0019
    151  CG2       -8.7640  -34.6380  -34.0520 C.3    93  VAL93       0.0019
    152  N         -7.7480  -30.0450  -27.6870 N.3    97  ASN97      -0.1225
    153  CA        -9.1860  -30.2610  -27.8850 C.3    97  ASN97       0.1785
    154  C         -9.7080  -31.3730  -26.9750 C.2    97  ASN97       0.2597
    155  O        -10.8500  -31.3190  -26.5380 O.2    97  ASN97      -0.2718
    156  CB        -9.4860  -30.5900  -29.3320 C.3    97  ASN97       0.1169
    157  CG        -9.0750  -29.4690  -30.2680 C.2    97  ASN97       0.2627
    158  OD1       -8.0490  -29.5410  -30.9690 O.2    97  ASN97      -0.2716
    159  ND2       -9.8600  -28.4330  -30.2760 N.am   97  ASN97      -0.0877
    160  N         -8.8810  -32.3800  -26.7190 N.am   98  PHE98      -0.1976
    161  CA        -9.2560  -33.4540  -25.7810 C.3    98  PHE98       0.1639
    162  C         -9.3440  -32.9300  -24.3470 C.2    98  PHE98       0.2290
    163  O        -10.2170  -33.3470  -23.5850 O.2    98  PHE98      -0.2864
    164  CB        -8.2750  -34.6430  -25.8740 C.3    98  PHE98       0.0560
    165  CG        -8.4310  -35.4520  -27.1340 C.ar   98  PHE98      -0.0200
    166  CD1       -7.8010  -35.0440  -28.3190 C.ar   98  PHE98      -0.0042
    167  CD2       -9.2130  -36.6130  -27.1390 C.ar   98  PHE98      -0.0042
    168  CE1       -7.9790  -35.7690  -29.4960 C.ar   98  PHE98      -0.0003
    169  CE2       -9.3610  -37.3580  -28.3110 C.ar   98  PHE98      -0.0003
    170  CZ        -8.7610  -36.9170  -29.4900 C.ar   98  PHE98      -0.0000
    171  N        -12.7640  -31.3000  -24.2440 N.3   101  LEU101     -0.1231
    172  CA       -13.8660  -32.2760  -24.1670 C.3   101  LEU101      0.1693
    173  C        -13.9250  -32.9680  -22.8040 C.2   101  LEU101      0.2592
    174  O        -15.0010  -33.0770  -22.1920 O.2   101  LEU101     -0.2718
    175  CB       -13.7580  -33.3180  -25.2920 C.3   101  LEU101      0.0284
    176  CG       -14.8460  -34.3990  -25.2750 C.3   101  LEU101      0.0019
    177  CD1      -16.2350  -33.8270  -25.3140 C.3   101  LEU101      0.0001
    178  CD2      -14.6440  -35.3750  -26.4640 C.3   101  LEU101      0.0001
    179  N        -12.7750  -33.4250  -22.3160 N.am  102  ASN102     -0.1974
    180  CA       -12.7580  -34.1630  -21.0540 C.3   102  ASN102      0.1688
    181  C        -13.3050  -33.3170  -19.9070 C.2   102  ASN102      0.2292
    182  O        -14.0750  -33.8000  -19.0760 O.2   102  ASN102     -0.2864
    183  CB       -11.3380  -34.6060  -20.7130 C.3   102  ASN102      0.1181
    184  CG       -10.8090  -35.6550  -21.6690 C.2   102  ASN102      0.2629
    185  OD1      -11.5710  -36.2790  -22.4240 O.2   102  ASN102     -0.2716
    186  ND2       -9.4810  -35.8390  -21.6590 N.am  102  ASN102     -0.0877
    187  N        -17.0510  -33.1050  -20.3050 N.3   105  LEU105     -0.1245
    188  CA       -17.6850  -34.3510  -19.8300 C.3   105  LEU105      0.1561
    189  C        -17.8000  -34.3870  -18.2910 C.2   105  LEU105      0.2260
    190  O        -18.8310  -34.7600  -17.7400 O.2   105  LEU105     -0.2867
    191  CB       -16.9360  -35.6070  -20.3310 C.3   105  LEU105      0.0270
    192  CG       -17.0380  -35.8020  -21.8570 C.3   105  LEU105      0.0019
    193  CD1      -16.0760  -36.8870  -22.3580 C.3   105  LEU105      0.0001
    194  CD2      -18.4580  -36.1650  -22.2500 C.3   105  LEU105      0.0001
    195  N        -10.3830  -40.4120  -18.5850 N.3   129  PHE129     -0.1241
    196  CA       -10.5160  -39.6320  -19.8290 C.3   129  PHE129      0.1605
    197  C         -9.1280  -39.2430  -20.3780 C.2   129  PHE129      0.2264
    198  O         -8.9040  -39.2330  -21.6010 O.2   129  PHE129     -0.2867
    199  CB       -11.3830  -38.3770  -19.6170 C.3   129  PHE129      0.0534
    200  CG       -12.8370  -38.6700  -19.3210 C.ar  129  PHE129     -0.0203
    201  CD1      -13.5120  -39.6920  -19.9750 C.ar  129  PHE129     -0.0042
    202  CD2      -13.5440  -37.8750  -18.4140 C.ar  129  PHE129     -0.0042
    203  CE1      -14.8700  -39.9480  -19.7140 C.ar  129  PHE129     -0.0003
    204  CE2      -14.8950  -38.1120  -18.1550 C.ar  129  PHE129     -0.0003
    205  CZ       -15.5550  -39.1630  -18.8000 C.ar  129  PHE129     -0.0000
    206  N         -7.5690  -42.2130  -22.1680 N.3   132  VAL132     -0.1231
    207  CA        -8.2010  -42.3540  -23.4900 C.3   132  VAL132      0.1692
    208  C         -7.6210  -41.3260  -24.4820 C.2   132  VAL132      0.2592
    209  O         -7.2730  -41.6650  -25.6270 O.2   132  VAL132     -0.2718
    210  CB        -9.7450  -42.2330  -23.3890 C.3   132  VAL132      0.0266
    211  CG1      -10.3900  -42.1040  -24.7800 C.3   132  VAL132      0.0020
    212  CG2      -10.3260  -43.4460  -22.6210 C.3   132  VAL132      0.0020
    213  N         -7.4930  -40.0780  -24.0470 N.am  133  SER133     -0.1952
    214  CA        -6.9260  -39.0290  -24.9070 C.3   133  SER133      0.1924
    215  C         -5.4960  -39.3280  -25.3480 C.2   133  SER133      0.2314
    216  O         -5.1410  -39.1210  -26.5090 O.2   133  SER133     -0.2863
    217  CB        -6.9690  -37.6590  -24.2170 C.3   133  SER133      0.2116
    218  OG        -8.3120  -37.3020  -23.9300 O.3   133  SER133     -0.2180
    219  N         -5.7500  -41.8780  -28.1190 N.3   136  LEU136     -0.1245
    220  CA        -6.3330  -41.3890  -29.3760 C.3   136  LEU136      0.1561
    221  C         -5.4260  -40.3960  -30.1020 C.2   136  LEU136      0.2260
    222  O         -5.6090  -40.1610  -31.3000 O.2   136  LEU136     -0.2867
    223  CB        -7.7410  -40.7920  -29.1630 C.3   136  LEU136      0.0270
    224  CG        -8.8520  -41.7320  -28.6720 C.3   136  LEU136      0.0019
    225  CD1      -10.2330  -41.0730  -28.8810 C.3   136  LEU136      0.0001
    226  CD2       -8.8120  -43.1130  -29.2570 C.3   136  LEU136      0.0001
@<TRIPOS>BOND
     1    51    48    1
     2    51    52    1
     3    50    49    2
     4    48    49    1
     5    48    47    1
     6    49    57   am
     7    52    54   ar
     8    52    53   ar
     9    54    56   ar
    10    53    55   ar
    11    57    58    1
    12    56    55   ar
    13    58    59    1
    14    58    61    1
    15   144   142    1
    16   137   138    1
    17    63    61    1
    18    59    60    2
    19   138   139    1
    20   138   141    1
    21    61    62    1
    22   142   141    1
    23   142   143    1
    24    38    39    2
    25    38    37    1
    26   139   140    2
    27    27    26    2
    28    83    82    1
    29   126   124    1
    30    26    36   am
    31    26    25    1
    32    62    64    1
    33   123   122    2
    34    37    36    1
    35    37    40    1
    36   121   120    1
    37   121   124    1
    38   121   122    1
    39    25    24    1
    40    25    28    1
    41   125   124    1
    42   122   127   am
    43    82    81    1
    44    30    32   ar
    45    30    29   ar
    46    40    41    1
    47    32    34   ar
    48    28    29    1
    49    29    31   ar
    50   127   128    1
    51    43    41   ar
    52    43    45   ar
    53    81    80    1
    54    41    42   ar
    55   145   146    1
    56   130   129    2
    57   129   128    1
    58    34    35    1
    59    34    33   ar
    60   128   131    1
    61    45    46   ar
    62    31    33   ar
    63    71    73   ar
    64    71    70   ar
    65   151   149    1
    66    42    44   ar
    67    73    74   ar
    68    80    79    1
    69   146   149    1
    70   146   147    1
    71   112   113    1
    72   115   114    2
    73    46    44   ar
    74   119   117    1
    75    20    19    2
    76   113   114    1
    77   113   116    1
    78    70    69    1
    79    70    72   ar
    80    69    66    1
    81   131   132    1
    82   149   150    1
    83    65    66    1
    84   133   132   ar
    85   133   135   ar
    86   132   134   ar
    87    74    72   ar
    88   147   148    2
    89    66    67    1
    90   135   136   ar
    91    19    18    1
    92   134   136   ar
    93    79    76    1
    94   117   116    1
    95   117   118    1
    96    18    17    1
    97    18    21    1
    98   222   221    2
    99    76    75    1
   100    76    77    1
   101    67    68    2
   102   107   106    2
   103   158   157    2
   104   106   105    1
   105   159   157   am
   106   157   156    1
   107    21    22    1
   108    21    23    1
   109    77    78    2
   110    77    84   am
   111   221   220    1
   112    90    88    1
   113    84    85    1
   114   168   170   ar
   115   168   166   ar
   116   170   169   ar
   117   220   223    1
   118   220   219    1
   119   156   153    1
   120   105   104    1
   121   105   108    1
   122   226   224    1
   123     7     6    1
   124   223   224    1
   125    16    15    1
   126   225   224    1
   127     8     6    1
   128    85    88    1
   129    85    86    1
   130    95    92    1
   131    88    89    1
   132   108   109    1
   133   166   165   ar
   134   169   167   ar
   135     6     5    1
   136     5     2    1
   137   153   152    1
   138   153   154    1
   139    91    92    1
   140    92    93    1
   141    15    14    1
   142     4     3    2
   143   111   109    1
   144    86    87    2
   145   167   165   ar
   146   165   164    1
   147     3     2    1
   148   109   110    1
   149     2     1    1
   150   154   160   am
   151   154   155    2
   152    14    13    1
   153    12    11    2
   154    11    10    1
   155   160   161    1
   156   216   215    2
   157   178   176    1
   158    93    94    2
   159    93    96   am
   160    13    10    1
   161   164   161    1
   162   161   162    1
   163    10     9    1
   164   209   208    2
   165    96    97    1
   166   215   214    1
   167   177   176    1
   168   175   176    1
   169   175   172    1
   170   214   217    1
   171   214   213    1
   172   211   210    1
   173   208   213   am
   174   208   207    1
   175   162   163    2
   176   171   172    1
   177   217   218    1
   178   172   173    1
   179    97    98    1
   180    97   100    1
   181   101   100    1
   182   101   103    1
   183   101   102    1
   184   207   210    1
   185   207   206    1
   186    98    99    2
   187   210   212    1
   188   173   179   am
   189   173   174    2
   190   185   184    2
   191   193   192    1
   192   179   180    1
   193   194   192    1
   194   192   191    1
   195   184   186   am
   196   184   183    1
   197   198   197    2
   198   180   183    1
   199   180   181    1
   200   197   196    1
   201   191   188    1
   202   187   188    1
   203   201   203   ar
   204   201   200   ar
   205   181   182    2
   206   188   189    1
   207   196   199    1
   208   196   195    1
   209   203   205   ar
   210   199   200    1
   211   200   202   ar
   212   205   204   ar
   213   202   204   ar
   214   189   190    2
