@<TRIPOS>MOLECULE
tmp/3hyvA01.pdb
 138 135 0 0 0
SMALL
GASTEIGER

@<TRIPOS>ATOM
      1  N         67.5620  110.5490  121.4900 N.3   344  ILE344     -0.1245
      2  CA        66.5440  111.3260  122.1860 C.3   344  ILE344      0.1561
      3  C         66.7770  112.7680  121.7720 C.2   344  ILE344      0.2260
      4  O         67.7830  113.3610  122.1570 O.2   344  ILE344     -0.2867
      5  CB        66.6980  111.2050  123.7240 C.3   344  ILE344      0.0252
      6  CG1       66.3870  109.7870  124.1820 C.3   344  ILE344      0.0019
      7  CG2       65.8040  112.2180  124.4630 C.3   344  ILE344      0.0019
      8  CD1       66.8140  109.4950  125.6090 C.3   344  ILE344      0.0001
      9  N         59.3290  116.4050  121.5790 N.3   355  PHE355     -0.1241
     10  CA        60.2050  115.3330  122.0470 C.3   355  PHE355      0.1605
     11  C         60.1510  114.1720  121.0640 C.2   355  PHE355      0.2264
     12  O         59.0780  113.6190  120.8100 O.2   355  PHE355     -0.2867
     13  CB        59.7630  114.8690  123.4520 C.3   355  PHE355      0.0534
     14  CG        60.4920  113.6410  123.9620 C.ar  355  PHE355     -0.0203
     15  CD1       61.6860  113.7650  124.6610 C.ar  355  PHE355     -0.0042
     16  CD2       59.9700  112.3650  123.7580 C.ar  355  PHE355     -0.0042
     17  CE1       62.3570  112.6300  125.1370 C.ar  355  PHE355     -0.0003
     18  CE2       60.6320  111.2410  124.2280 C.ar  355  PHE355     -0.0003
     19  CZ        61.8280  111.3750  124.9160 C.ar  355  PHE355     -0.0000
     20  N         58.9190  107.3890  120.2110 N.3   369  ILE369     -0.1245
     21  CA        57.9960  108.2080  121.0010 C.3   369  ILE369      0.1561
     22  C         58.0500  109.6110  120.4220 C.2   369  ILE369      0.2260
     23  O         59.1380  110.1460  120.2420 O.2   369  ILE369     -0.2867
     24  CB        58.4000  108.2890  122.5000 C.3   369  ILE369      0.0252
     25  CG1       58.4190  106.9020  123.1530 C.3   369  ILE369      0.0019
     26  CG2       57.4560  109.2230  123.2660 C.3   369  ILE369      0.0019
     27  CD1       59.1470  106.8630  124.4750 C.3   369  ILE369      0.0001
     28  N         56.1820  113.3500  121.1790 N.3   371  LYS371     -0.1245
     29  CA        55.3040  114.1260  122.0400 C.3   371  LYS371      0.1561
     30  C         55.6640  115.6030  121.9940 C.2   371  LYS371      0.2260
     31  O         56.6950  115.9900  121.4390 O.2   371  LYS371     -0.2867
     32  CB        55.3550  113.5880  123.4750 C.3   371  LYS371      0.0271
     33  CG        54.2270  112.6210  123.7760 C.3   371  LYS371      0.0035
     34  CD        54.5710  111.6360  124.8780 C.3   371  LYS371      0.0206
     35  CE        53.3960  110.6940  125.1410 C.3   371  LYS371      0.1093
     36  NZ        53.8060  109.4850  125.9150 N.3   371  LYS371     -0.1314
     37  N         56.4890  120.7730  129.3830 N.3   375  TRP375     -0.1241
     38  CA        57.4730  119.9860  130.1330 C.3   375  TRP375      0.1605
     39  C         58.7890  119.7550  129.3620 C.2   375  TRP375      0.2264
     40  O         59.8730  119.8300  129.9480 O.2   375  TRP375     -0.2867
     41  CB        56.8550  118.6490  130.5960 C.3   375  TRP375      0.0550
     42  CG        56.4710  117.7440  129.4540 C.ar  375  TRP375      0.0003
     43  CD1       55.2640  117.6980  128.8150 C.ar  375  TRP375      0.0946
     44  CD2       57.3070  116.7690  128.8050 C.ar  375  TRP375      0.0152
     45  NE1       55.2940  116.7570  127.8110 N.ar  375  TRP375     -0.2442
     46  CE2       56.5360  116.1750  127.7780 C.ar  375  TRP375      0.0810
     47  CE3       58.6280  116.3370  128.9940 C.ar  375  TRP375      0.0012
     48  CZ2       57.0430  115.1730  126.9370 C.ar  375  TRP375      0.0191
     49  CZ3       59.1390  115.3400  128.1460 C.ar  375  TRP375      0.0001
     50  CH2       58.3380  114.7660  127.1400 C.ar  375  TRP375      0.0015
     51  N         62.9480  120.3540  130.2810 N.3   379  PHE379     -0.1241
     52  CA        63.9260  119.2710  130.2030 C.3   379  PHE379      0.1605
     53  C         65.1520  119.6660  129.3690 C.2   379  PHE379      0.2264
     54  O         66.2770  119.3500  129.7410 O.2   379  PHE379     -0.2867
     55  CB        63.2860  117.9940  129.6390 C.3   379  PHE379      0.0534
     56  CG        64.1060  116.7600  129.8730 C.ar  379  PHE379     -0.0203
     57  CD1       63.8610  115.9490  130.9770 C.ar  379  PHE379     -0.0042
     58  CD2       65.1410  116.4100  128.9990 C.ar  379  PHE379     -0.0042
     59  CE1       64.6370  114.8010  131.2110 C.ar  379  PHE379     -0.0003
     60  CE2       65.9250  115.2640  129.2230 C.ar  379  PHE379     -0.0003
     61  CZ        65.6690  114.4600  130.3280 C.ar  379  PHE379     -0.0000
     62  N         68.9260  119.6860  130.7860 N.3   383  PHE383     -0.1241
     63  CA        69.9980  118.9040  130.1880 C.3   383  PHE383      0.1605
     64  C         71.2280  119.7380  129.7790 C.2   383  PHE383      0.2264
     65  O         72.3680  119.2590  129.8720 O.2   383  PHE383     -0.2867
     66  CB        69.4870  118.0830  128.9970 C.3   383  PHE383      0.0534
     67  CG        70.5450  117.2100  128.3810 C.ar  383  PHE383     -0.0203
     68  CD1       70.9030  115.9990  128.9810 C.ar  383  PHE383     -0.0042
     69  CD2       71.2190  117.6170  127.2230 C.ar  383  PHE383     -0.0042
     70  CE1       71.9040  115.2000  128.4310 C.ar  383  PHE383     -0.0003
     71  CE2       72.2230  116.8140  126.6570 C.ar  383  PHE383     -0.0003
     72  CZ        72.5620  115.6040  127.2700 C.ar  383  PHE383     -0.0000
     73  N         73.2150  120.1390  132.8810 N.3   386  TYR386     -0.1241
     74  CA        73.7930  118.8280  133.1950 C.3   386  TYR386      0.1605
     75  C         75.0330  118.5240  132.3560 C.2   386  TYR386      0.2264
     76  O         76.0540  118.0950  132.9020 O.2   386  TYR386     -0.2867
     77  CB        72.7360  117.7230  133.0460 C.3   386  TYR386      0.0534
     78  CG        73.2580  116.3150  133.2210 C.ar  386  TYR386     -0.0201
     79  CD1       73.8690  115.9130  134.4160 C.ar  386  TYR386     -0.0009
     80  CD2       73.1290  115.3730  132.1910 C.ar  386  TYR386     -0.0009
     81  CE1       74.3540  114.6060  134.5750 C.ar  386  TYR386      0.0417
     82  CE2       73.5980  114.0670  132.3420 C.ar  386  TYR386      0.0417
     83  CZ        74.2100  113.6880  133.5340 C.ar  386  TYR386      0.1957
     84  OH        74.6870  112.4020  133.6790 O.3   386  TYR386     -0.2866
     85  N         75.3120  106.1560  136.6800 N.3   400  PHE400     -0.1227
     86  CA        73.8980  106.3670  137.0010 C.3   400  PHE400      0.1736
     87  C         73.0490  106.7660  135.7800 C.2   400  PHE400      0.2595
     88  O         71.8560  106.4350  135.7280 O.2   400  PHE400     -0.2718
     89  CB        73.7240  107.3920  138.1410 C.3   400  PHE400      0.0547
     90  CG        73.7510  108.8400  137.6910 C.ar  400  PHE400     -0.0202
     91  CD1       74.9340  109.5790  137.7400 C.ar  400  PHE400     -0.0042
     92  CD2       72.5890  109.4650  137.2260 C.ar  400  PHE400     -0.0042
     93  CE1       74.9680  110.9150  137.3150 C.ar  400  PHE400     -0.0003
     94  CE2       72.6100  110.7970  136.7960 C.ar  400  PHE400     -0.0003
     95  CZ        73.8100  111.5240  136.8400 C.ar  400  PHE400     -0.0000
     96  N         73.6600  107.4790  134.8270 N.am  401  GLU401     -0.1979
     97  CA        72.9680  107.9520  133.6160 C.3   401  GLU401      0.1602
     98  C         72.4910  106.8020  132.7180 C.2   401  GLU401      0.2287
     99  O         71.3430  106.7920  132.2610 O.2   401  GLU401     -0.2864
    100  CB        73.8390  108.9310  132.8040 C.3   401  GLU401      0.0415
    101  CG        73.0970  109.5430  131.6030 C.3   401  GLU401      0.1163
    102  CD        73.9190  110.5530  130.7980 C.2   401  GLU401      0.3649
    103  OE1       74.8640  111.1610  131.3460 O.co2 401  GLU401     -0.2457
    104  OE2       73.6000  110.7490  129.6050 O.co2 401  GLU401     -0.2457
    105  N         69.4790  105.0720  134.4580 N.3   404  VAL404     -0.1231
    106  CA        68.2340  105.8520  134.3260 C.3   404  VAL404      0.1692
    107  C         67.6150  105.7400  132.9210 C.2   404  VAL404      0.2591
    108  O         66.3950  105.6280  132.7820 O.2   404  VAL404     -0.2718
    109  CB        68.4530  107.3500  134.6980 C.3   404  VAL404      0.0266
    110  CG1       67.2360  108.1850  134.3590 C.3   404  VAL404      0.0020
    111  CG2       68.7840  107.4900  136.1820 C.3   404  VAL404      0.0020
    112  N         68.4620  105.7640  131.8940 N.am  405  LEU405     -0.1980
    113  CA        68.0290  105.5970  130.5050 C.3   405  LEU405      0.1596
    114  C         67.5000  104.1900  130.2300 C.2   405  LEU405      0.2287
    115  O         66.5670  104.0140  129.4430 O.2   405  LEU405     -0.2864
    116  CB        69.1650  105.9490  129.5340 C.3   405  LEU405      0.0297
    117  CG        69.5080  107.4300  129.3520 C.3   405  LEU405      0.0022
    118  CD1       70.7300  107.6060  128.4650 C.3   405  LEU405      0.0001
    119  CD2       68.3100  108.2030  128.7890 C.3   405  LEU405      0.0001
    120  N         63.8790  104.0410  132.0970 N.3   408  PHE408     -0.1227
    121  CA        62.8600  104.9110  131.4830 C.3   408  PHE408      0.1736
    122  C         62.5610  104.6580  129.9940 C.2   408  PHE408      0.2595
    123  O         61.4150  104.8000  129.5660 O.2   408  PHE408     -0.2718
    124  CB        63.1790  106.4000  131.7080 C.3   408  PHE408      0.0547
    125  CG        62.7110  106.9270  133.0430 C.ar  408  PHE408     -0.0202
    126  CD1       61.3720  107.2600  133.2450 C.ar  408  PHE408     -0.0042
    127  CD2       63.6070  107.0790  134.0980 C.ar  408  PHE408     -0.0042
    128  CE1       60.9320  107.7360  134.4810 C.ar  408  PHE408     -0.0003
    129  CE2       63.1830  107.5540  135.3360 C.ar  408  PHE408     -0.0003
    130  CZ        61.8410  107.8840  135.5320 C.ar  408  PHE408     -0.0000
    131  N         63.5720  104.3110  129.2040 N.am  409  LEU409     -0.1980
    132  CA        63.3690  104.1190  127.7590 C.3   409  LEU409      0.1596
    133  C         63.9050  102.7940  127.2130 C.2   409  LEU409      0.2287
    134  O         63.8660  102.5680  126.0000 O.2   409  LEU409     -0.2864
    135  CB        63.9820  105.2720  126.9710 C.3   409  LEU409      0.0297
    136  CG        63.4810  106.6820  127.2560 C.3   409  LEU409      0.0022
    137  CD1       64.4520  107.6510  126.6800 C.3   409  LEU409      0.0001
    138  CD2       62.0820  106.9100  126.6910 C.3   409  LEU409      0.0001
@<TRIPOS>BOND
     1    20    21    1
     2    23    22    2
     3    22    21    1
     4    12    11    2
     5    21    24    1
     6    11    10    1
     7    28    29    1
     8    31    30    2
     9     1     2    1
    10     9    10    1
    11     3     4    2
    12     3     2    1
    13    30    29    1
    14    29    32    1
    15    10    13    1
    16     2     5    1
    17    24    25    1
    18    24    26    1
    19    25    27    1
    20    13    14    1
    21    32    33    1
    22     5     6    1
    23     5     7    1
    24    16    14   ar
    25    16    18   ar
    26    33    34    1
    27    14    15   ar
    28     6     8    1
    29    18    19   ar
    30    15    17   ar
    31    34    35    1
    32    19    17   ar
    33    35    36    1
    34   134   133    2
    35    71    69   ar
    36    71    72   ar
    37   137   136    1
    38   138   136    1
    39    48    50   ar
    40    48    46   ar
    41   135   136    1
    42   135   132    1
    43    50    49   ar
    44   133   132    1
    45    69    67   ar
    46    72    70   ar
    47   132   131    1
    48    46    45   ar
    49    46    44   ar
    50    45    43   ar
    51    49    47   ar
    52    67    68   ar
    53    67    66    1
    54    70    68   ar
    55   118   117    1
    56   119   117    1
    57    44    47   ar
    58    44    42   ar
    59    43    42   ar
    60    66    63    1
    61    58    60   ar
    62    58    56   ar
    63   131   122   am
    64    60    61   ar
    65   117   116    1
    66    39    40    2
    67    39    38    1
    68    53    54    2
    69    53    52    1
    70    37    38    1
    71   115   114    2
    72    42    41    1
    73   116   113    1
    74   123   122    2
    75   104   102   ar
    76    55    56    1
    77    55    52    1
    78    64    65    2
    79    64    63    1
    80    56    57   ar
    81   122   121    1
    82    38    41    1
    83    63    62    1
    84    52    51    1
    85   114   113    1
    86    61    59   ar
    87   113   112    1
    88   102   103   ar
    89   102   101    1
    90    57    59   ar
    91   121   124    1
    92   121   120    1
    93   101   100    1
    94   124   125    1
    95   112   107   am
    96    80    82   ar
    97    80    78   ar
    98    99    98    2
    99    82    83   ar
   100    75    76    2
   101    75    74    1
   102    98    97    1
   103   108   107    2
   104   100    97    1
   105    73    74    1
   106   107   106    1
   107   125   126   ar
   108   125   127   ar
   109    77    74    1
   110    77    78    1
   111    78    79   ar
   112   126   128   ar
   113    83    84    1
   114    83    81   ar
   115    97    96    1
   116   127   129   ar
   117   106   105    1
   118   106   109    1
   119   110   109    1
   120    79    81   ar
   121   128   130   ar
   122   109   111    1
   123    96    87   am
   124   129   130   ar
   125    88    87    2
   126    87    86    1
   127    85    86    1
   128    94    95   ar
   129    94    92   ar
   130    95    93   ar
   131    86    89    1
   132    92    90   ar
   133    93    91   ar
   134    90    91   ar
   135    90    89    1
