@<TRIPOS>MOLECULE
tmp/3hyvA02.pdb
 118 114 0 0 0
SMALL
GASTEIGER

@<TRIPOS>ATOM
      1  N         72.0200  117.5420  106.2150 N.3   154  SER154     -0.1217
      2  CA        71.8300  116.3640  107.0590 C.3   154  SER154      0.1889
      3  C         71.4430  116.6800  108.5070 C.2   154  SER154      0.2288
      4  O         71.3040  115.7630  109.3080 O.2   154  SER154     -0.2866
      5  CB        73.0870  115.4810  107.0290 C.3   154  SER154      0.2089
      6  OG        74.2410  116.2130  107.4030 O.3   154  SER154     -0.2183
      7  N         68.5260  118.8960  110.2280 N.3   155  PHE155     -0.1227
      8  CA        67.3280  119.7260  109.9950 C.3   155  PHE155      0.1736
      9  C         66.6900  120.3290  111.2620 C.2   155  PHE155      0.2596
     10  O         66.1220  121.4290  111.2250 O.2   155  PHE155     -0.2718
     11  CB        66.2670  118.9300  109.2180 C.3   155  PHE155      0.0547
     12  CG        66.7170  118.4930  107.8410 C.ar  155  PHE155     -0.0202
     13  CD1       66.4040  119.2600  106.7140 C.ar  155  PHE155     -0.0042
     14  CD2       67.4570  117.3160  107.6710 C.ar  155  PHE155     -0.0042
     15  CE1       66.8120  118.8590  105.4320 C.ar  155  PHE155     -0.0003
     16  CE2       67.8850  116.9150  106.4050 C.ar  155  PHE155     -0.0003
     17  CZ        67.5510  117.6910  105.2750 C.ar  155  PHE155     -0.0000
     18  N         66.7820  119.6080  112.3710 N.am  156  GLY156     -0.1943
     19  CA        66.1900  120.0350  113.6330 C.3   156  GLY156      0.1998
     20  C         66.3660  121.4830  114.0570 C.2   156  GLY156      0.2480
     21  O         65.3780  122.1360  114.4120 O.2   156  GLY156     -0.2729
     22  N         67.6140  122.0010  114.0200 N.am  157  PRO157     -0.2726
     23  CA        67.8930  123.3730  114.4480 C.3   157  PRO157      0.1402
     24  C         67.1840  124.4340  113.6050 C.2   157  PRO157      0.2269
     25  O         66.9000  125.5260  114.1110 O.2   157  PRO157     -0.2865
     26  CB        69.4140  123.4940  114.2710 C.3   157  PRO157      0.0296
     27  CG        69.9140  122.0900  114.2430 C.3   157  PRO157      0.0237
     28  CD        68.8420  121.3230  113.5720 C.3   157  PRO157      0.0939
     29  N         63.6370  124.4580  115.0010 N.3   160  GLU160     -0.1245
     30  CA        63.7440  125.1560  116.2970 C.3   160  GLU160      0.1567
     31  C         63.7780  126.6650  116.0960 C.2   160  GLU160      0.2260
     32  O         62.9900  127.3920  116.6950 O.2   160  GLU160     -0.2867
     33  CB        65.0120  124.7440  117.0650 C.3   160  GLU160      0.0388
     34  CG        64.9240  123.4690  117.8880 C.3   160  GLU160      0.1160
     35  CD        66.2240  123.1850  118.6620 C.2   160  GLU160      0.3649
     36  OE1       67.3200  123.4250  118.1030 O.co2 160  GLU160     -0.2457
     37  OE2       66.1590  122.7230  119.8290 O.co2 160  GLU160     -0.2457
     38  N         63.4280  114.8730  108.6450 N.3   192  PHE192     -0.1241
     39  CA        64.6470  114.9840  109.4690 C.3   192  PHE192      0.1605
     40  C         65.8640  114.2550  108.8870 C.2   192  PHE192      0.2264
     41  O         66.9060  114.1620  109.5340 O.2   192  PHE192     -0.2867
     42  CB        64.4200  114.5110  110.9260 C.3   192  PHE192      0.0534
     43  CG        63.3020  115.2240  111.6590 C.ar  192  PHE192     -0.0203
     44  CD1       63.1600  116.6120  111.5930 C.ar  192  PHE192     -0.0042
     45  CD2       62.4090  114.4920  112.4560 C.ar  192  PHE192     -0.0042
     46  CE1       62.1200  117.2600  112.2810 C.ar  192  PHE192     -0.0003
     47  CE2       61.3710  115.1270  113.1600 C.ar  192  PHE192     -0.0003
     48  CZ        61.2200  116.5110  113.0650 C.ar  192  PHE192     -0.0000
     49  N         59.9260  110.1670  112.2990 N.3   197  ILE197     -0.1245
     50  CA        59.9260  109.5180  113.6070 C.3   197  ILE197      0.1561
     51  C         58.4720  109.4660  114.0590 C.2   197  ILE197      0.2260
     52  O         57.9200  110.4740  114.4950 O.2   197  ILE197     -0.2867
     53  CB        60.8030  110.3040  114.6450 C.3   197  ILE197      0.0252
     54  CG1       62.2560  110.3940  114.1720 C.3   197  ILE197      0.0019
     55  CG2       60.7710  109.6340  116.0160 C.3   197  ILE197      0.0019
     56  CD1       63.0550  111.5600  114.7710 C.3   197  ILE197      0.0001
     57  N         71.5000  112.7600  110.0690 N.3   309  PRO309     -0.2102
     58  CA        71.9890  113.4550  111.2770 C.3   309  PRO309      0.1504
     59  C         72.8520  112.5890  112.2190 C.2   309  PRO309      0.2576
     60  O         72.6140  111.3860  112.3610 O.2   309  PRO309     -0.2718
     61  CB        70.6980  113.8880  111.9900 C.3   309  PRO309      0.0282
     62  CG        69.6310  112.9570  111.4640 C.3   309  PRO309      0.0208
     63  CD        70.0250  112.6670  110.0360 C.3   309  PRO309      0.0893
     64  N         73.8640  113.2110  112.8230 N.am  310  LYS310     -0.1966
     65  CA        74.5890  112.6380  113.9640 C.3   310  LYS310      0.1728
     66  C         74.2930  113.5070  115.1970 C.2   310  LYS310      0.2616
     67  O         74.8130  114.6270  115.3330 O.2   310  LYS310     -0.2715
     68  CB        76.1010  112.5290  113.7020 C.3   310  LYS310      0.0311
     69  CG        76.5150  111.4880  112.6290 C.3   310  LYS310      0.0038
     70  CD        76.6270  112.1440  111.2310 C.3   310  LYS310      0.0206
     71  CE        77.3270  111.2400  110.2140 C.3   310  LYS310      0.1093
     72  NZ        77.9800  112.0110  109.1130 N.3   310  LYS310     -0.1314
     73  N         73.4270  112.9810  116.0600 N.am  311  THR311     -0.1951
     74  CA        72.9030  113.6910  117.2240 C.3   311  THR311      0.1897
     75  C         73.7690  113.4110  118.4530 C.2   311  THR311      0.2313
     76  O         74.6290  112.5300  118.4220 O.2   311  THR311     -0.2863
     77  CB        71.4130  113.2960  117.5100 C.3   311  THR311      0.1794
     78  OG1       71.3480  111.9600  118.0290 O.3   311  THR311     -0.2208
     79  CG2       70.5770  113.3720  116.2410 C.3   311  THR311      0.0378
     80  N         65.8750  113.3210  120.9640 N.3   345  CYS345     -0.1221
     81  CA        65.9900  114.7200  120.5040 C.3   345  CYS345      0.1808
     82  C         64.8380  115.6040  120.9740 C.2   345  CYS345      0.2601
     83  O         63.6690  115.2010  120.9200 O.2   345  CYS345     -0.2717
     84  CB        66.0940  114.7980  118.9790 C.3   345  CYS345      0.0970
     85  SG        67.4160  113.8090  118.2850 S.3   345  CYS345     -0.0800
     86  N         65.1790  116.8080  121.4360 N.am  346  ILE346     -0.1965
     87  CA        64.1800  117.7990  121.8250 C.3   346  ILE346      0.1727
     88  C         64.3160  119.0570  120.9670 C.2   346  ILE346      0.2616
     89  O         65.3820  119.6850  120.9320 O.2   346  ILE346     -0.2715
     90  CB        64.2490  118.1290  123.3350 C.3   346  ILE346      0.0290
     91  CG1       63.9770  116.8630  124.1560 C.3   346  ILE346      0.0022
     92  CG2       63.2430  119.2210  123.7040 C.3   346  ILE346      0.0023
     93  CD1       64.6340  116.8460  125.5070 C.3   346  ILE346      0.0001
     94  N         63.2420  119.3950  120.2520 N.am  347  ALA347     -0.1977
     95  CA        63.1850  120.6390  119.4920 C.3   347  ALA347      0.1597
     96  C         62.4750  121.7100  120.3180 C.2   347  ALA347      0.2287
     97  O         61.2660  121.6550  120.5140 O.2   347  ALA347     -0.2864
     98  CB        62.4860  120.4320  118.1460 C.3   347  ALA347      0.0319
     99  N         61.3070  113.8020  120.5250 N.3   356  PHE356     -0.1241
    100  CA        61.4120  112.7200  119.5430 C.3   356  PHE356      0.1605
    101  C         62.4030  111.6570  120.0090 C.2   356  PHE356      0.2264
    102  O         63.5590  111.9670  120.3350 O.2   356  PHE356     -0.2867
    103  CB        61.8300  113.2710  118.1730 C.3   356  PHE356      0.0534
    104  CG        60.9030  114.3400  117.6390 C.ar  356  PHE356     -0.0203
    105  CD1       59.7280  113.9940  116.9820 C.ar  356  PHE356     -0.0042
    106  CD2       61.2110  115.6920  117.8040 C.ar  356  PHE356     -0.0042
    107  CE1       58.8600  114.9820  116.4890 C.ar  356  PHE356     -0.0003
    108  CE2       60.3560  116.6870  117.3260 C.ar  356  PHE356     -0.0003
    109  CZ        59.1720  116.3280  116.6660 C.ar  356  PHE356     -0.0000
    110  N         64.9270  120.3450  128.2420 N.3   380  LYS380     -0.1245
    111  CA        66.0210  120.7960  127.3730 C.3   380  LYS380      0.1561
    112  C         66.9890  121.7370  128.1180 C.2   380  LYS380      0.2260
    113  O         68.2180  121.5350  128.0940 O.2   380  LYS380     -0.2867
    114  CB        65.4530  121.4610  126.1120 C.3   380  LYS380      0.0271
    115  CG        66.4880  122.1100  125.1960 C.3   380  LYS380      0.0035
    116  CD        66.8050  121.2350  124.0070 C.3   380  LYS380      0.0206
    117  CE        67.6270  121.9740  122.9790 C.3   380  LYS380      0.1093
    118  NZ        67.8520  121.1150  121.7830 N.3   380  LYS380     -0.1314
@<TRIPOS>BOND
     1    17    15   ar
     2    17    16   ar
     3    15    13   ar
     4     1     2    1
     5    16    14   ar
     6    13    12   ar
     7     5     2    1
     8     5     6    1
     9     2     3    1
    10    14    12   ar
    11    12    11    1
    12     3     4    2
    13    38    39    1
    14    40    39    1
    15    40    41    2
    16    72    71    1
    17    11     8    1
    18    39    42    1
    19     8     7    1
    20     8     9    1
    21    63    57    1
    22    63    62    1
    23    57    58    1
    24    71    70    1
    25    42    43    1
    26    10     9    2
    27    70    69    1
    28     9    18   am
    29    58    61    1
    30    58    59    1
    31    62    61    1
    32    44    43   ar
    33    44    46   ar
    34    43    45   ar
    35    59    60    2
    36    59    64   am
    37    46    48   ar
    38    49    50    1
    39    18    19    1
    40    45    47   ar
    41    69    68    1
    42    64    65    1
    43    48    47   ar
    44    28    22    1
    45    28    27    1
    46    24    25    2
    47    24    23    1
    48    50    51    1
    49    50    53    1
    50    19    20    1
    51    68    65    1
    52    65    66    1
    53    22    20   am
    54    22    23    1
    55    20    21    2
    56    51    52    2
    57    54    53    1
    58    54    56    1
    59    27    26    1
    60    26    23    1
    61    53    55    1
    62    29    30    1
    63    66    67    2
    64    66    73   am
    65    73    74    1
    66    31    30    1
    67    31    32    2
    68    79    77    1
    69    30    33    1
    70   107   109   ar
    71   107   105   ar
    72   109   108   ar
    73   105   104   ar
    74    33    34    1
    75    74    77    1
    76    74    75    1
    77   108   106   ar
    78    77    78    1
    79   104   106   ar
    80   104   103    1
    81    34    35    1
    82    36    35   ar
    83    98    95    1
    84   103   100    1
    85    85    84    1
    86    76    75    2
    87    35    37   ar
    88    84    81    1
    89    95    94    1
    90    95    96    1
    91   100   101    1
    92   100    99    1
    93   101   102    2
    94    94    88   am
    95    96    97    2
    96    81    80    1
    97    81    82    1
    98    83    82    2
    99    89    88    2
   100    88    87    1
   101    82    86   am
   102    86    87    1
   103   118   117    1
   104    87    90    1
   105   117   116    1
   106    90    92    1
   107    90    91    1
   108   116   115    1
   109    91    93    1
   110   115   114    1
   111   114   111    1
   112   111   112    1
   113   111   110    1
   114   113   112    2
