@<TRIPOS>MOLECULE
tmp/3hyvA03.pdb
 96 92 0 0 0
SMALL
GASTEIGER

@<TRIPOS>ATOM
      1  N         60.4480  128.3140  114.8910 N.3   163  LEU163     -0.1245
      2  CA        59.4630  128.3950  115.9740 C.3   163  LEU163      0.1561
      3  C         59.8770  129.3260  117.1220 C.2   163  LEU163      0.2260
      4  O         59.0200  129.9780  117.7430 O.2   163  LEU163     -0.2867
      5  CB        59.1420  127.0060  116.5280 C.3   163  LEU163      0.0270
      6  CG        58.0290  126.1070  115.9530 C.3   163  LEU163      0.0019
      7  CD1       56.8440  126.8800  115.3780 C.3   163  LEU163      0.0001
      8  CD2       58.5680  125.0850  114.9440 C.3   163  LEU163      0.0001
      9  N         59.1870  132.8200  115.8030 N.3   166  HIS166     -0.1226
     10  CA        57.7390  133.0880  115.8490 C.3   166  HIS166      0.1752
     11  C         57.3090  133.5260  117.2550 C.2   166  HIS166      0.2596
     12  O         56.5680  134.4940  117.4090 O.2   166  HIS166     -0.2718
     13  CB        56.9290  131.8670  115.3640 C.3   166  HIS166      0.0759
     14  CG        55.5140  131.8390  115.8530 C.ar  166  HIS166      0.0818
     15  ND1       54.4940  132.5320  115.2330 N.ar  166  HIS166     -0.2268
     16  CD2       54.9480  131.1990  116.9080 C.ar  166  HIS166      0.1154
     17  CE1       53.3620  132.3200  115.8850 C.ar  166  HIS166      0.1986
     18  NE2       53.6110  131.5210  116.9110 N.ar  166  HIS166     -0.2212
     19  N         57.7940  132.8010  118.2620 N.am  167  TYR167     -0.1976
     20  CA        57.5820  133.1080  119.6740 C.3   167  TYR167      0.1639
     21  C         58.0990  134.5030  120.0680 C.2   167  TYR167      0.2290
     22  O         57.3860  135.2730  120.7030 O.2   167  TYR167     -0.2864
     23  CB        58.2570  132.0290  120.5370 C.3   167  TYR167      0.0560
     24  CG        58.1690  132.2690  122.0270 C.ar  167  TYR167     -0.0198
     25  CD1       57.0290  131.9060  122.7450 C.ar  167  TYR167     -0.0009
     26  CD2       59.2300  132.8500  122.7220 C.ar  167  TYR167     -0.0009
     27  CE1       56.9490  132.1180  124.1240 C.ar  167  TYR167      0.0417
     28  CE2       59.1550  133.0740  124.1040 C.ar  167  TYR167      0.0417
     29  CZ        58.0160  132.7030  124.7910 C.ar  167  TYR167      0.1957
     30  OH        57.9320  132.9240  126.1440 O.3   167  TYR167     -0.2866
     31  N         55.9220  137.2720  118.5650 N.3   170  LYS170     -0.1231
     32  CA        54.6690  137.4070  119.3130 C.3   170  LYS170      0.1693
     33  C         54.8430  138.0760  120.6770 C.2   170  LYS170      0.2591
     34  O         53.9700  138.8220  121.1290 O.2   170  LYS170     -0.2718
     35  CB        54.0100  136.0460  119.4960 C.3   170  LYS170      0.0285
     36  CG        53.1310  135.6480  118.3300 C.3   170  LYS170      0.0035
     37  CD        52.2910  134.4370  118.6640 C.3   170  LYS170      0.0206
     38  CE        51.3410  134.7030  119.8000 C.3   170  LYS170      0.1093
     39  NZ        50.6620  133.4380  120.1580 N.3   170  LYS170     -0.1314
     40  N         55.9630  137.8090  121.3400 N.am  171  LYS171     -0.1980
     41  CA        56.2470  138.4750  122.6040 C.3   171  LYS171      0.1596
     42  C         56.5020  139.9670  122.3940 C.2   171  LYS171      0.2287
     43  O         56.2140  140.7800  123.2810 O.2   171  LYS171     -0.2864
     44  CB        57.3840  137.7750  123.3520 C.3   171  LYS171      0.0298
     45  CG        56.9590  136.4240  123.9770 C.3   171  LYS171      0.0038
     46  CD        55.8360  136.6040  125.0240 C.3   171  LYS171      0.0206
     47  CE        54.9820  135.3460  125.2140 C.3   171  LYS171      0.1093
     48  NZ        54.1580  134.9930  123.9940 N.3   171  LYS171     -0.1314
     49  N         50.3510  127.9810  113.9840 N.3   211  ARG211     -0.1245
     50  CA        51.2160  129.1330  114.2260 C.3   211  ARG211      0.1563
     51  C         51.5610  129.9280  112.9420 C.2   211  ARG211      0.2260
     52  O         52.5140  130.7130  112.9270 O.2   211  ARG211     -0.2867
     53  CB        52.4830  128.6870  114.9930 C.3   211  ARG211      0.0307
     54  CG        52.2000  128.3700  116.4800 C.3   211  ARG211      0.0489
     55  CD        53.3140  127.6240  117.2330 C.3   211  ARG211      0.2205
     56  NE        52.7340  126.9130  118.3840 N.pl3 211  ARG211     -0.0865
     57  CZ        53.4080  126.2980  119.3630 C.cat 211  ARG211      0.5346
     58  NH1       54.7360  126.2950  119.4040 N.pl3 211  ARG211      0.1354
     59  NH2       52.7340  125.6800  120.3280 N.pl3 211  ARG211      0.1354
     60  N         60.8180  125.1600  121.1180 N.3   349  PHE349     -0.1241
     61  CA        60.0450  126.1370  120.3300 C.3   349  PHE349      0.1605
     62  C         59.8400  127.4690  121.0610 C.2   349  PHE349      0.2264
     63  O         59.0490  128.3030  120.6160 O.2   349  PHE349     -0.2867
     64  CB        58.6630  125.5800  119.9410 C.3   349  PHE349      0.0534
     65  CG        58.6940  124.2350  119.2700 C.ar  349  PHE349     -0.0203
     66  CD1       59.6650  123.9220  118.3190 C.ar  349  PHE349     -0.0042
     67  CD2       57.7260  123.2850  119.5690 C.ar  349  PHE349     -0.0042
     68  CE1       59.6760  122.6750  117.6910 C.ar  349  PHE349     -0.0003
     69  CE2       57.7380  122.0350  118.9500 C.ar  349  PHE349     -0.0003
     70  CZ        58.7110  121.7330  118.0090 C.ar  349  PHE349     -0.0000
     71  N         58.5850  128.2930  124.5770 N.3   351  GLU351     -0.1231
     72  CA        57.9600  128.0210  125.8650 C.3   351  GLU351      0.1699
     73  C         57.4620  126.5730  125.9340 C.2   351  GLU351      0.2592
     74  O         57.0570  126.0850  126.9970 O.2   351  GLU351     -0.2718
     75  CB        56.7830  128.9740  126.0750 C.3   351  GLU351      0.0402
     76  CG        56.4540  129.2520  127.5390 C.3   351  GLU351      0.1161
     77  CD        55.0040  129.6620  127.7590 C.2   351  GLU351      0.3649
     78  OE1       54.3730  130.2020  126.8140 O.co2 351  GLU351     -0.2457
     79  OE2       54.4980  129.4270  128.8870 O.co2 351  GLU351     -0.2457
     80  N         57.4590  125.9080  124.7850 N.am  352  ASP352     -0.1974
     81  CA        57.1640  124.4840  124.7010 C.3   352  ASP352      0.1709
     82  C         58.1180  123.8100  123.7060 C.2   352  ASP352      0.2293
     83  O         59.0080  124.4630  123.1640 O.2   352  ASP352     -0.2864
     84  CB        55.6710  124.2170  124.4080 C.3   352  ASP352      0.1436
     85  CG        55.1930  124.8040  123.0730 C.2   352  ASP352      0.3671
     86  OD1       55.8850  125.6520  122.4660 O.co2 352  ASP352     -0.2456
     87  OD2       54.0920  124.4150  122.6350 O.co2 352  ASP352     -0.2456
     88  N         54.7950  121.7100  127.3460 N.3   374  LYS374     -0.1245
     89  CA        55.6320  122.6450  128.0960 C.3   374  LYS374      0.1561
     90  C         56.7800  121.9360  128.8030 C.2   374  LYS374      0.2260
     91  O         57.9030  122.4300  128.8070 O.2   374  LYS374     -0.2867
     92  CB        54.8140  123.4220  129.1210 C.3   374  LYS374      0.0271
     93  CG        53.9290  124.4840  128.5420 C.3   374  LYS374      0.0035
     94  CD        53.3960  125.3650  129.6510 C.3   374  LYS374      0.0206
     95  CE        52.1060  126.0290  129.2430 C.3   374  LYS374      0.1093
     96  NZ        51.0240  125.0090  129.1790 N.3   374  LYS374     -0.1314
@<TRIPOS>BOND
     1    52    51    2
     2    51    50    1
     3    49    50    1
     4    50    53    1
     5     1     2    1
     6     8     6    1
     7    53    54    1
     8    15    14   ar
     9    15    17   ar
    10    13    10    1
    11    13    14    1
    12     7     6    1
    13     9    10    1
    14    10    11    1
    15    14    16   ar
    16    17    18   ar
    17     6     5    1
    18     2     5    1
    19     2     3    1
    20    54    55    1
    21    16    18   ar
    22     3     4    2
    23    55    56    1
    24    11    12    2
    25    11    19   am
    26    68    70   ar
    27    68    66   ar
    28    70    69   ar
    29    19    20    1
    30    66    65   ar
    31    36    37    1
    32    36    35    1
    33    56    57    2
    34    31    32    1
    35    37    38    1
    36    69    67   ar
    37    65    67   ar
    38    65    64    1
    39    32    35    1
    40    32    33    1
    41    57    58    1
    42    57    59    1
    43    20    21    1
    44    20    23    1
    45    38    39    1
    46    64    61    1
    47    21    22    2
    48    61    62    1
    49    61    60    1
    50    23    24    1
    51    63    62    2
    52    33    34    2
    53    33    40   am
    54    40    41    1
    55    24    26   ar
    56    24    25   ar
    57    42    41    1
    58    42    43    2
    59    86    85   ar
    60    41    44    1
    61    87    85   ar
    62    26    28   ar
    63    25    27   ar
    64    85    84    1
    65    83    82    2
    66    44    45    1
    67    82    81    1
    68    45    46    1
    69    48    47    1
    70    28    29   ar
    71    27    29   ar
    72    84    81    1
    73    71    72    1
    74    81    80    1
    75    80    73   am
    76    29    30    1
    77    46    47    1
    78    72    73    1
    79    72    75    1
    80    73    74    2
    81    75    76    1
    82    78    77   ar
    83    88    89    1
    84    76    77    1
    85    77    79   ar
    86    89    90    1
    87    89    92    1
    88    93    92    1
    89    93    94    1
    90    90    91    2
    91    96    95    1
    92    95    94    1
