@<TRIPOS>MOLECULE
tmp/3hywA01.pdb
 151 146 0 0 0
SMALL
GASTEIGER

@<TRIPOS>ATOM
      1  N         77.4220  123.4320  121.7950 N.3    40  PHE40      -0.1241
      2  CA        76.2220  122.6080  121.8940 C.3    40  PHE40       0.1605
      3  C         75.2940  122.9000  120.7170 C.2    40  PHE40       0.2264
      4  O         74.4300  123.7950  120.7650 O.2    40  PHE40      -0.2867
      5  CB        75.5050  122.7770  123.2380 C.3    40  PHE40       0.0534
      6  CG        74.3640  121.8020  123.4380 C.ar   40  PHE40      -0.0203
      7  CD1       74.6140  120.4480  123.6260 C.ar   40  PHE40      -0.0042
      8  CD2       73.0480  122.2380  123.4140 C.ar   40  PHE40      -0.0042
      9  CE1       73.5710  119.5480  123.8070 C.ar   40  PHE40      -0.0003
     10  CE2       71.9950  121.3450  123.5920 C.ar   40  PHE40      -0.0003
     11  CZ        72.2620  119.9990  123.7920 C.ar   40  PHE40      -0.0000
     12  N         72.6360  121.5290  119.2620 N.3    42  PRO42      -0.2116
     13  CA        71.1740  121.6320  119.3930 C.3    42  PRO42       0.1372
     14  C         70.6080  122.9560  119.9390 C.2    42  PRO42       0.2244
     15  O         69.3920  123.1690  119.8610 O.2    42  PRO42      -0.2868
     16  CB        70.8330  120.4850  120.3510 C.3    42  PRO42       0.0268
     17  CG        71.9040  119.5000  120.1350 C.3    42  PRO42       0.0207
     18  CD        73.1420  120.3590  120.0050 C.3    42  PRO42       0.0892
     19  N         71.9360  112.0740  114.2910 N.3   311  THR311     -0.1203
     20  CA        71.4720  112.8240  115.4530 C.3   311  THR311      0.1994
     21  C         72.3890  112.5870  116.6490 C.2   311  THR311      0.2618
     22  O         73.2390  111.6940  116.6200 O.2   311  THR311     -0.2717
     23  CB        70.0310  112.4320  115.8480 C.3   311  THR311      0.1784
     24  OG1       70.0400  111.1980  116.5770 O.3   311  THR311     -0.2211
     25  CG2       69.1490  112.2940  114.6330 C.3   311  THR311      0.0376
     26  N         72.1990  113.3920  117.6950 N.am  312  GLY312     -0.1942
     27  CA        72.9980  113.3090  118.9170 C.3   312  GLY312      0.2014
     28  C         73.0550  111.9230  119.5260 C.2   312  GLY312      0.2638
     29  O         74.1320  111.4260  119.8390 O.2   312  GLY312     -0.2714
     30  N         71.8960  111.2940  119.6990 N.am  313  MET313     -0.1976
     31  CA        71.8440  109.9450  120.2690 C.3   313  MET313      0.1605
     32  C         72.5530  108.8900  119.4070 C.2   313  MET313      0.2287
     33  O         73.2550  108.0300  119.9400 O.2   313  MET313     -0.2864
     34  CB        70.4060  109.5280  120.5790 C.3   313  MET313      0.0413
     35  CG        70.2700  108.0580  120.9390 C.3   313  MET313      0.0598
     36  SD        68.5870  107.5990  121.3770 S.3   313  MET313     -0.1393
     37  CE        68.6660  107.8150  123.1360 C.3   313  MET313      0.0692
     38  N         76.3570  109.4810  119.9290 N.3   316  GLU316     -0.1245
     39  CA        76.7850  108.9900  121.2380 C.3   316  GLU316      0.1567
     40  C         76.9390  107.4700  121.2210 C.2   316  GLU316      0.2260
     41  O         77.8660  106.9260  121.8220 O.2   316  GLU316     -0.2867
     42  CB        75.7800  109.3880  122.3280 C.3   316  GLU316      0.0388
     43  CG        75.7750  110.8790  122.6830 C.3   316  GLU316      0.1160
     44  CD        74.7860  111.1990  123.7920 C.2   316  GLU316      0.3649
     45  OE1       74.6100  110.3700  124.7110 O.co2 316  GLU316     -0.2457
     46  OE2       74.1670  112.2800  123.7430 O.co2 316  GLU316     -0.2457
     47  N         66.3630  109.8130  119.8300 N.3   344  ILE344     -0.1245
     48  CA        65.3720  110.6790  120.4730 C.3   344  ILE344      0.1561
     49  C         65.6130  112.0670  119.9180 C.2   344  ILE344      0.2260
     50  O         66.7140  112.6140  120.0620 O.2   344  ILE344     -0.2867
     51  CB        65.5340  110.7500  122.0000 C.3   344  ILE344      0.0252
     52  CG1       65.2650  109.3980  122.6450 C.3   344  ILE344      0.0019
     53  CG2       64.5950  111.8110  122.5940 C.3   344  ILE344      0.0019
     54  CD1       65.6170  109.3610  124.1190 C.3   344  ILE344      0.0001
     55  N         64.0070  115.9660  119.6770 N.3   345  ILE345     -0.1245
     56  CA        63.0300  116.9440  120.1240 C.3   345  ILE345      0.1561
     57  C         63.1620  118.2090  119.2880 C.2   345  ILE345      0.2260
     58  O         64.2010  118.8730  119.2970 O.2   345  ILE345     -0.2867
     59  CB        63.1530  117.2440  121.6330 C.3   345  ILE345      0.0252
     60  CG1       62.9460  115.9560  122.4410 C.3   345  ILE345      0.0019
     61  CG2       62.1660  118.3500  122.0430 C.3   345  ILE345      0.0019
     62  CD1       63.1300  116.1100  123.9520 C.3   345  ILE345      0.0001
     63  N         61.9250  119.5260  128.4890 N.3   378  PHE378     -0.1227
     64  CA        62.9250  118.4680  128.4070 C.3   378  PHE378      0.1736
     65  C         64.1150  118.8360  127.5160 C.2   378  PHE378      0.2595
     66  O         65.2560  118.4740  127.8240 O.2   378  PHE378     -0.2718
     67  CB        62.3130  117.1460  127.9360 C.3   378  PHE378      0.0547
     68  CG        63.2230  115.9730  128.1380 C.ar  378  PHE378     -0.0202
     69  CD1       63.2440  115.2980  129.3530 C.ar  378  PHE378     -0.0042
     70  CD2       64.0910  115.5610  127.1250 C.ar  378  PHE378     -0.0042
     71  CE1       64.1070  114.2160  129.5500 C.ar  378  PHE378     -0.0003
     72  CE2       64.9550  114.4820  127.3200 C.ar  378  PHE378     -0.0003
     73  CZ        64.9570  113.8120  128.5300 C.ar  378  PHE378     -0.0000
     74  N         63.8400  119.5190  126.4030 N.am  379  LYS379     -0.1980
     75  CA        64.8870  120.0230  125.5060 C.3   379  LYS379      0.1596
     76  C         65.8490  120.9560  126.2620 C.2   379  LYS379      0.2287
     77  O         67.0700  120.7890  126.1980 O.2   379  LYS379     -0.2864
     78  CB        64.2500  120.7440  124.3090 C.3   379  LYS379      0.0298
     79  CG        65.2330  121.3260  123.2930 C.3   379  LYS379      0.0038
     80  CD        65.3730  120.4470  122.0660 C.3   379  LYS379      0.0206
     81  CE        66.3660  121.0620  121.0940 C.3   379  LYS379      0.1093
     82  NZ        66.5070  120.2570  119.8610 N.3   379  LYS379     -0.1314
     83  N         67.7720  118.9140  128.8680 N.3   382  PHE382     -0.1241
     84  CA        68.8150  118.1230  128.2290 C.3   382  PHE382      0.1605
     85  C         70.0570  118.9510  127.8500 C.2   382  PHE382      0.2264
     86  O         71.1870  118.4820  127.9890 O.2   382  PHE382     -0.2867
     87  CB        68.3000  117.3610  127.0010 C.3   382  PHE382      0.0534
     88  CG        69.3470  116.4800  126.3850 C.ar  382  PHE382     -0.0203
     89  CD1       69.7440  115.3080  127.0240 C.ar  382  PHE382     -0.0042
     90  CD2       69.9870  116.8530  125.2060 C.ar  382  PHE382     -0.0042
     91  CE1       70.7390  114.5110  126.4800 C.ar  382  PHE382     -0.0003
     92  CE2       70.9780  116.0540  124.6550 C.ar  382  PHE382     -0.0003
     93  CZ        71.3520  114.8810  125.2940 C.ar  382  PHE382     -0.0000
     94  N         72.0240  119.4450  130.9730 N.3   385  TYR385     -0.1241
     95  CA        72.6010  118.1330  131.2870 C.3   385  TYR385      0.1605
     96  C         73.7940  117.7620  130.4000 C.2   385  TYR385      0.2264
     97  O         74.8200  117.3210  130.9110 O.2   385  TYR385     -0.2867
     98  CB        71.5200  117.0390  131.2370 C.3   385  TYR385      0.0534
     99  CG        72.0410  115.6140  131.3750 C.ar  385  TYR385     -0.0201
    100  CD1       72.6630  115.1860  132.5490 C.ar  385  TYR385     -0.0009
    101  CD2       71.8910  114.6930  130.3340 C.ar  385  TYR385     -0.0009
    102  CE1       73.1380  113.8770  132.6810 C.ar  385  TYR385      0.0417
    103  CE2       72.3550  113.3730  130.4600 C.ar  385  TYR385      0.0417
    104  CZ        72.9770  112.9780  131.6350 C.ar  385  TYR385      0.1957
    105  OH        73.4470  111.6840  131.7750 O.3   385  TYR385     -0.2866
    106  N         74.0860  105.5180  134.7370 N.3   399  PHE399     -0.1227
    107  CA        72.6560  105.7200  135.0290 C.3   399  PHE399      0.1736
    108  C         71.8390  106.1190  133.8000 C.2   399  PHE399      0.2595
    109  O         70.6630  105.7670  133.6990 O.2   399  PHE399     -0.2718
    110  CB        72.4330  106.7380  136.1650 C.3   399  PHE399      0.0547
    111  CG        72.4780  108.1780  135.7190 C.ar  399  PHE399     -0.0202
    112  CD1       73.6610  108.9060  135.7890 C.ar  399  PHE399     -0.0042
    113  CD2       71.3310  108.8120  135.2440 C.ar  399  PHE399     -0.0042
    114  CE1       73.7100  110.2460  135.3590 C.ar  399  PHE399     -0.0003
    115  CE2       71.3710  110.1380  134.8090 C.ar  399  PHE399     -0.0003
    116  CZ        72.5650  110.8580  134.8730 C.ar  399  PHE399     -0.0000
    117  N         72.4520  106.8690  132.8880 N.am  400  GLU400     -0.1979
    118  CA        71.7520  107.3340  131.6940 C.3   400  GLU400      0.1602
    119  C         71.3130  106.1570  130.8280 C.2   400  GLU400      0.2287
    120  O         70.1690  106.1140  130.3810 O.2   400  GLU400     -0.2864
    121  CB        72.6050  108.3140  130.8910 C.3   400  GLU400      0.0415
    122  CG        71.9090  108.8380  129.6350 C.3   400  GLU400      0.1163
    123  CD        72.7080  109.9040  128.9020 C.2   400  GLU400      0.3649
    124  OE1       73.6610  110.4730  129.4870 O.co2 400  GLU400     -0.2457
    125  OE2       72.3660  110.1820  127.7350 O.co2 400  GLU400     -0.2457
    126  N         68.4280  104.4540  132.6160 N.3   403  VAL403     -0.1231
    127  CA        67.2040  105.2550  132.5010 C.3   403  VAL403      0.1692
    128  C         66.5800  105.1650  131.1010 C.2   403  VAL403      0.2591
    129  O         65.3580  105.0450  130.9630 O.2   403  VAL403     -0.2718
    130  CB        67.4580  106.7340  132.9140 C.3   403  VAL403      0.0266
    131  CG1       66.2740  107.6230  132.5560 C.3   403  VAL403      0.0020
    132  CG2       67.7440  106.8220  134.4170 C.3   403  VAL403      0.0020
    133  N         67.4240  105.2140  130.0730 N.am  404  LEU404     -0.1980
    134  CA        66.9850  105.0340  128.6880 C.3   404  LEU404      0.1596
    135  C         66.3950  103.6420  128.4600 C.2   404  LEU404      0.2287
    136  O         65.4410  103.4880  127.7020 O.2   404  LEU404     -0.2864
    137  CB        68.1540  105.2830  127.7250 C.3   404  LEU404      0.0297
    138  CG        68.2760  106.5900  126.9250 C.3   404  LEU404      0.0022
    139  CD1       67.4350  107.7390  127.4590 C.3   404  LEU404      0.0001
    140  CD2       69.7400  106.9960  126.7740 C.3   404  LEU404      0.0001
    141  N         62.8020  103.6900  130.2970 N.3   407  PHE407     -0.1241
    142  CA        61.7800  104.5140  129.6580 C.3   407  PHE407      0.1605
    143  C         61.4940  104.2010  128.1870 C.2   407  PHE407      0.2264
    144  O         60.3440  104.2950  127.7490 O.2   407  PHE407     -0.2867
    145  CB        62.1070  106.0020  129.8260 C.3   407  PHE407      0.0534
    146  CG        61.7490  106.5420  131.1820 C.ar  407  PHE407     -0.0203
    147  CD1       60.4470  106.9560  131.4550 C.ar  407  PHE407     -0.0042
    148  CD2       62.7060  106.6210  132.1910 C.ar  407  PHE407     -0.0042
    149  CE1       60.1030  107.4460  132.7130 C.ar  407  PHE407     -0.0003
    150  CE2       62.3720  107.1110  133.4550 C.ar  407  PHE407     -0.0003
    151  CZ        61.0710  107.5250  133.7140 C.ar  407  PHE407     -0.0000
@<TRIPOS>BOND
     1    19    20    1
     2    25    23    1
     3    20    23    1
     4    20    21    1
     5    23    24    1
     6    22    21    2
     7    21    26   am
     8    26    27    1
     9    27    28    1
    10    12    13    1
    11    12    18    1
    12    57    58    2
    13    57    56    1
    14    13    14    1
    15    13    16    1
    16    32    33    2
    17    32    31    1
    18    28    30   am
    19    28    29    2
    20    55    56    1
    21    30    31    1
    22    47    48    1
    23    82    81    1
    24    15    14    2
    25    49    50    2
    26    49    48    1
    27    38    39    1
    28    18    17    1
    29    56    59    1
    30    17    16    1
    31    31    34    1
    32    48    51    1
    33    34    35    1
    34     3     4    2
    35     3     2    1
    36    35    36    1
    37    81    80    1
    38    40    39    1
    39    40    41    2
    40    39    42    1
    41    36    37    1
    42    59    61    1
    43    59    60    1
    44     1     2    1
    45     2     5    1
    46    51    53    1
    47    51    52    1
    48    80    79    1
    49    42    43    1
    50    60    62    1
    51    52    54    1
    52    43    44    1
    53     5     6    1
    54    79    78    1
    55     8     6   ar
    56     8    10   ar
    57     6     7   ar
    58    10    11   ar
    59     7     9   ar
    60    46    44   ar
    61    44    45   ar
    62    11     9   ar
    63    78    75    1
    64    92    90   ar
    65    92    93   ar
    66    90    88   ar
    67    93    91   ar
    68    75    76    1
    69    75    74    1
    70    77    76    2
    71    88    87    1
    72    88    89   ar
    73    74    65   am
    74    91    89   ar
    75   140   138    1
    76   138   139    1
    77   138   137    1
    78    87    84    1
    79    70    72   ar
    80    70    68   ar
    81    72    73   ar
    82    65    66    2
    83    65    64    1
    84   136   135    2
    85   137   134    1
    86   125   123   ar
    87   144   143    2
    88    85    86    2
    89    85    84    1
    90    67    68    1
    91    67    64    1
    92    68    69   ar
    93   143   142    1
    94    84    83    1
    95    64    63    1
    96   135   134    1
    97    73    71   ar
    98   134   133    1
    99   123   124   ar
   100   123   122    1
   101    69    71   ar
   102   122   121    1
   103   142   145    1
   104   142   141    1
   105   145   146    1
   106   133   128   am
   107   101   103   ar
   108   101    99   ar
   109   120   119    2
   110    96    97    2
   111    96    95    1
   112   103   104   ar
   113   119   118    1
   114   121   118    1
   115   129   128    2
   116    94    95    1
   117   128   127    1
   118   146   147   ar
   119   146   148   ar
   120    98    95    1
   121    98    99    1
   122    99   100   ar
   123   147   149   ar
   124   104   105    1
   125   104   102   ar
   126   118   117    1
   127   148   150   ar
   128   127   126    1
   129   127   130    1
   130   100   102   ar
   131   131   130    1
   132   149   151   ar
   133   117   108   am
   134   130   132    1
   135   150   151   ar
   136   109   108    2
   137   108   107    1
   138   106   107    1
   139   115   116   ar
   140   115   113   ar
   141   116   114   ar
   142   107   110    1
   143   113   111   ar
   144   114   112   ar
   145   111   112   ar
   146   111   110    1
