@<TRIPOS>MOLECULE
tmp/3hyxA03.pdb
 125 120 0 0 0
SMALL
GASTEIGER

@<TRIPOS>ATOM
      1  N         70.6230  117.0650  105.2270 N.3   154  SER154     -0.1217
      2  CA        70.4770  115.8290  105.9860 C.3   154  SER154      0.1889
      3  C         70.0620  116.0890  107.4380 C.2   154  SER154      0.2288
      4  O         69.7290  115.1510  108.1630 O.2   154  SER154     -0.2866
      5  CB        71.7820  115.0230  105.9280 C.3   154  SER154      0.2089
      6  OG        72.9250  115.8250  106.2150 O.3   154  SER154     -0.2183
      7  N         67.3070  118.1380  109.1860 N.3   155  PHE155     -0.1227
      8  CA        66.0890  118.9440  108.9290 C.3   155  PHE155      0.1736
      9  C         65.4520  119.5650  110.1690 C.2   155  PHE155      0.2596
     10  O         64.9970  120.7140  110.1240 O.2   155  PHE155     -0.2718
     11  CB        65.0420  118.1390  108.1750 C.3   155  PHE155      0.0547
     12  CG        65.4580  117.7530  106.7890 C.ar  155  PHE155     -0.0202
     13  CD1       65.0550  118.5020  105.7000 C.ar  155  PHE155     -0.0042
     14  CD2       66.2380  116.6220  106.5720 C.ar  155  PHE155     -0.0042
     15  CE1       65.4300  118.1390  104.4160 C.ar  155  PHE155     -0.0003
     16  CE2       66.6150  116.2600  105.3020 C.ar  155  PHE155     -0.0003
     17  CZ        66.2080  117.0170  104.2220 C.ar  155  PHE155     -0.0000
     18  N         65.4180  118.7960  111.2560 N.am  156  GLY156     -0.1943
     19  CA        65.0210  119.2660  112.5810 C.3   156  GLY156      0.1998
     20  C         65.1710  120.7460  112.9020 C.2   156  GLY156      0.2480
     21  O         64.1610  121.4150  113.1400 O.2   156  GLY156     -0.2729
     22  N         66.4180  121.2810  112.9130 N.am  157  PRO157     -0.2726
     23  CA        66.6630  122.6740  113.3630 C.3   157  PRO157      0.1402
     24  C         65.8610  123.7170  112.6020 C.2   157  PRO157      0.2269
     25  O         65.5190  124.7460  113.1850 O.2   157  PRO157     -0.2865
     26  CB        68.1470  122.9040  113.0650 C.3   157  PRO157      0.0296
     27  CG        68.7290  121.5740  113.0180 C.3   157  PRO157      0.0237
     28  CD        67.6700  120.6300  112.4990 C.3   157  PRO157      0.0939
     29  N         62.4210  123.8250  113.9280 N.3   160  GLU160     -0.1245
     30  CA        62.5650  124.4400  115.2230 C.3   160  GLU160      0.1567
     31  C         62.7510  125.9470  115.0750 C.2   160  GLU160      0.2260
     32  O         62.3280  126.7130  115.9210 O.2   160  GLU160     -0.2867
     33  CB        63.7740  123.8150  115.9050 C.3   160  GLU160      0.0388
     34  CG        63.8540  123.9980  117.3860 C.3   160  GLU160      0.1160
     35  CD        64.8010  122.9970  118.0100 C.2   160  GLU160      0.3649
     36  OE1       65.8500  122.7170  117.3900 O.co2 160  GLU160     -0.2457
     37  OE2       64.5040  122.4790  119.1110 O.co2 160  GLU160     -0.2457
     38  N         62.1520  114.3090  107.7230 N.3   192  PHE192     -0.1241
     39  CA        63.3680  114.4450  108.5360 C.3   192  PHE192      0.1605
     40  C         64.5800  113.6590  108.0050 C.2   192  PHE192      0.2264
     41  O         65.5160  113.3630  108.7520 O.2   192  PHE192     -0.2867
     42  CB        63.0990  114.0780  110.0160 C.3   192  PHE192      0.0534
     43  CG        61.9590  114.8340  110.6480 C.ar  192  PHE192     -0.0203
     44  CD1       61.9750  116.2210  110.7260 C.ar  192  PHE192     -0.0042
     45  CD2       60.8750  114.1470  111.1950 C.ar  192  PHE192     -0.0042
     46  CE1       60.9110  116.9210  111.3160 C.ar  192  PHE192     -0.0003
     47  CE2       59.8070  114.8330  111.7900 C.ar  192  PHE192     -0.0003
     48  CZ        59.8300  116.2200  111.8530 C.ar  192  PHE192     -0.0000
     49  N         64.4580  110.6070  107.2380 N.3   194  VAL194     -0.1245
     50  CA        64.3620  109.2640  107.8010 C.3   194  VAL194      0.1561
     51  C         63.0800  108.5410  107.4010 C.2   194  VAL194      0.2260
     52  O         62.7320  107.5150  107.9950 O.2   194  VAL194     -0.2867
     53  CB        64.4840  109.2790  109.3520 C.3   194  VAL194      0.0252
     54  CG1       65.7600  110.0190  109.7960 C.3   194  VAL194      0.0019
     55  CG2       63.2440  109.9000  110.0120 C.3   194  VAL194      0.0019
     56  N         58.9230  109.6830  111.2620 N.3   197  ILE197     -0.1245
     57  CA        59.0080  109.0450  112.5640 C.3   197  ILE197      0.1561
     58  C         57.5680  108.9140  113.0140 C.2   197  ILE197      0.2260
     59  O         56.9460  109.8970  113.3940 O.2   197  ILE197     -0.2867
     60  CB        59.8330  109.8680  113.5720 C.3   197  ILE197      0.0252
     61  CG1       61.2800  110.0190  113.0780 C.3   197  ILE197      0.0019
     62  CG2       59.8120  109.2040  114.9400 C.3   197  ILE197      0.0019
     63  CD1       62.1250  111.0690  113.8300 C.3   197  ILE197      0.0001
     64  N         70.0970  112.2480  109.0980 N.3   309  PRO309     -0.2102
     65  CA        70.6240  112.9800  110.2430 C.3   309  PRO309      0.1504
     66  C         71.3810  112.0860  111.2220 C.2   309  PRO309      0.2576
     67  O         70.9590  110.9620  111.5110 O.2   309  PRO309     -0.2718
     68  CB        69.3640  113.5450  110.9140 C.3   309  PRO309      0.0282
     69  CG        68.2890  112.6030  110.5310 C.3   309  PRO309      0.0208
     70  CD        68.6280  112.1880  109.1180 C.3   309  PRO309      0.0893
     71  N         72.5010  112.5940  111.7140 N.am  310  LYS310     -0.1966
     72  CA        73.1800  111.9920  112.8450 C.3   310  LYS310      0.1728
     73  C         72.8610  112.8690  114.0540 C.2   310  LYS310      0.2616
     74  O         73.3700  113.9810  114.1860 O.2   310  LYS310     -0.2715
     75  CB        74.6960  111.8930  112.5820 C.3   310  LYS310      0.0311
     76  CG        75.1340  110.6450  111.7790 C.3   310  LYS310      0.0038
     77  CD        74.9410  110.7660  110.2730 C.3   310  LYS310      0.0206
     78  CE        76.1610  111.3810  109.5770 C.3   310  LYS310      0.1093
     79  NZ        76.0940  111.2880  108.0900 N.3   310  LYS310     -0.1314
     80  N         71.9800  112.3790  114.9160 N.am  311  THR311     -0.1951
     81  CA        71.4600  113.1790  116.0280 C.3   311  THR311      0.1897
     82  C         72.3240  112.9580  117.2770 C.2   311  THR311      0.2313
     83  O         73.1490  112.0510  117.3040 O.2   311  THR311     -0.2863
     84  CB        69.9860  112.8040  116.3410 C.3   311  THR311      0.1794
     85  OG1       69.9560  111.6520  117.1960 O.3   311  THR311     -0.2208
     86  CG2       69.1900  112.5040  115.0580 C.3   311  THR311      0.0378
     87  N         64.5640  112.9350  120.1130 N.3   345  CYS345     -0.1221
     88  CA        64.6960  114.2040  119.3950 C.3   345  CYS345      0.1808
     89  C         63.6230  115.2090  119.8070 C.2   345  CYS345      0.2601
     90  O         62.4240  114.9930  119.5850 O.2   345  CYS345     -0.2717
     91  CB        64.6680  113.9810  117.8810 C.3   345  CYS345      0.0970
     92  SG        66.2590  113.5220  117.1460 S.3   345  CYS345     -0.0800
     93  N         64.0500  116.3060  120.4160 N.am  346  ILE346     -0.1965
     94  CA        63.0970  117.2860  120.9000 C.3   346  ILE346      0.1727
     95  C         63.1780  118.5720  120.0940 C.2   346  ILE346      0.2616
     96  O         64.2180  119.2260  120.0520 O.2   346  ILE346     -0.2715
     97  CB        63.2630  117.5260  122.4030 C.3   346  ILE346      0.0290
     98  CG1       62.9320  116.2320  123.1420 C.3   346  ILE346      0.0022
     99  CG2       62.3610  118.6580  122.8720 C.3   346  ILE346      0.0023
    100  CD1       63.4510  116.1770  124.5510 C.3   346  ILE346      0.0001
    101  N         62.0770  118.9160  119.4430 N.am  347  ALA347     -0.1977
    102  CA        62.0330  120.1160  118.6340 C.3   347  ALA347      0.1597
    103  C         61.2770  121.1760  119.3940 C.2   347  ALA347      0.2287
    104  O         60.0810  121.0520  119.6110 O.2   347  ALA347     -0.2864
    105  CB        61.3870  119.8390  117.2810 C.3   347  ALA347      0.0319
    106  N         60.2470  113.3090  119.6450 N.3   356  PHE356     -0.1241
    107  CA        60.3540  112.2330  118.6650 C.3   356  PHE356      0.1605
    108  C         61.2990  111.1410  119.1390 C.2   356  PHE356      0.2264
    109  O         62.4800  111.3960  119.3610 O.2   356  PHE356     -0.2867
    110  CB        60.8280  112.7780  117.3190 C.3   356  PHE356      0.0534
    111  CG        59.9210  113.8090  116.7380 C.ar  356  PHE356     -0.0203
    112  CD1       58.6980  113.4430  116.1780 C.ar  356  PHE356     -0.0042
    113  CD2       60.2810  115.1520  116.7480 C.ar  356  PHE356     -0.0042
    114  CE1       57.8370  114.4050  115.6270 C.ar  356  PHE356     -0.0003
    115  CE2       59.4350  116.1260  116.1980 C.ar  356  PHE356     -0.0003
    116  CZ        58.2080  115.7490  115.6360 C.ar  356  PHE356     -0.0000
    117  N         63.9530  119.8030  127.2200 N.3   380  LYS380     -0.1245
    118  CA        65.0990  120.2650  126.4340 C.3   380  LYS380      0.1561
    119  C         65.9790  121.2800  127.1800 C.2   380  LYS380      0.2260
    120  O         67.2050  121.2480  127.0570 O.2   380  LYS380     -0.2867
    121  CB        64.6630  120.8140  125.0760 C.3   380  LYS380      0.0271
    122  CG        65.8280  121.1340  124.1400 C.3   380  LYS380      0.0035
    123  CD        65.4770  120.9420  122.6680 C.3   380  LYS380      0.0206
    124  CE        66.6130  121.4990  121.8050 C.3   380  LYS380      0.1093
    125  NZ        66.4900  121.2480  120.3380 N.3   380  LYS380     -0.1314
@<TRIPOS>BOND
     1    17    15   ar
     2    17    16   ar
     3    15    13   ar
     4     1     2    1
     5    16    14   ar
     6    13    12   ar
     7     5     2    1
     8     5     6    1
     9     2     3    1
    10    14    12   ar
    11    12    11    1
    12    49    50    1
    13    51    50    1
    14    51    52    2
    15     3     4    2
    16    38    39    1
    17    50    53    1
    18    40    39    1
    19    40    41    2
    20    79    78    1
    21    11     8    1
    22    39    42    1
    23     8     7    1
    24     8     9    1
    25    64    70    1
    26    64    65    1
    27    70    69    1
    28    53    54    1
    29    53    55    1
    30    78    77    1
    31    42    43    1
    32    10     9    2
    33     9    18   am
    34    65    68    1
    35    65    66    1
    36    77    76    1
    37    69    68    1
    38    43    44   ar
    39    43    45   ar
    40    44    46   ar
    41    45    47   ar
    42    66    67    2
    43    66    71   am
    44    18    19    1
    45    56    57    1
    46    46    48   ar
    47    71    72    1
    48    76    75    1
    49    47    48   ar
    50    28    22    1
    51    28    27    1
    52    57    58    1
    53    57    60    1
    54    19    20    1
    55    75    72    1
    56    24    25    2
    57    24    23    1
    58    72    73    1
    59    20    22   am
    60    20    21    2
    61    22    23    1
    62    58    59    2
    63    27    26    1
    64    26    23    1
    65    61    60    1
    66    61    63    1
    67    60    62    1
    68    29    30    1
    69    73    74    2
    70    73    80   am
    71    80    81    1
    72    86    84    1
    73    31    30    1
    74    31    32    2
    75    30    33    1
    76   114   116   ar
    77   114   112   ar
    78   116   115   ar
    79    33    34    1
    80    81    84    1
    81    81    82    1
    82   112   111   ar
    83   115   113   ar
    84    84    85    1
    85   111   113   ar
    86   111   110    1
    87    92    91    1
    88    82    83    2
    89   105   102    1
    90   110   107    1
    91    34    35    1
    92    36    35   ar
    93    91    88    1
    94    35    37   ar
    95   102   103    1
    96   102   101    1
    97   107   108    1
    98   107   106    1
    99   108   109    2
   100   103   104    2
   101    88    89    1
   102    88    87    1
   103   101    95   am
   104    90    89    2
   105    89    93   am
   106    96    95    2
   107    95    94    1
   108   125   124    1
   109    93    94    1
   110    94    97    1
   111   124   123    1
   112    97    99    1
   113    97    98    1
   114   123   122    1
   115    98   100    1
   116   122   121    1
   117   121   118    1
   118   118   119    1
   119   118   117    1
   120   120   119    2
