@<TRIPOS>MOLECULE
tmp/3hyxC01.pdb
 196 191 0 0 0
SMALL
GASTEIGER

@<TRIPOS>ATOM
      1  N         22.2240  134.9180  109.1530 N.3    42  PRO42      -0.2116
      2  CA        22.7390  133.7190  109.8440 C.3    42  PRO42       0.1372
      3  C         21.7060  132.6560  110.2450 C.2    42  PRO42       0.2244
      4  O         22.0990  131.5540  110.6270 O.2    42  PRO42      -0.2868
      5  CB        23.4130  134.2950  111.0930 C.3    42  PRO42       0.0268
      6  CG        23.8100  135.6510  110.7000 C.3    42  PRO42       0.0207
      7  CD        22.6940  136.1470  109.8160 C.3    42  PRO42       0.0892
      8  N         32.0500  138.1020  106.7350 N.3   311  THR311     -0.1203
      9  CA        31.2720  137.5530  107.8340 C.3   311  THR311      0.1994
     10  C         30.6480  138.6550  108.7000 C.2   311  THR311      0.2618
     11  O         31.0750  139.8120  108.6680 O.2   311  THR311     -0.2717
     12  CB        32.1430  136.6250  108.7200 C.3   311  THR311      0.1784
     13  OG1       32.7090  137.3730  109.7990 O.3   311  THR311     -0.2211
     14  CG2       33.2640  135.9730  107.9160 C.3   311  THR311      0.0376
     15  N         29.6350  138.2820  109.4760 N.am  312  GLY312     -0.1942
     16  CA        28.9250  139.2160  110.3500 C.3   312  GLY312      0.2014
     17  C         29.8060  140.0450  111.2730 C.2   312  GLY312      0.2638
     18  O         29.5450  141.2300  111.4780 O.2   312  GLY312     -0.2714
     19  N         30.8430  139.4320  111.8290 N.am  313  MET313     -0.1976
     20  CA        31.7620  140.1410  112.7070 C.3   313  MET313      0.1605
     21  C         32.6500  141.0900  111.9100 C.2   313  MET313      0.2287
     22  O         32.9240  142.2000  112.3510 O.2   313  MET313     -0.2864
     23  CB        32.5860  139.1440  113.5390 C.3   313  MET313      0.0413
     24  CG        33.8280  139.7140  114.2170 C.3   313  MET313      0.0598
     25  SD        34.2540  138.9490  115.8170 S.3   313  MET313     -0.1393
     26  CE        36.0460  139.0930  115.7590 C.3   313  MET313      0.0692
     27  N         30.3900  143.9690  111.0860 N.3   316  GLU316     -0.1245
     28  CA        30.1300  144.7810  112.2780 C.3   316  GLU316      0.1567
     29  C         31.3090  145.7230  112.4940 C.2   316  GLU316      0.2260
     30  O         31.1360  146.8920  112.8420 O.2   316  GLU316     -0.2867
     31  CB        29.8880  143.9030  113.5150 C.3   316  GLU316      0.0388
     32  CG        28.4340  143.3900  113.6920 C.3   316  GLU316      0.1160
     33  CD        28.3060  142.2210  114.7240 C.2   316  GLU316      0.3649
     34  OE1       28.8330  142.3420  115.8660 O.co2 316  GLU316     -0.2457
     35  OE2       27.6760  141.1720  114.3960 O.co2 316  GLU316     -0.2457
     36  N         34.6280  135.5250  114.1860 N.3   344  ILE344     -0.1231
     37  CA        34.1140  134.4310  114.9720 C.3   344  ILE344      0.1692
     38  C         33.0240  133.8760  114.1120 C.2   344  ILE344      0.2592
     39  O         32.0700  134.5770  113.7970 O.2   344  ILE344     -0.2718
     40  CB        33.4750  134.8920  116.2650 C.3   344  ILE344      0.0266
     41  CG1       34.5400  135.2810  117.2790 C.3   344  ILE344      0.0019
     42  CG2       32.6060  133.7760  116.8530 C.3   344  ILE344      0.0020
     43  CD1       33.9590  136.0610  118.4300 C.3   344  ILE344      0.0001
     44  N         33.1600  132.6240  113.7210 N.am  345  CYS345     -0.1956
     45  CA        32.2020  132.0210  112.8220 C.3   345  CYS345      0.1843
     46  C         31.7510  130.6720  113.3470 C.2   345  CYS345      0.2625
     47  O         32.5750  129.7770  113.5900 O.2   345  CYS345     -0.2714
     48  CB        32.8180  131.8840  111.4370 C.3   345  CYS345      0.0997
     49  SG        32.7850  133.4010  110.4760 S.3   345  CYS345     -0.0797
     50  N         30.4460  130.5300  113.5440 N.am  346  ILE346     -0.1977
     51  CA        29.9000  129.2770  114.0570 C.3   346  ILE346      0.1596
     52  C         29.0600  128.6080  112.9920 C.2   346  ILE346      0.2287
     53  O         28.0960  129.1930  112.4900 O.2   346  ILE346     -0.2864
     54  CB        29.0620  129.4740  115.3300 C.3   346  ILE346      0.0276
     55  CG1       29.9100  130.1180  116.4200 C.3   346  ILE346      0.0022
     56  CG2       28.4940  128.1340  115.8060 C.3   346  ILE346      0.0022
     57  CD1       29.1600  130.3420  117.7030 C.3   346  ILE346      0.0001
     58  N         33.1290  125.7120  115.8980 N.3   355  PHE355     -0.1241
     59  CA        33.5140  127.0680  116.2710 C.3   355  PHE355      0.1605
     60  C         34.8100  127.4730  115.5980 C.2   355  PHE355      0.2264
     61  O         35.8610  126.9090  115.8640 O.2   355  PHE355     -0.2867
     62  CB        33.6470  127.1960  117.7920 C.3   355  PHE355      0.0534
     63  CG        34.0110  128.5770  118.2590 C.ar  355  PHE355     -0.0203
     64  CD1       33.0150  129.5080  118.5580 C.ar  355  PHE355     -0.0042
     65  CD2       35.3430  128.9460  118.4130 C.ar  355  PHE355     -0.0042
     66  CE1       33.3410  130.7920  119.0000 C.ar  355  PHE355     -0.0003
     67  CE2       35.6800  130.2250  118.8460 C.ar  355  PHE355     -0.0003
     68  CZ        34.6750  131.1490  119.1380 C.ar  355  PHE355     -0.0000
     69  N         41.2360  129.8520  116.3440 N.3   369  ILE369     -0.1245
     70  CA        40.5850  128.8500  117.1710 C.3   369  ILE369      0.1561
     71  C         39.6510  128.0360  116.2740 C.2   369  ILE369      0.2260
     72  O         38.8460  128.6060  115.5270 O.2   369  ILE369     -0.2867
     73  CB        39.8630  129.4790  118.4010 C.3   369  ILE369      0.0252
     74  CG1       40.8820  130.1740  119.3130 C.3   369  ILE369      0.0019
     75  CG2       39.1040  128.4170  119.1860 C.3   369  ILE369      0.0019
     76  CD1       40.2940  130.9290  120.4730 C.3   369  ILE369      0.0001
     77  N         37.3420  124.8460  117.2150 N.3   371  LYS371     -0.1245
     78  CA        36.8010  123.8530  118.1390 C.3   371  LYS371      0.1561
     79  C         35.4490  123.3380  117.6350 C.2   371  LYS371      0.2260
     80  O         34.8670  123.8960  116.7180 O.2   371  LYS371     -0.2867
     81  CB        36.6830  124.4200  119.5700 C.3   371  LYS371      0.0271
     82  CG        38.0000  124.9300  120.1840 C.3   371  LYS371      0.0035
     83  CD        38.3270  124.2060  121.4980 C.3   371  LYS371      0.0206
     84  CE        39.5480  124.7950  122.2150 C.3   371  LYS371      0.1093
     85  NZ        39.2210  126.1310  122.8220 N.3   371  LYS371     -0.1314
     86  N         27.9950  122.9070  122.8310 N.3   375  TRP375     -0.1241
     87  CA        27.9960  124.2730  123.3480 C.3   375  TRP375      0.1605
     88  C         27.9780  125.3340  122.2570 C.2   375  TRP375      0.2264
     89  O         27.4650  126.4360  122.4590 O.2   375  TRP375     -0.2867
     90  CB        29.2310  124.4890  124.2240 C.3   375  TRP375      0.0550
     91  CG        30.5270  124.3410  123.4630 C.ar  375  TRP375      0.0003
     92  CD1       31.1920  123.1810  123.2040 C.ar  375  TRP375      0.0946
     93  CD2       31.2960  125.3930  122.8520 C.ar  375  TRP375      0.0152
     94  NE1       32.3270  123.4400  122.4720 N.ar  375  TRP375     -0.2442
     95  CE2       32.4170  124.7870  122.2430 C.ar  375  TRP375      0.0810
     96  CE3       31.1400  126.7840  122.7550 C.ar  375  TRP375      0.0012
     97  CZ2       33.3890  125.5240  121.5570 C.ar  375  TRP375      0.0191
     98  CZ3       32.1030  127.5170  122.0700 C.ar  375  TRP375      0.0001
     99  CH2       33.2150  126.8850  121.4830 C.ar  375  TRP375      0.0015
    100  N         25.2740  128.2480  121.5770 N.3   379  PHE379     -0.1227
    101  CA        25.7940  129.5990  121.4770 C.3   379  PHE379      0.1736
    102  C         25.3260  130.2890  120.1990 C.2   379  PHE379      0.2595
    103  O         25.2450  131.5080  120.1610 O.2   379  PHE379     -0.2718
    104  CB        27.3210  129.6190  121.5830 C.3   379  PHE379      0.0547
    105  CG        27.8800  130.9910  121.7700 C.ar  379  PHE379     -0.0202
    106  CD1       27.8150  131.6190  123.0130 C.ar  379  PHE379     -0.0042
    107  CD2       28.4400  131.6780  120.7000 C.ar  379  PHE379     -0.0042
    108  CE1       28.3120  132.9190  123.1870 C.ar  379  PHE379     -0.0003
    109  CE2       28.9420  132.9680  120.8540 C.ar  379  PHE379     -0.0003
    110  CZ        28.8770  133.5930  122.0980 C.ar  379  PHE379     -0.0000
    111  N         25.0140  129.5100  119.1650 N.am  380  LYS380     -0.1980
    112  CA        24.4640  130.0380  117.9180 C.3   380  LYS380      0.1596
    113  C         23.0030  130.4540  118.1040 C.2   380  LYS380      0.2287
    114  O         22.5960  131.5170  117.6420 O.2   380  LYS380     -0.2864
    115  CB        24.5800  128.9930  116.8040 C.3   380  LYS380      0.0298
    116  CG        24.0240  129.4020  115.4440 C.3   380  LYS380      0.0038
    117  CD        25.1290  129.8970  114.5350 C.3   380  LYS380      0.0206
    118  CE        24.5960  130.2200  113.1460 C.3   380  LYS380      0.1093
    119  NZ        25.6100  129.9670  112.0840 N.3   380  LYS380     -0.1314
    120  N         23.0820  133.6130  120.3490 N.3   383  PHE383     -0.1241
    121  CA        23.6220  134.8210  119.7460 C.3   383  PHE383      0.1605
    122  C         22.5850  135.4510  118.8140 C.2   383  PHE383      0.2264
    123  O         22.4900  136.6830  118.7020 O.2   383  PHE383     -0.2867
    124  CB        24.9400  134.5510  119.0080 C.3   383  PHE383      0.0534
    125  CG        25.4360  135.7340  118.2230 C.ar  383  PHE383     -0.0203
    126  CD1       26.0570  136.8050  118.8710 C.ar  383  PHE383     -0.0042
    127  CD2       25.2440  135.8000  116.8370 C.ar  383  PHE383     -0.0042
    128  CE1       26.4920  137.9190  118.1460 C.ar  383  PHE383     -0.0003
    129  CE2       25.6760  136.9030  116.1000 C.ar  383  PHE383     -0.0003
    130  CZ        26.3010  137.9680  116.7550 C.ar  383  PHE383     -0.0000
    131  N         20.2280  137.3020  120.8980 N.3   386  TYR386     -0.1241
    132  CA        20.9710  138.4880  121.2860 C.3   386  TYR386      0.1605
    133  C         21.0070  139.5200  120.1740 C.2   386  TYR386      0.2264
    134  O         20.6650  140.6770  120.4060 O.2   386  TYR386     -0.2867
    135  CB        22.3920  138.1110  121.7060 C.3   386  TYR386      0.0534
    136  CG        23.3470  139.2680  121.9320 C.ar  386  TYR386     -0.0201
    137  CD1       23.1450  140.1780  122.9620 C.ar  386  TYR386     -0.0009
    138  CD2       24.4700  139.4300  121.1300 C.ar  386  TYR386     -0.0009
    139  CE1       24.0240  141.2220  123.1790 C.ar  386  TYR386      0.0417
    140  CE2       25.3590  140.4770  121.3400 C.ar  386  TYR386      0.0417
    141  CZ        25.1300  141.3630  122.3680 C.ar  386  TYR386      0.1957
    142  OH        26.0040  142.3990  122.5830 O.3   386  TYR386     -0.2866
    143  N         29.8430  146.9750  126.4870 N.3   400  PHE400     -0.1227
    144  CA        30.2630  145.7490  127.1670 C.3   400  PHE400      0.1736
    145  C         30.6580  144.6360  126.2100 C.2   400  PHE400      0.2595
    146  O         31.5160  143.8210  126.5420 O.2   400  PHE400     -0.2718
    147  CB        29.1850  145.2420  128.1330 C.3   400  PHE400      0.0547
    148  CG        28.0690  144.4700  127.4660 C.ar  400  PHE400     -0.0202
    149  CD1       26.8870  145.1120  127.0890 C.ar  400  PHE400     -0.0042
    150  CD2       28.1930  143.1000  127.2310 C.ar  400  PHE400     -0.0042
    151  CE1       25.8510  144.4070  126.4800 C.ar  400  PHE400     -0.0003
    152  CE2       27.1710  142.3820  126.6160 C.ar  400  PHE400     -0.0003
    153  CZ        25.9950  143.0320  126.2400 C.ar  400  PHE400     -0.0000
    154  N         30.0210  144.5950  125.0380 N.am  401  GLU401     -0.1979
    155  CA        30.2790  143.5500  124.0450 C.3   401  GLU401      0.1602
    156  C         31.7310  143.5750  123.5950 C.2   401  GLU401      0.2287
    157  O         32.3640  142.5250  123.4980 O.2   401  GLU401     -0.2864
    158  CB        29.3460  143.6610  122.8390 C.3   401  GLU401      0.0415
    159  CG        29.5260  142.5140  121.8580 C.3   401  GLU401      0.1163
    160  CD        28.8230  142.7140  120.5240 C.2   401  GLU401      0.3649
    161  OE1       27.6380  143.1060  120.5170 O.co2 401  GLU401     -0.2457
    162  OE2       29.4550  142.4490  119.4760 O.co2 401  GLU401     -0.2457
    163  N         33.9180  142.3310  126.4520 N.3   404  VAL404     -0.1231
    164  CA        33.7850  140.8740  126.5280 C.3   404  VAL404      0.1692
    165  C         34.7030  140.1690  125.5230 C.2   404  VAL404      0.2591
    166  O         35.4790  139.2890  125.9030 O.2   404  VAL404     -0.2718
    167  CB        32.3030  140.4280  126.3650 C.3   404  VAL404      0.0266
    168  CG1       32.1930  138.9380  126.0670 C.3   404  VAL404      0.0020
    169  CG2       31.5120  140.7690  127.6240 C.3   404  VAL404      0.0020
    170  N         34.6170  140.5720  124.2520 N.am  405  LEU405     -0.1980
    171  CA        35.4740  140.0370  123.1830 C.3   405  LEU405      0.1596
    172  C         36.9700  140.2870  123.4060 C.2   405  LEU405      0.2287
    173  O         37.8150  139.5060  122.9640 O.2   405  LEU405     -0.2864
    174  CB        35.0560  140.6170  121.8340 C.3   405  LEU405      0.0297
    175  CG        33.7590  140.0710  121.2410 C.3   405  LEU405      0.0022
    176  CD1       33.3570  140.8330  119.9810 C.3   405  LEU405      0.0001
    177  CD2       33.9070  138.5900  120.9510 C.3   405  LEU405      0.0001
    178  N         37.9740  137.6360  126.3640 N.3   408  PHE408     -0.1227
    179  CA        38.0230  136.2360  125.9590 C.3   408  PHE408      0.1736
    180  C         38.9400  135.9380  124.7710 C.2   408  PHE408      0.2595
    181  O         39.5730  134.8790  124.7270 O.2   408  PHE408     -0.2718
    182  CB        36.6070  135.6990  125.6880 C.3   408  PHE408      0.0547
    183  CG        35.8570  135.3230  126.9330 C.ar  408  PHE408     -0.0202
    184  CD1       35.9600  134.0380  127.4580 C.ar  408  PHE408     -0.0042
    185  CD2       35.0660  136.2590  127.5960 C.ar  408  PHE408     -0.0042
    186  CE1       35.2800  133.6910  128.6220 C.ar  408  PHE408     -0.0003
    187  CE2       34.3840  135.9230  128.7570 C.ar  408  PHE408     -0.0003
    188  CZ        34.4860  134.6380  129.2690 C.ar  408  PHE408     -0.0000
    189  N         39.0070  136.8570  123.8110 N.am  409  LEU409     -0.1980
    190  CA        39.7340  136.6050  122.5630 C.3   409  LEU409      0.1596
    191  C         40.8760  137.5810  122.2910 C.2   409  LEU409      0.2287
    192  O         41.5770  137.4470  121.2800 O.2   409  LEU409     -0.2864
    193  CB        38.7720  136.6030  121.3780 C.3   409  LEU409      0.0297
    194  CG        37.6160  135.6100  121.4120 C.3   409  LEU409      0.0022
    195  CD1       36.6590  135.9300  120.3040 C.3   409  LEU409      0.0001
    196  CD2       38.1190  134.1750  121.2990 C.3   409  LEU409      0.0001
@<TRIPOS>BOND
     1     8     9    1
     2     9    10    1
     3     9    12    1
     4    14    12    1
     5    11    10    2
     6    10    15   am
     7    12    13    1
     8     1     7    1
     9     1     2    1
    10    15    16    1
    11     7     6    1
    12     2     3    1
    13     2     5    1
    14     3     4    2
    15    16    17    1
    16    49    48    1
    17     6     5    1
    18    27    28    1
    19    17    18    2
    20    17    19   am
    21    48    45    1
    22    19    20    1
    23    21    22    2
    24    21    20    1
    25   119   118    1
    26    28    29    1
    27    28    31    1
    28    53    52    2
    29    29    30    2
    30    20    23    1
    31    45    46    1
    32    45    44    1
    33    52    51    1
    34   118   117    1
    35    46    50   am
    36    46    47    2
    37    31    32    1
    38    23    24    1
    39    50    51    1
    40    32    33    1
    41    44    38   am
    42    39    38    2
    43    51    54    1
    44    38    37    1
    45    36    37    1
    46    24    25    1
    47    35    33   ar
    48   117   116    1
    49    33    34   ar
    50    37    40    1
    51    54    56    1
    52    54    55    1
    53   116   115    1
    54    72    71    2
    55    60    61    2
    56    60    59    1
    57    26    25    1
    58    58    59    1
    59   129   130   ar
    60   129   127   ar
    61    40    42    1
    62    40    41    1
    63    59    62    1
    64    71    70    1
    65    69    70    1
    66    55    57    1
    67    80    79    2
    68   130   128   ar
    69   115   112    1
    70   127   125   ar
    71    70    73    1
    72    77    78    1
    73    41    43    1
    74    79    78    1
    75   114   113    2
    76    62    63    1
    77   112   113    1
    78   112   111    1
    79    78    81    1
    80   128   126   ar
    81   125   126   ar
    82   125   124    1
    83    63    65   ar
    84    63    64   ar
    85    73    75    1
    86    73    74    1
    87    65    67   ar
    88    64    66   ar
    89   123   122    2
    90   122   121    1
    91    67    68   ar
    92    66    68   ar
    93   124   121    1
    94   111   102   am
    95    74    76    1
    96   162   160   ar
    97    81    82    1
    98   121   120    1
    99   176   175    1
   100   103   102    2
   101   133   134    2
   102   133   132    1
   103    82    83    1
   104   102   101    1
   105   195   194    1
   106   161   160   ar
   107   160   159    1
   108   107   109   ar
   109   107   105   ar
   110   109   110   ar
   111   131   132    1
   112   177   175    1
   113   138   140   ar
   114   138   136   ar
   115   175   174    1
   116   192   191    2
   117   132   135    1
   118   196   194    1
   119   140   141   ar
   120   193   194    1
   121   193   190    1
   122   101   100    1
   123   101   104    1
   124    99    97   ar
   125    99    98   ar
   126    83    84    1
   127    97    95   ar
   128   104   105    1
   129   135   136    1
   130   105   106   ar
   131   174   171    1
   132   159   158    1
   133   136   137   ar
   134    98    96   ar
   135   110   108   ar
   136    84    85    1
   137    95    94   ar
   138    95    93   ar
   139    88    89    2
   140    88    87    1
   141   191   190    1
   142   141   142    1
   143   141   139   ar
   144    94    92   ar
   145   190   189    1
   146    96    93   ar
   147    86    87    1
   148   158   155    1
   149    93    91   ar
   150   137   139   ar
   151   173   172    2
   152   106   108   ar
   153   171   172    1
   154   171   170    1
   155    92    91   ar
   156    87    90    1
   157    91    90    1
   158   157   156    2
   159   156   155    1
   160   189   180   am
   161   155   154    1
   162   170   165   am
   163   181   180    2
   164   180   179    1
   165   154   145   am
   166   165   166    2
   167   165   164    1
   168   182   179    1
   169   182   183    1
   170   179   178    1
   171   168   167    1
   172   145   146    2
   173   145   144    1
   174   153   151   ar
   175   153   152   ar
   176   167   164    1
   177   167   169    1
   178   163   164    1
   179   151   149   ar
   180   143   144    1
   181   152   150   ar
   182   183   184   ar
   183   183   185   ar
   184   149   148   ar
   185   144   147    1
   186   150   148   ar
   187   184   186   ar
   188   148   147    1
   189   185   187   ar
   190   186   188   ar
   191   187   188   ar
