@<TRIPOS>MOLECULE
tmp/3hyzB00.pdb
 96 88 0 0 0
SMALL
GASTEIGER

@<TRIPOS>ATOM
      1  N         28.7810   11.1640   40.5850 N.3    33  LEU33      -0.1245
      2  CA        28.2310   11.7890   41.7740 C.3    33  LEU33       0.1561
      3  C         26.8720   11.1520   42.1370 C.2    33  LEU33       0.2260
      4  O         26.5350   10.9860   43.3130 O.2    33  LEU33      -0.2867
      5  CB        28.0720   13.2940   41.5590 C.3    33  LEU33       0.0270
      6  CG        29.3350   14.1540   41.5610 C.3    33  LEU33       0.0019
      7  CD1       29.0090   15.6420   41.5090 C.3    33  LEU33       0.0001
      8  CD2       30.1840   13.8440   42.7880 C.3    33  LEU33       0.0001
      9  N         27.8020    7.9230   43.9080 N.3    36  ASN36      -0.1225
     10  CA        28.1710    8.0580   45.3360 C.3    36  ASN36       0.1785
     11  C         26.8940    8.1250   46.1790 C.2    36  ASN36       0.2597
     12  O         26.8060    7.5520   47.2650 O.2    36  ASN36      -0.2718
     13  CB        29.0390    9.3180   45.6410 C.3    36  ASN36       0.1169
     14  CG        30.4060    9.2800   44.9790 C.2    36  ASN36       0.2627
     15  OD1       30.7880    8.2850   44.3460 O.2    36  ASN36      -0.2716
     16  ND2       31.1390   10.3770   45.0920 N.am   36  ASN36      -0.0877
     17  N         25.9050    8.8590   45.6820 N.am   37  SER37      -0.1952
     18  CA        24.6870    9.0960   46.4180 C.3    37  SER37       0.1924
     19  C         24.0090    7.7510   46.6460 C.2    37  SER37       0.2314
     20  O         23.5340    7.4760   47.7410 O.2    37  SER37      -0.2863
     21  CB        23.7650   10.0260   45.6290 C.3    37  SER37       0.2116
     22  OG        24.2420   11.3580   45.5730 O.3    37  SER37      -0.2180
     23  N         25.6250    5.6370   49.2980 N.3    40  ALA40      -0.1245
     24  CA        25.2380    6.2040   50.5840 C.3    40  ALA40       0.1562
     25  C         23.8460    5.7600   51.0090 C.2    40  ALA40       0.2260
     26  O         23.5630    5.5760   52.2040 O.2    40  ALA40      -0.2867
     27  CB        25.2990    7.7480   50.5240 C.3    40  ALA40       0.0290
     28  N         21.1930   13.8070   48.3780 N.3    78  ASP78      -0.1239
     29  CA        20.7340   12.4930   48.6580 C.3    78  ASP78       0.1674
     30  C         20.4470   12.3620   50.1440 C.2    78  ASP78       0.2266
     31  O         21.0590   13.0070   50.9680 O.2    78  ASP78      -0.2867
     32  CB        21.8060   11.4790   48.1930 C.3    78  ASP78       0.1410
     33  CG        23.0130   11.4250   49.1180 C.2    78  ASP78       0.3668
     34  OD1       22.8390   11.1800   50.3400 O.co2  78  ASP78      -0.2456
     35  OD2       24.1360   11.6050   48.6130 O.co2  78  ASP78      -0.2456
     36  N         23.3910    7.8570   54.1830 N.3    81  ILE81      -0.1231
     37  CA        23.9210    7.6680   55.5200 C.3    81  ILE81       0.1692
     38  C         24.4290    9.0020   56.1200 C.2    81  ILE81       0.2593
     39  O         24.3300    9.2350   57.3170 O.2    81  ILE81      -0.2718
     40  CB        25.0720    6.6220   55.4710 C.3    81  ILE81       0.0266
     41  CG1       25.5810    6.2670   56.8660 C.3    81  ILE81       0.0019
     42  CG2       26.2200    7.1610   54.6130 C.3    81  ILE81       0.0020
     43  CD1       24.6620    5.3850   57.6520 C.3    81  ILE81       0.0001
     44  N         24.9670    9.8730   55.2840 N.am   82  GLY82      -0.1942
     45  CA        25.5640   11.1250   55.7510 C.3    82  GLY82       0.2014
     46  C         27.0370   10.9520   56.0770 C.2    82  GLY82       0.2638
     47  O         27.5800    9.8550   56.0370 O.2    82  GLY82      -0.2714
     48  N         27.6990   12.0390   56.4230 N.am   83  MET83      -0.1976
     49  CA        29.1110   11.9390   56.8100 C.3    83  MET83       0.1605
     50  C         29.3400   12.6580   58.1560 C.2    83  MET83       0.2287
     51  O         28.8540   13.7750   58.3910 O.2    83  MET83      -0.2864
     52  CB        30.0410   12.5110   55.7020 C.3    83  MET83       0.0413
     53  CG        30.4830   11.5680   54.5640 C.3    83  MET83       0.0598
     54  SD        31.3840   12.5640   53.2640 S.3    83  MET83      -0.1393
     55  CE        30.0090   13.3750   52.4530 C.3    83  MET83       0.0692
     56  N         37.4440   10.8230   54.2730 N.3    91  ASN91      -0.1225
     57  CA        36.8620   10.2630   53.0530 C.3    91  ASN91       0.1785
     58  C         37.0730   11.2090   51.8940 C.2    91  ASN91       0.2597
     59  O         37.2840   10.7630   50.7590 O.2    91  ASN91      -0.2718
     60  CB        35.3510    9.9610   53.1850 C.3    91  ASN91       0.1169
     61  CG        35.0530    8.6750   53.9830 C.2    91  ASN91       0.2627
     62  OD1       33.9000    8.2370   54.0360 O.2    91  ASN91      -0.2716
     63  ND2       36.0710    8.0820   54.6080 N.am   91  ASN91      -0.0877
     64  N         36.9860   12.5210   52.1600 N.am   92  LEU92      -0.1980
     65  CA        37.1980   13.4690   51.0590 C.3    92  LEU92       0.1596
     66  C         38.6190   14.0080   50.9870 C.2    92  LEU92       0.2287
     67  O         39.0060   14.5370   49.9520 O.2    92  LEU92      -0.2864
     68  CB        36.1910   14.6130   51.1140 C.3    92  LEU92       0.0297
     69  CG        34.7380   14.1470   51.1140 C.3    92  LEU92       0.0022
     70  CD1       33.8350   15.3020   51.3340 C.3    92  LEU92       0.0001
     71  CD2       34.4200   13.4100   49.8070 C.3    92  LEU92       0.0001
     72  N         34.2850   11.2190   43.2610 N.3   123  PHE123     -0.1241
     73  CA        33.8610   12.5170   43.7950 C.3   123  PHE123      0.1605
     74  C         34.6830   13.6220   43.1430 C.2   123  PHE123      0.2264
     75  O         34.1630   14.6640   42.8000 O.2   123  PHE123     -0.2867
     76  CB        34.0200   12.5600   45.3380 C.3   123  PHE123      0.0534
     77  CG        33.9030   13.9460   45.9260 C.ar  123  PHE123     -0.0203
     78  CD1       32.6540   14.4910   46.2120 C.ar  123  PHE123     -0.0042
     79  CD2       35.0490   14.7140   46.1700 C.ar  123  PHE123     -0.0042
     80  CE1       32.5380   15.7820   46.7330 C.ar  123  PHE123     -0.0003
     81  CE2       34.9440   15.9830   46.6840 C.ar  123  PHE123     -0.0003
     82  CZ        33.6860   16.5230   46.9670 C.ar  123  PHE123     -0.0000
     83  N         23.3900   14.3440   52.2920 N.3   169  THR169     -0.1218
     84  CA        24.4800   15.1190   51.7080 C.3   169  THR169      0.1862
     85  C         23.9980   15.9160   50.5090 C.2   169  THR169      0.2287
     86  O         23.3020   15.3920   49.6210 O.2   169  THR169     -0.2866
     87  CB        25.6210   14.1950   51.2270 C.3   169  THR169      0.1770
     88  OG1       26.0310   13.3010   52.2860 O.3   169  THR169     -0.2211
     89  CG2       26.8140   15.0190   50.7190 C.3   169  THR169      0.0375
     90  N         25.9290   17.8760   47.5470 N.3   171  VAL171     -0.1245
     91  CA        27.1500   18.2800   46.8610 C.3   171  VAL171      0.1561
     92  C         26.8420   19.4690   45.9180 C.2   171  VAL171      0.2260
     93  O         26.2270   19.2760   44.8640 O.2   171  VAL171     -0.2867
     94  CB        27.7290   17.1300   46.0520 C.3   171  VAL171      0.0252
     95  CG1       29.0400   17.5540   45.3480 C.3   171  VAL171      0.0019
     96  CG2       27.9390   15.9380   46.9500 C.3   171  VAL171      0.0019
@<TRIPOS>BOND
     1     1     2    1
     2     7     6    1
     3     5     6    1
     4     5     2    1
     5     6     8    1
     6     2     3    1
     7     3     4    2
     8    75    74    2
     9    74    73    1
    10    72    73    1
    11    73    76    1
    12     9    10    1
    13    15    14    2
    14    93    92    2
    15    14    16   am
    16    14    13    1
    17    10    13    1
    18    10    11    1
    19    76    77    1
    20    95    94    1
    21    22    21    1
    22    21    18    1
    23    17    11   am
    24    17    18    1
    25    92    91    1
    26    77    79   ar
    27    77    78   ar
    28    94    91    1
    29    94    96    1
    30    79    81   ar
    31    11    12    2
    32    78    80   ar
    33    18    19    1
    34    19    20    2
    35    81    82   ar
    36    80    82   ar
    37    91    90    1
    38    32    29    1
    39    32    33    1
    40    28    29    1
    41    35    33   ar
    42    29    30    1
    43    33    34   ar
    44    23    24    1
    45    86    85    2
    46    71    69    1
    47    67    66    2
    48    30    31    2
    49    85    84    1
    50    27    24    1
    51    24    25    1
    52    89    87    1
    53    59    58    2
    54    66    65    1
    55    25    26    2
    56    65    68    1
    57    65    64    1
    58    69    68    1
    59    69    70    1
    60    87    84    1
    61    87    88    1
    62    84    83    1
    63    58    64   am
    64    58    57    1
    65    55    54    1
    66    57    60    1
    67    57    56    1
    68    60    61    1
    69    54    53    1
    70    61    62    2
    71    61    63   am
    72    36    37    1
    73    53    52    1
    74    42    40    1
    75    44    45    1
    76    44    38   am
    77    40    37    1
    78    40    41    1
    79    37    38    1
    80    52    49    1
    81    45    46    1
    82    47    46    2
    83    46    48   am
    84    38    39    2
    85    48    49    1
    86    49    50    1
    87    41    43    1
    88    50    51    2
