@<TRIPOS>MOLECULE
tmp/3hz1A01.pdb
 121 114 0 0 0
SMALL
GASTEIGER

@<TRIPOS>ATOM
      1  N         16.2870   19.0980   26.1250 N.3     7  PHE7       -0.1241
      2  CA        16.0370   17.7760   25.5510 C.3     7  PHE7        0.1605
      3  C         17.4160   17.0700   25.5550 C.2     7  PHE7        0.2264
      4  O         18.4670   17.7200   25.3960 O.2     7  PHE7       -0.2867
      5  CB        15.5750   17.9110   24.1020 C.3     7  PHE7        0.0534
      6  CG        14.1210   18.2320   23.9400 C.ar    7  PHE7       -0.0203
      7  CD1       13.1460   17.3320   24.3730 C.ar    7  PHE7       -0.0042
      8  CD2       13.7280   19.4200   23.3240 C.ar    7  PHE7       -0.0042
      9  CE1       11.8230   17.6290   24.2180 C.ar    7  PHE7       -0.0003
     10  CE2       12.4030   19.7220   23.1910 C.ar    7  PHE7       -0.0003
     11  CZ        11.4370   18.8190   23.5960 C.ar    7  PHE7       -0.0000
     12  N         -1.8110    8.1380   19.2100 N.3    36  ASN36      -0.1240
     13  CA        -1.3510    8.3720   20.5840 C.3    36  ASN36       0.1653
     14  C         -2.5140    8.4770   21.5970 C.2    36  ASN36       0.2266
     15  O         -2.4870    7.8650   22.6720 O.2    36  ASN36      -0.2867
     16  CB        -0.4630    9.6260   20.6710 C.3    36  ASN36       0.1155
     17  CG         0.9800    9.3790   20.1620 C.2    36  ASN36       0.2627
     18  OD1        1.3750    8.2280   19.8880 O.2    36  ASN36      -0.2716
     19  ND2        1.7540   10.4790   19.9940 N.am   36  ASN36      -0.0877
     20  N         -0.5880   12.2240   31.5530 N.3    83  MET83      -0.1245
     21  CA         0.8250   12.0310   31.8040 C.3    83  MET83       0.1570
     22  C          1.2230   12.6620   33.1320 C.2    83  MET83       0.2261
     23  O          0.7730   13.7580   33.4480 O.2    83  MET83      -0.2867
     24  CB         1.6720   12.6510   30.6700 C.3    83  MET83       0.0387
     25  CG         1.7420   11.7580   29.4730 C.3    83  MET83       0.0595
     26  SD         2.3680   12.5820   27.9890 S.3    83  MET83      -0.1393
     27  CE         1.1240   13.8910   27.7810 C.3    83  MET83       0.0692
     28  N          6.6920   13.4900   31.8170 N.3    88  LEU88      -0.1245
     29  CA         7.0780   14.6960   31.0090 C.3    88  LEU88       0.1561
     30  C          8.5960   14.9520   30.9940 C.2    88  LEU88       0.2260
     31  O          9.1860   15.2390   29.9510 O.2    88  LEU88      -0.2867
     32  CB         6.3320   15.9690   31.4840 C.3    88  LEU88       0.0270
     33  CG         4.8170   15.9270   31.3110 C.3    88  LEU88       0.0019
     34  CD1        4.0570   17.1850   31.8990 C.3    88  LEU88       0.0001
     35  CD2        4.4240   15.6880   29.8630 C.3    88  LEU88       0.0001
     36  N          9.4440    9.6650   29.3480 N.3    92  LEU92      -0.1231
     37  CA         9.1550    9.6790   27.8820 C.3    92  LEU92       0.1693
     38  C         10.2340    9.7460   26.7830 C.2    92  LEU92       0.2592
     39  O         10.2330    8.9060   25.9180 O.2    92  LEU92      -0.2718
     40  CB         7.9260   10.5440   27.5160 C.3    92  LEU92       0.0284
     41  CG         6.6230   10.1740   28.2230 C.3    92  LEU92       0.0019
     42  CD1        5.6100   11.3230   28.1450 C.3    92  LEU92       0.0001
     43  CD2        6.0480    8.9260   27.6470 C.3    92  LEU92       0.0001
     44  N         11.2090   10.6320   26.7780 N.am   93  GLY93      -0.1957
     45  CA        12.2050   10.8620   27.7980 C.3    93  GLY93       0.1869
     46  C         13.2270    9.7510   27.4910 C.2    93  GLY93       0.2309
     47  O         13.8770    9.7020   26.4320 O.2    93  GLY93      -0.2863
     48  N         11.9270    7.5820   24.4570 N.3    96  ALA96      -0.1245
     49  CA        12.1870    8.2470   23.1620 C.3    96  ALA96       0.1562
     50  C         13.6460    8.1780   22.6160 C.2    96  ALA96       0.2260
     51  O         13.8840    8.3590   21.3890 O.2    96  ALA96      -0.2867
     52  CB        11.7130    9.6900   23.2120 C.3    96  ALA96       0.0290
     53  N          7.7880    4.5860   18.1340 N.3   120  GLY120     -0.1210
     54  CA         7.2640    5.0800   19.4110 C.3   120  GLY120      0.1956
     55  C          7.4880    6.5860   19.6360 C.2   120  GLY120      0.2611
     56  O          7.4550    7.0840   20.7840 O.2   120  GLY120     -0.2717
     57  N          7.7720    7.3100   18.5610 N.am  121  VAL121     -0.1979
     58  CA         8.0770    8.7290   18.6710 C.3   121  VAL121      0.1595
     59  C          7.1930    9.6000   17.7570 C.2   121  VAL121      0.2287
     60  O          7.5550   10.7020   17.4180 O.2   121  VAL121     -0.2864
     61  CB         9.6280    9.0020   18.5700 C.3   121  VAL121      0.0276
     62  CG1       10.3660    8.2780   19.7160 C.3   121  VAL121      0.0022
     63  CG2       10.2450    8.5620   17.2280 C.3   121  VAL121      0.0022
     64  N          4.6290   11.3230   18.3610 N.3   123  PHE123     -0.1227
     65  CA         4.3110   12.6540   18.9260 C.3   123  PHE123      0.1736
     66  C          5.1550   13.7500   18.2660 C.2   123  PHE123      0.2595
     67  O          4.6210   14.8020   17.9480 O.2   123  PHE123     -0.2718
     68  CB         4.5270   12.6900   20.4470 C.3   123  PHE123      0.0547
     69  CG         4.5690   14.0820   21.0320 C.ar  123  PHE123     -0.0202
     70  CD1        3.4230   14.8140   21.1950 C.ar  123  PHE123     -0.0042
     71  CD2        5.7780   14.6550   21.4270 C.ar  123  PHE123     -0.0042
     72  CE1        3.4390   16.1500   21.7350 C.ar  123  PHE123     -0.0003
     73  CE2        5.8180   15.9820   21.9950 C.ar  123  PHE123     -0.0003
     74  CZ         4.6420   16.7240   22.1350 C.ar  123  PHE123     -0.0000
     75  N          6.4600   13.5140   18.0560 N.am  124  TYR124     -0.1976
     76  CA         7.3110   14.5430   17.4340 C.3   124  TYR124      0.1639
     77  C          6.9090   14.9110   15.9980 C.2   124  TYR124      0.2290
     78  O          7.3580   15.9310   15.4740 O.2   124  TYR124     -0.2864
     79  CB         8.8030   14.1740   17.5620 C.3   124  TYR124      0.0560
     80  CG         9.2180   14.1450   19.0250 C.ar  124  TYR124     -0.0198
     81  CD1        9.2660   15.3100   19.7630 C.ar  124  TYR124     -0.0009
     82  CD2        9.5040   12.9580   19.6790 C.ar  124  TYR124     -0.0009
     83  CE1        9.5900   15.3100   21.1410 C.ar  124  TYR124      0.0417
     84  CE2        9.8820   12.9480   21.0720 C.ar  124  TYR124      0.0417
     85  CZ         9.8870   14.1320   21.7860 C.ar  124  TYR124      0.1957
     86  OH        10.2400   14.1770   23.1430 O.3   124  TYR124     -0.2866
     87  N          1.2370   21.0940   25.5380 N.3   135  VAL135     -0.1245
     88  CA         0.5330   19.8750   25.9100 C.3   135  VAL135      0.1561
     89  C          0.0540   20.0720   27.3090 C.2   135  VAL135      0.2260
     90  O          0.9030   20.3130   28.2270 O.2   135  VAL135     -0.2867
     91  CB         1.4860   18.6750   25.9410 C.3   135  VAL135      0.0252
     92  CG1        0.7420   17.4470   26.3610 C.3   135  VAL135      0.0019
     93  CG2        2.1370   18.4860   24.5850 C.3   135  VAL135      0.0019
     94  N          3.1340   21.4220   29.4600 N.3   147  TRP147     -0.1241
     95  CA         4.4380   21.2350   28.8380 C.3   147  TRP147      0.1605
     96  C          4.3880   22.0880   27.5990 C.2   147  TRP147      0.2264
     97  O          3.3110   22.2820   27.0180 O.2   147  TRP147     -0.2867
     98  CB         4.4990   19.7690   28.4130 C.3   147  TRP147      0.0550
     99  CG         5.7420   19.2760   27.7000 C.ar  147  TRP147      0.0003
    100  CD1        6.8210   18.6410   28.2760 C.ar  147  TRP147      0.0946
    101  CD2        6.0050   19.3170   26.2810 C.ar  147  TRP147      0.0152
    102  NE1        7.7400   18.2880   27.2870 N.ar  147  TRP147     -0.2442
    103  CE2        7.2560   18.7050   26.0640 C.ar  147  TRP147      0.0810
    104  CE3        5.3070   19.8330   25.1830 C.ar  147  TRP147      0.0012
    105  CZ2        7.8220   18.5970   24.8090 C.ar  147  TRP147      0.0191
    106  CZ3        5.8700   19.7060   23.9290 C.ar  147  TRP147      0.0001
    107  CH2        7.1060   19.0840   23.7560 C.ar  147  TRP147      0.0015
    108  N         -5.4470   14.5480   28.0800 N.3   169  THR169     -0.1218
    109  CA        -4.3660   15.2210   27.4050 C.3   169  THR169      0.1862
    110  C         -4.9170   16.0770   26.2860 C.2   169  THR169      0.2287
    111  O         -5.7640   15.6230   25.4910 O.2   169  THR169     -0.2866
    112  CB        -3.3390   14.2560   26.8030 C.3   169  THR169      0.1770
    113  OG1       -2.7640   13.4850   27.8470 O.3   169  THR169     -0.2211
    114  CG2       -2.2300   14.9970   26.1400 C.3   169  THR169      0.0375
    115  N         -3.2460   18.2310   23.1800 N.3   171  VAL171     -0.1245
    116  CA        -2.0900   18.6110   22.3970 C.3   171  VAL171      0.1561
    117  C         -2.4940   19.7960   21.5560 C.2   171  VAL171      0.2260
    118  O         -3.2990   19.6560   20.6290 O.2   171  VAL171     -0.2867
    119  CB        -1.5930   17.5200   21.4640 C.3   171  VAL171      0.0252
    120  CG1       -0.3640   18.0290   20.6950 C.3   171  VAL171      0.0019
    121  CG2       -1.2020   16.2250   22.2540 C.3   171  VAL171      0.0019
@<TRIPOS>BOND
     1    78    77    2
     2    77    76    1
     3    63    61    1
     4    60    59    2
     5    76    79    1
     6    76    75    1
     7    79    80    1
     8    59    58    1
     9    67    66    2
    10    75    66   am
    11    53    54    1
    12    66    65    1
    13    64    65    1
    14    57    58    1
    15    57    55   am
    16    61    58    1
    17    61    62    1
    18    65    68    1
    19    80    82   ar
    20    80    81   ar
    21    12    13    1
    22    54    55    1
    23    55    56    2
    24    82    84   ar
    25    81    83   ar
    26    18    17    2
    27    19    17   am
    28    17    16    1
    29    68    69    1
    30    13    16    1
    31    13    14    1
    32   118   117    2
    33   120   119    1
    34    69    70   ar
    35    69    71   ar
    36    84    85   ar
    37    83    85   ar
    38    70    72   ar
    39    51    50    2
    40    71    73   ar
    41   119   121    1
    42   119   116    1
    43   117   116    1
    44    14    15    2
    45    72    74   ar
    46    85    86    1
    47    73    74   ar
    48   116   115    1
    49    50    49    1
    50    49    52    1
    51    49    48    1
    52    10     8   ar
    53    10    11   ar
    54     8     6   ar
    55    11     9   ar
    56   107   106   ar
    57   107   105   ar
    58   106   104   ar
    59     6     5    1
    60     6     7   ar
    61     5     2    1
    62     9     7   ar
    63    93    91    1
    64   105   103   ar
    65   104   101   ar
    66     4     3    2
    67   111   110    2
    68    87    88    1
    69     2     3    1
    70     2     1    1
    71    88    91    1
    72    88    89    1
    73    39    38    2
    74    91    92    1
    75   103   101   ar
    76   103   102   ar
    77   114   112    1
    78   101    99   ar
    79   110   109    1
    80    47    46    2
    81    44    38   am
    82    44    45    1
    83    38    37    1
    84   112   109    1
    85   112   113    1
    86    97    96    2
    87   102   100   ar
    88    89    90    2
    89   109   108    1
    90    46    45    1
    91    40    37    1
    92    40    41    1
    93    96    95    1
    94    43    41    1
    95    99   100   ar
    96    99    98    1
    97    27    26    1
    98    37    36    1
    99    26    25    1
   100    42    41    1
   101    98    95    1
   102    95    94    1
   103    25    24    1
   104    35    33    1
   105    31    30    2
   106    24    21    1
   107    30    29    1
   108    29    32    1
   109    29    28    1
   110    33    32    1
   111    33    34    1
   112    20    21    1
   113    21    22    1
   114    22    23    2
