@<TRIPOS>MOLECULE
tmp/3hz5A00.pdb
 180 170 0 0 0
SMALL
GASTEIGER

@<TRIPOS>ATOM
      1  N         16.3840   18.8520   26.0490 N.3     7  PHE7       -0.1241
      2  CA        16.1510   17.5280   25.4900 C.3     7  PHE7        0.1605
      3  C         17.5050   16.8210   25.4590 C.2     7  PHE7        0.2264
      4  O         18.5370   17.4640   25.3090 O.2     7  PHE7       -0.2867
      5  CB        15.6380   17.6130   24.0420 C.3     7  PHE7        0.0534
      6  CG        14.1880   18.0280   23.9130 C.ar    7  PHE7       -0.0203
      7  CD1       13.1640   17.1410   24.2170 C.ar    7  PHE7       -0.0042
      8  CD2       13.8600   19.2870   23.4310 C.ar    7  PHE7       -0.0042
      9  CE1       11.8440   17.5120   24.0640 C.ar    7  PHE7       -0.0003
     10  CE2       12.5330   19.6650   23.2720 C.ar    7  PHE7       -0.0003
     11  CZ        11.5270   18.7920   23.6030 C.ar    7  PHE7       -0.0000
     12  N         17.0300   13.3340   20.8480 N.3    11  ILE11      -0.1245
     13  CA        15.6810   13.8520   20.6310 C.3    11  ILE11       0.1561
     14  C         15.7490   15.2380   19.9970 C.2    11  ILE11       0.2260
     15  O         14.9840   15.5510   19.0900 O.2    11  ILE11      -0.2867
     16  CB        14.8710   13.8790   21.9510 C.3    11  ILE11       0.0252
     17  CG1       14.6830   12.4420   22.4600 C.3    11  ILE11       0.0019
     18  CG2       13.5140   14.5530   21.7310 C.3    11  ILE11       0.0019
     19  CD1       14.1650   12.3240   23.8800 C.3    11  ILE11       0.0001
     20  N         -1.0260   11.4310   16.2530 N.3    33  LEU33      -0.1245
     21  CA        -1.5760   12.0060   17.4720 C.3    33  LEU33       0.1561
     22  C         -2.8850   11.3100   17.8540 C.2    33  LEU33       0.2260
     23  O         -3.1450   11.0510   19.0320 O.2    33  LEU33      -0.2867
     24  CB        -1.7890   13.5100   17.2820 C.3    33  LEU33       0.0270
     25  CG        -0.4800   14.2920   17.0290 C.3    33  LEU33       0.0019
     26  CD1       -0.7700   15.7800   16.8450 C.3    33  LEU33       0.0001
     27  CD2        0.4990   14.0860   18.1720 C.3    33  LEU33       0.0001
     28  N         -2.0220    8.0730   19.3050 N.3    36  ASN36      -0.1225
     29  CA        -1.5370    8.2600   20.6710 C.3    36  ASN36       0.1785
     30  C         -2.7050    8.4120   21.6410 C.2    36  ASN36       0.2597
     31  O         -2.6760    7.8820   22.7510 O.2    36  ASN36      -0.2718
     32  CB        -0.5860    9.4890   20.8050 C.3    36  ASN36       0.1169
     33  CG         0.8240    9.2040   20.2390 C.2    36  ASN36       0.2627
     34  OD1        1.1540    8.0470   19.9390 O.2    36  ASN36      -0.2716
     35  ND2        1.6530   10.2480   20.1100 N.am   36  ASN36      -0.0877
     36  N         -3.7070    9.1910   21.2420 N.am   37  SER37      -0.1952
     37  CA        -4.8620    9.3680   22.0880 C.3    37  SER37       0.1924
     38  C         -5.5470    8.0130   22.3170 C.2    37  SER37       0.2314
     39  O         -5.9190    7.6700   23.4390 O.2    37  SER37      -0.2863
     40  CB        -5.8280   10.3380   21.4190 C.3    37  SER37       0.2116
     41  OG        -5.2480   11.6450   21.4210 O.3    37  SER37      -0.2180
     42  N         -3.7810    5.8840   24.8750 N.3    40  ALA40      -0.1245
     43  CA        -3.9890    6.4340   26.2070 C.3    40  ALA40       0.1562
     44  C         -5.3960    6.1130   26.7340 C.2    40  ALA40       0.2260
     45  O         -5.5830    5.8600   27.9140 O.2    40  ALA40      -0.2867
     46  CB        -3.7570    7.9430   26.1810 C.3    40  ALA40       0.0290
     47  N         -8.0320   14.3010   24.3420 N.3    78  ASP78      -0.1239
     48  CA        -8.5120   12.9580   24.7220 C.3    78  ASP78       0.1674
     49  C         -8.7920   12.8940   26.2150 C.2    78  ASP78       0.2266
     50  O         -8.2730   13.7260   26.9840 O.2    78  ASP78      -0.2867
     51  CB        -7.5580   11.8330   24.2590 C.3    78  ASP78       0.1410
     52  CG        -6.2480   11.8060   25.0220 C.2    78  ASP78       0.3668
     53  OD1       -6.2680   11.5130   26.2450 O.co2  78  ASP78      -0.2456
     54  OD2       -5.2000   12.0620   24.3980 O.co2  78  ASP78      -0.2456
     55  N         -5.5000    8.2220   29.8470 N.3    81  ILE81      -0.1231
     56  CA        -4.8460    8.0750   31.1460 C.3    81  ILE81       0.1692
     57  C         -4.0750    9.3400   31.6090 C.2    81  ILE81       0.2593
     58  O         -3.8250    9.5500   32.8200 O.2    81  ILE81      -0.2718
     59  CB        -3.9160    6.8400   31.1150 C.3    81  ILE81       0.0266
     60  CG1       -3.4470    6.4860   32.5340 C.3    81  ILE81       0.0019
     61  CG2       -2.7620    7.0580   30.0940 C.3    81  ILE81       0.0020
     62  CD1       -3.5560    4.9990   32.8480 C.3    81  ILE81       0.0001
     63  N         -3.6890   10.1790   30.6560 N.am   82  GLY82      -0.1942
     64  CA        -2.9160   11.3840   30.9960 C.3    82  GLY82       0.2014
     65  C         -1.4560   11.0590   31.2960 C.2    82  GLY82       0.2638
     66  O         -1.0490    9.8880   31.3070 O.2    82  GLY82      -0.2714
     67  N         -0.6620   12.0960   31.5650 N.am   83  MET83      -0.1976
     68  CA         0.7760   11.9070   31.8400 C.3    83  MET83       0.1605
     69  C          1.1470   12.5600   33.1500 C.2    83  MET83       0.2287
     70  O          0.6690   13.6410   33.4510 O.2    83  MET83      -0.2864
     71  CB         1.6120   12.5310   30.7120 C.3    83  MET83       0.0413
     72  CG         1.6150   11.7030   29.4210 C.3    83  MET83       0.0598
     73  SD         2.2830   12.5480   27.9740 S.3    83  MET83      -0.1393
     74  CE         0.8420   13.5340   27.4960 C.3    83  MET83       0.0692
     75  N          6.6400   13.4600   31.8530 N.3    88  LEU88      -0.1245
     76  CA         7.0060   14.6490   31.0590 C.3    88  LEU88       0.1561
     77  C          8.5020   14.9640   31.1190 C.2    88  LEU88       0.2260
     78  O          9.1160   15.3140   30.1210 O.2    88  LEU88      -0.2867
     79  CB         6.1980   15.8740   31.5270 C.3    88  LEU88       0.0270
     80  CG         4.6930   15.7350   31.3020 C.3    88  LEU88       0.0019
     81  CD1        3.9250   16.9270   31.9000 C.3    88  LEU88       0.0001
     82  CD2        4.3930   15.5980   29.8030 C.3    88  LEU88       0.0001
     83  N          9.3970    9.4930   29.5550 N.3    92  LEU92      -0.1231
     84  CA         9.1090    9.5400   28.1160 C.3    92  LEU92       0.1693
     85  C         10.3600    9.7990   27.2850 C.2    92  LEU92       0.2592
     86  O         10.5770    9.1670   26.2550 O.2    92  LEU92      -0.2718
     87  CB         8.0590   10.6140   27.8210 C.3    92  LEU92       0.0284
     88  CG         6.6650   10.3780   28.4090 C.3    92  LEU92       0.0019
     89  CD1        5.7700   11.5840   28.1660 C.3    92  LEU92       0.0001
     90  CD2        6.0430    9.1180   27.8310 C.3    92  LEU92       0.0001
     91  N         11.2010   10.6640   27.6900 N.am   93  GLY93      -0.1957
     92  CA        12.4730   10.9100   26.9770 C.3    93  GLY93       0.1869
     93  C         13.4000    9.7060   27.0240 C.2    93  GLY93       0.2309
     94  O         14.1140    9.4150   26.0560 O.2    93  GLY93      -0.2863
     95  N         12.4630    6.4510   27.2160 N.3    95  ILE95      -0.1231
     96  CA        11.9800    5.5190   26.2000 C.3    95  ILE95       0.1692
     97  C         12.2970    6.0340   24.7920 C.2    95  ILE95       0.2591
     98  O         12.8620    5.2990   23.9700 O.2    95  ILE95      -0.2718
     99  CB        10.4690    5.2110   26.3620 C.3    95  ILE95       0.0266
    100  CG1       10.1430    4.9600   27.8320 C.3    95  ILE95       0.0019
    101  CG2       10.0650    3.9910   25.5360 C.3    95  ILE95       0.0020
    102  CD1       10.9860    3.8740   28.4710 C.3    95  ILE95       0.0001
    103  N         11.9860    7.2990   24.5240 N.am   96  ALA96      -0.1980
    104  CA        12.2100    7.8930   23.2040 C.3    96  ALA96       0.1597
    105  C         13.6500    7.7860   22.6790 C.2    96  ALA96       0.2287
    106  O         13.8720    7.7680   21.4700 O.2    96  ALA96      -0.2864
    107  CB        11.7800    9.3370   23.1900 C.3    96  ALA96       0.0319
    108  N          7.8740    4.5020   17.9760 N.3   120  GLY120     -0.1210
    109  CA         7.3600    5.0630   19.2200 C.3   120  GLY120      0.1956
    110  C          7.6520    6.5380   19.4630 C.2   120  GLY120      0.2612
    111  O          7.5690    7.0210   20.5910 O.2   120  GLY120     -0.2717
    112  N          7.9840    7.2680   18.4110 N.am  121  VAL121     -0.1965
    113  CA         8.1740    8.7180   18.5430 C.3   121  VAL121      0.1727
    114  C          7.2680    9.5330   17.6030 C.2   121  VAL121      0.2617
    115  O          7.5790   10.6680   17.2550 O.2   121  VAL121     -0.2715
    116  CB         9.6510    9.0900   18.3390 C.3   121  VAL121      0.0290
    117  CG1       10.4690    8.5680   19.5060 C.3   121  VAL121      0.0023
    118  CG2       10.1810    8.5350   17.0210 C.3   121  VAL121      0.0023
    119  N          6.1550    8.9340   17.1910 N.am  122  GLY122     -0.1940
    120  CA         5.2210    9.6150   16.2970 C.3   122  GLY122      0.2014
    121  C          4.7500   10.9850   16.7630 C.2   122  GLY122      0.2639
    122  O          4.4160   11.8080   15.9480 O.2   122  GLY122     -0.2714
    123  N          4.7210   11.2350   18.0660 N.am  123  PHE123     -0.1959
    124  CA         4.3320   12.5650   18.5950 C.3   123  PHE123      0.1771
    125  C          5.1410   13.6690   17.9150 C.2   123  PHE123      0.2619
    126  O          4.6180   14.7250   17.5960 O.2   123  PHE123     -0.2715
    127  CB         4.5520   12.6140   20.1100 C.3   123  PHE123      0.0574
    128  CG         4.4860   14.0040   20.7150 C.ar  123  PHE123     -0.0200
    129  CD1        3.2590   14.5860   21.0130 C.ar  123  PHE123     -0.0042
    130  CD2        5.6510   14.7070   21.0310 C.ar  123  PHE123     -0.0042
    131  CE1        3.1840   15.8490   21.5850 C.ar  123  PHE123     -0.0003
    132  CE2        5.5930   15.9730   21.6190 C.ar  123  PHE123     -0.0003
    133  CZ         4.3470   16.5400   21.9060 C.ar  123  PHE123     -0.0000
    134  N          6.4210   13.4120   17.6800 N.am  124  TYR124     -0.1974
    135  CA         7.3090   14.4470   17.1700 C.3   124  TYR124      0.1639
    136  C          6.9860   14.8310   15.7370 C.2   124  TYR124      0.2290
    137  O          7.3800   15.8880   15.2630 O.2   124  TYR124     -0.2864
    138  CB         8.7720   14.0260   17.3800 C.3   124  TYR124      0.0560
    139  CG         9.1290   14.2120   18.8320 C.ar  124  TYR124     -0.0198
    140  CD1        9.2730   15.4940   19.3620 C.ar  124  TYR124     -0.0009
    141  CD2        9.2430   13.1360   19.6850 C.ar  124  TYR124     -0.0009
    142  CE1        9.5540   15.6840   20.7050 C.ar  124  TYR124      0.0417
    143  CE2        9.5310   13.3150   21.0360 C.ar  124  TYR124      0.0417
    144  CZ         9.6880   14.5860   21.5320 C.ar  124  TYR124      0.1957
    145  OH         9.9770   14.7600   22.8660 O.3   124  TYR124     -0.2866
    146  N          1.3200   20.8300   25.4720 N.3   135  VAL135     -0.1245
    147  CA         0.6110   19.6290   25.9140 C.3   135  VAL135      0.1561
    148  C          0.0900   19.8650   27.3130 C.2   135  VAL135      0.2260
    149  O          0.8700   20.1110   28.2490 O.2   135  VAL135     -0.2867
    150  CB         1.5220   18.3760   25.8830 C.3   135  VAL135      0.0252
    151  CG1        0.7900   17.1630   26.4480 C.3   135  VAL135      0.0019
    152  CG2        1.9680   18.0970   24.4640 C.3   135  VAL135      0.0019
    153  N          3.1940   21.2120   29.3510 N.3   147  TRP147     -0.1241
    154  CA         4.5110   20.9910   28.7530 C.3   147  TRP147      0.1605
    155  C          4.5070   21.8160   27.4960 C.2   147  TRP147      0.2264
    156  O          3.4640   21.9480   26.8530 O.2   147  TRP147     -0.2867
    157  CB         4.6280   19.4960   28.4000 C.3   147  TRP147      0.0550
    158  CG         5.8600   19.0350   27.6260 C.ar  147  TRP147      0.0003
    159  CD1        6.9500   18.3890   28.1360 C.ar  147  TRP147      0.0946
    160  CD2        6.0670   19.1100   26.2030 C.ar  147  TRP147      0.0152
    161  NE1        7.8330   18.0800   27.1230 N.ar  147  TRP147     -0.2442
    162  CE2        7.3050   18.4990   25.9280 C.ar  147  TRP147      0.0810
    163  CE3        5.3140   19.6270   25.1360 C.ar  147  TRP147      0.0012
    164  CZ2        7.8180   18.3950   24.6330 C.ar  147  TRP147      0.0191
    165  CZ3        5.8320   19.5390   23.8390 C.ar  147  TRP147      0.0001
    166  CH2        7.0790   18.9280   23.6070 C.ar  147  TRP147      0.0015
    167  N         -5.5220   14.4930   28.1250 N.3   169  THR169     -0.1218
    168  CA        -4.4580   15.2480   27.4710 C.3   169  THR169      0.1862
    169  C         -4.9860   16.0770   26.3450 C.2   169  THR169      0.2287
    170  O         -5.8400   15.6190   25.5520 O.2   169  THR169     -0.2866
    171  CB        -3.3850   14.2750   26.9100 C.3   169  THR169      0.1770
    172  OG1       -2.8600   13.5300   27.9950 O.3   169  THR169     -0.2211
    173  CG2       -2.2450   15.0190   26.1980 C.3   169  THR169      0.0375
    174  N         -3.2700   18.0810   23.1700 N.3   171  VAL171     -0.1245
    175  CA        -2.1160   18.5040   22.3710 C.3   171  VAL171      0.1561
    176  C         -2.5250   19.6900   21.4970 C.2   171  VAL171      0.2260
    177  O         -3.3590   19.5750   20.5910 O.2   171  VAL171     -0.2867
    178  CB        -1.5630   17.3710   21.4950 C.3   171  VAL171      0.0252
    179  CG1       -0.3060   17.8540   20.7340 C.3   171  VAL171      0.0019
    180  CG2       -1.2520   16.1180   22.3490 C.3   171  VAL171      0.0019
@<TRIPOS>BOND
     1   137   136    2
     2   136   135    1
     3   122   121    2
     4    20    21    1
     5   120   121    1
     6   120   119    1
     7   121   123   am
     8    26    25    1
     9   118   116    1
    10    25    24    1
    11    25    27    1
    12   135   138    1
    13   135   134    1
    14   119   114   am
    15   115   114    2
    16    24    21    1
    17   138   139    1
    18    21    22    1
    19   126   125    2
    20   114   113    1
    21   134   125   am
    22    22    23    2
    23   125   124    1
    24   108   109    1
    25   123   124    1
    26   116   113    1
    27   116   117    1
    28   112   113    1
    29   112   110   am
    30   124   127    1
    31   139   140   ar
    32   139   141   ar
    33    15    14    2
    34   109   110    1
    35    28    29    1
    36   140   142   ar
    37   110   111    2
    38   141   143   ar
    39    34    33    2
    40    14    13    1
    41   127   128    1
    42    35    33   am
    43    33    32    1
    44   177   176    2
    45    13    12    1
    46    13    16    1
    47    29    32    1
    48    29    30    1
    49   142   144   ar
    50   128   129   ar
    51   128   130   ar
    52   179   178    1
    53   129   131   ar
    54   130   132   ar
    55   143   144   ar
    56    36    30   am
    57    36    37    1
    58    40    41    1
    59    40    37    1
    60   106   105    2
    61   178   180    1
    62   178   175    1
    63   176   175    1
    64   144   145    1
    65   131   133   ar
    66   132   133   ar
    67    30    31    2
    68    18    16    1
    69    16    17    1
    70    37    38    1
    71    38    39    2
    72   175   174    1
    73    17    19    1
    74   105   104    1
    75   107   104    1
    76   104   103    1
    77    10     8   ar
    78    10    11   ar
    79     8     6   ar
    80    11     9   ar
    81   166   165   ar
    82   166   164   ar
    83   165   163   ar
    84     6     5    1
    85     6     7   ar
    86    98    97    2
    87     5     2    1
    88     9     7   ar
    89    51    48    1
    90    51    52    1
    91    47    48    1
    92    54    52   ar
    93   152   150    1
    94   103    97   am
    95   164   162   ar
    96    48    49    1
    97    97    96    1
    98    42    43    1
    99    52    53   ar
   100   163   160   ar
   101     4     3    2
   102     3     2    1
   103   146   147    1
   104     2     1    1
   105   101    99    1
   106   170   169    2
   107   150   147    1
   108   150   151    1
   109   147   148    1
   110   162   160   ar
   111   162   161   ar
   112    94    93    2
   113    46    43    1
   114   173   171    1
   115    96    99    1
   116    96    95    1
   117   160   158   ar
   118    43    44    1
   119    49    50    2
   120    86    85    2
   121   169   168    1
   122    99   100    1
   123    44    45    2
   124   156   155    2
   125   171   168    1
   126   171   172    1
   127    92    93    1
   128    92    91    1
   129   161   159   ar
   130    85    91   am
   131    85    84    1
   132   148   149    2
   133   168   167    1
   134   155   154    1
   135    74    73    1
   136   158   159   ar
   137   158   157    1
   138    87    84    1
   139    87    88    1
   140    90    88    1
   141   100   102    1
   142    73    72    1
   143    84    83    1
   144    89    88    1
   145   157   154    1
   146   154   153    1
   147    72    71    1
   148    82    80    1
   149    55    56    1
   150    61    59    1
   151    78    77    2
   152    63    64    1
   153    63    57   am
   154    71    68    1
   155    64    65    1
   156    76    77    1
   157    76    79    1
   158    76    75    1
   159    59    56    1
   160    59    60    1
   161    56    57    1
   162    65    66    2
   163    65    67   am
   164    80    79    1
   165    80    81    1
   166    67    68    1
   167    57    58    2
   168    68    69    1
   169    60    62    1
   170    69    70    2
