@<TRIPOS>MOLECULE
tmp/3hz6A02.pdb
 103 98 0 0 0
SMALL
GASTEIGER

@<TRIPOS>ATOM
      1  N         31.3740   18.6560   14.0080 N.3    82  GLN82      -0.1245
      2  CA        31.3850   17.4740   14.9090 C.3    82  GLN82       0.1566
      3  C         32.2260   16.3220   14.3620 C.2    82  GLN82       0.2260
      4  O         31.7820   15.1570   14.3700 O.2    82  GLN82      -0.2867
      5  CB        29.9420   17.0640   15.2410 C.3    82  GLN82       0.0367
      6  CG        29.8550   16.2420   16.5530 C.3    82  GLN82       0.0905
      7  CD        28.4360   15.8670   16.8850 C.2    82  GLN82       0.2608
      8  OE1       27.4920   16.5920   16.5470 O.2    82  GLN82      -0.2717
      9  NE2       28.2750   14.7470   17.6050 N.am   82  GLN82      -0.0878
     10  N         30.2570   12.9710   11.9720 N.3   100  TYR100     -0.1241
     11  CA        29.3070   13.1830   13.0540 C.3   100  TYR100      0.1605
     12  C         28.3380   12.0470   13.2550 C.2   100  TYR100      0.2264
     13  O         27.8720   11.8120   14.3830 O.2   100  TYR100     -0.2867
     14  CB        28.5050   14.4880   12.8060 C.3   100  TYR100      0.0534
     15  CG        27.3920   14.3220   11.8020 C.ar  100  TYR100     -0.0201
     16  CD1       26.0530   14.2190   12.2340 C.ar  100  TYR100     -0.0009
     17  CD2       27.6640   14.1940   10.4530 C.ar  100  TYR100     -0.0009
     18  CE1       25.0090   13.9980   11.3240 C.ar  100  TYR100      0.0417
     19  CE2       26.5890   13.9740    9.5090 C.ar  100  TYR100      0.0417
     20  CZ        25.2960   13.8880    9.9690 C.ar  100  TYR100      0.1957
     21  OH        24.2740   13.6970    9.0580 O.3   100  TYR100     -0.2866
     22  N         28.8350   21.7560   18.9640 N.3   179  THR179     -0.1218
     23  CA        28.3720   20.4260   18.6580 C.3   179  THR179      0.1862
     24  C         29.2150   19.3320   19.2840 C.2   179  THR179      0.2287
     25  O         28.7670   18.1930   19.3610 O.2   179  THR179     -0.2866
     26  CB        28.3650   20.1210   17.1320 C.3   179  THR179      0.1770
     27  OG1       29.7140   20.0060   16.6500 O.3   179  THR179     -0.2211
     28  CG2       27.6110   21.2290   16.3950 C.3   179  THR179      0.0375
     29  N         28.7110   24.2920    8.8210 N.3   239  ASP239     -0.1225
     30  CA        27.7110   24.3860    7.7750 C.3   239  ASP239      0.1805
     31  C         26.3090   24.7620    8.2640 C.2   239  ASP239      0.2597
     32  O         25.6190   25.5170    7.5900 O.2   239  ASP239     -0.2718
     33  CB        27.7000   23.1550    6.8570 C.3   239  ASP239      0.1424
     34  CG        27.5110   21.8490    7.5920 C.2   239  ASP239      0.3668
     35  OD1       27.1530   21.8220    8.7910 O.co2 239  ASP239     -0.2456
     36  OD2       27.7200   20.8130    6.8830 O.co2 239  ASP239     -0.2456
     37  N         25.8950   24.2960    9.4410 N.am  240  ALA240     -0.1979
     38  CA        24.5800   24.7410    9.9600 C.3   240  ALA240      0.1597
     39  C         24.4570   26.2320   10.1410 C.2   240  ALA240      0.2287
     40  O         23.4080   26.8330    9.8530 O.2   240  ALA240     -0.2864
     41  CB        24.1770   24.0330   11.2790 C.3   240  ALA240      0.0319
     42  N         16.9240   15.1820    8.7130 N.3   263  GLY263     -0.1210
     43  CA        16.7640   16.6330    8.6950 C.3   263  GLY263      0.1956
     44  C         16.9730   17.2570   10.0490 C.2   263  GLY263      0.2611
     45  O         17.5760   16.6640   10.9360 O.2   263  GLY263     -0.2717
     46  N         16.5830   18.5260   10.1560 N.am  264  TRP264     -0.1976
     47  CA        16.6910   19.1720   11.4370 C.3   264  TRP264      0.1640
     48  C         15.8950   20.4430   11.4140 C.2   264  TRP264      0.2290
     49  O         15.6460   21.0150   10.3570 O.2   264  TRP264     -0.2864
     50  CB        18.1400   19.5180   11.7960 C.3   264  TRP264      0.0576
     51  CG        19.0260   20.1510   10.7140 C.ar  264  TRP264      0.0006
     52  CD1       19.6680   19.5190    9.6810 C.ar  264  TRP264      0.0946
     53  CD2       19.4300   21.5270   10.6440 C.ar  264  TRP264      0.0152
     54  NE1       20.4280   20.4070    8.9590 N.ar  264  TRP264     -0.2442
     55  CE2       20.2970   21.6510    9.5250 C.ar  264  TRP264      0.0810
     56  CE3       19.1290   22.6540   11.4120 C.ar  264  TRP264      0.0012
     57  CZ2       20.8910   22.8650    9.1610 C.ar  264  TRP264      0.0191
     58  CZ3       19.7280   23.8680   11.0610 C.ar  264  TRP264      0.0001
     59  CH2       20.6030   23.9580    9.9530 C.ar  264  TRP264      0.0015
     60  N         20.5320   20.5770   20.4190 N.3   282  PHE282     -0.1241
     61  CA        21.7800   21.3140   20.4090 C.3   282  PHE282      0.1605
     62  C         21.4770   22.7900   20.6140 C.2   282  PHE282      0.2264
     63  O         20.4320   23.2970   20.2020 O.2   282  PHE282     -0.2867
     64  CB        22.5140   21.1540   19.0560 C.3   282  PHE282      0.0534
     65  CG        23.1240   19.7880   18.8540 C.ar  282  PHE282     -0.0203
     66  CD1       24.4700   19.5580   19.0730 C.ar  282  PHE282     -0.0042
     67  CD2       22.3370   18.7440   18.4450 C.ar  282  PHE282     -0.0042
     68  CE1       25.0150   18.3090   18.8640 C.ar  282  PHE282     -0.0003
     69  CE2       22.8750   17.4950   18.2470 C.ar  282  PHE282     -0.0003
     70  CZ        24.2140   17.2670   18.4310 C.ar  282  PHE282     -0.0000
     71  N         23.5480   25.9930   19.5930 N.3   284  LEU284     -0.1245
     72  CA        24.7610   26.3700   18.8730 C.3   284  LEU284      0.1561
     73  C         25.0770   27.8240   19.0700 C.2   284  LEU284      0.2260
     74  O         24.2770   28.7060   18.7240 O.2   284  LEU284     -0.2867
     75  CB        24.6470   26.0640   17.3830 C.3   284  LEU284      0.0270
     76  CG        24.2550   24.6310   17.0420 C.3   284  LEU284      0.0019
     77  CD1       24.3190   24.5030   15.5080 C.3   284  LEU284      0.0001
     78  CD2       25.1390   23.6400   17.7150 C.3   284  LEU284      0.0001
     79  N         18.6830   23.6120   18.0290 N.3   295  VAL295     -0.1245
     80  CA        18.4820   22.7020   16.9020 C.3   295  VAL295      0.1561
     81  C         18.0080   21.3210   17.3730 C.2   295  VAL295      0.2260
     82  O         18.5380   20.7740   18.3520 O.2   295  VAL295     -0.2867
     83  CB        19.7920   22.4880   16.1420 C.3   295  VAL295      0.0252
     84  CG1       19.5870   21.5090   14.9370 C.3   295  VAL295      0.0019
     85  CG2       20.4030   23.8300   15.6600 C.3   295  VAL295      0.0019
     86  N         17.7310   17.6260   15.8640 N.3   297  PRO297     -0.2116
     87  CA        18.0340   16.7490   14.7370 C.3   297  PRO297      0.1372
     88  C         17.0010   15.6700   14.5980 C.2   297  PRO297      0.2244
     89  O         16.6840   15.0690   15.6240 O.2   297  PRO297     -0.2868
     90  CB        19.3450   16.0440   15.1530 C.3   297  PRO297      0.0268
     91  CG        19.4590   16.2340   16.6090 C.3   297  PRO297      0.0207
     92  CD        18.5500   17.3560   17.0700 C.3   297  PRO297      0.0892
     93  N         16.5050   10.5200   17.3740 N.3   349  ARG349     -0.1245
     94  CA        17.1080   11.3620   18.4110 C.3   349  ARG349      0.1563
     95  C         16.1350   12.3960   18.9760 C.2   349  ARG349      0.2260
     96  O         16.1690   12.6880   20.1600 O.2   349  ARG349     -0.2867
     97  CB        18.3110   12.1420   17.8480 C.3   349  ARG349      0.0307
     98  CG        19.3560   11.3150   17.1940 C.3   349  ARG349      0.0489
     99  CD        20.5060   12.2540   16.8540 C.3   349  ARG349      0.2205
    100  NE        21.2960   12.5890   18.0560 N.pl3 349  ARG349     -0.0865
    101  CZ        22.3840   13.3640   18.0190 C.cat 349  ARG349      0.5346
    102  NH1       22.7330   13.9350   16.8770 N.pl3 349  ARG349      0.1354
    103  NH2       23.0940   13.5960   19.1300 N.pl3 349  ARG349      0.1354
@<TRIPOS>BOND
     1    33    34    1
     2    33    30    1
     3    36    34   ar
     4    32    31    2
     5    34    35   ar
     6    30    31    1
     7    30    29    1
     8    31    37   am
     9    43    42    1
    10    43    44    1
    11    54    55   ar
    12    54    52   ar
    13    21    20    1
    14    57    55   ar
    15    57    59   ar
    16    37    38    1
    17    19    20   ar
    18    19    17   ar
    19    55    53   ar
    20    52    51   ar
    21    40    39    2
    22    59    58   ar
    23    38    39    1
    24    38    41    1
    25    20    18   ar
    26    44    46   am
    27    44    45    2
    28    46    47    1
    29    49    48    2
    30    17    15   ar
    31    53    51   ar
    32    53    56   ar
    33    51    50    1
    34    58    56   ar
    35    18    16   ar
    36    48    47    1
    37    47    50    1
    38    15    16   ar
    39    15    14    1
    40    10    11    1
    41    14    11    1
    42    11    12    1
    43    12    13    2
    44     1     2    1
    45     3     4    2
    46     3     2    1
    47    88    87    1
    48    88    89    2
    49    87    90    1
    50    87    86    1
    51     2     5    1
    52    84    83    1
    53    90    91    1
    54     5     6    1
    55    77    76    1
    56    85    83    1
    57    86    92    1
    58    83    80    1
    59    28    26    1
    60     8     7    2
    61     6     7    1
    62    91    92    1
    63    27    26    1
    64    99    98    1
    65    99   100    1
    66   102   101    1
    67     7     9   am
    68    80    81    1
    69    80    79    1
    70    76    75    1
    71    76    78    1
    72    26    23    1
    73    98    97    1
    74    81    82    2
    75    93    94    1
    76    75    72    1
    77    97    94    1
    78   101   100    2
    79   101   103    1
    80    69    70   ar
    81    69    67   ar
    82    94    95    1
    83    70    68   ar
    84    67    65   ar
    85    23    22    1
    86    23    24    1
    87    74    73    2
    88    65    64    1
    89    65    66   ar
    90    68    66   ar
    91    72    73    1
    92    72    71    1
    93    95    96    2
    94    64    61    1
    95    24    25    2
    96    63    62    2
    97    61    60    1
    98    61    62    1
