@<TRIPOS>MOLECULE
tmp/3hziA00.pdb
 221 210 0 0 0
SMALL
GASTEIGER

@<TRIPOS>ATOM
      1  N         43.3800  138.3140    2.9580 N.3    66  ASP66      -0.1239
      2  CA        43.4970  136.8480    2.9420 C.3    66  ASP66       0.1674
      3  C         42.2220  136.0210    2.6940 C.2    66  ASP66       0.2266
      4  O         42.3220  134.8910    2.1930 O.2    66  ASP66      -0.2867
      5  CB        44.1520  136.3520    4.2430 C.3    66  ASP66       0.1410
      6  CG        45.4590  137.0690    4.5560 C.2    66  ASP66       0.3668
      7  OD1       46.1800  136.6070    5.4780 O.co2  66  ASP66      -0.2456
      8  OD2       45.7570  138.0950    3.8890 O.co2  66  ASP66      -0.2456
      9  N         50.1520  148.2130    2.0860 N.3    97  VAL97      -0.1245
     10  CA        51.1250  148.2520    3.1330 C.3    97  VAL97       0.1561
     11  C         52.5080  148.5330    2.5080 C.2    97  VAL97       0.2260
     12  O         52.6770  148.5340    1.2680 O.2    97  VAL97      -0.2867
     13  CB        51.1300  146.9160    3.8910 C.3    97  VAL97       0.0252
     14  CG1       52.1120  146.9830    5.0320 C.3    97  VAL97       0.0019
     15  CG2       49.7210  146.5760    4.3680 C.3    97  VAL97       0.0019
     16  N         44.6880  146.6820    3.0130 N.3   147  VAL147     -0.1231
     17  CA        45.3420  146.1020    4.1810 C.3   147  VAL147      0.1692
     18  C         45.2670  144.5880    4.0110 C.2   147  VAL147      0.2592
     19  O         44.3190  144.0650    3.4180 O.2   147  VAL147     -0.2718
     20  CB        44.6630  146.4940    5.5280 C.3   147  VAL147      0.0266
     21  CG1       45.4940  145.9910    6.6940 C.3   147  VAL147      0.0020
     22  CG2       44.5440  147.9820    5.6440 C.3   147  VAL147      0.0020
     23  N         46.2950  143.9010    4.5060 N.am  148  ALA148     -0.1966
     24  CA        46.3770  142.4460    4.4380 C.3   148  ALA148      0.1728
     25  C         45.9410  141.8910    5.7800 C.2   148  ALA148      0.2617
     26  O         45.8630  142.6240    6.7750 O.2   148  ALA148     -0.2715
     27  CB        47.8010  142.0050    4.1320 C.3   148  ALA148      0.0334
     28  N         45.6660  140.5910    5.8030 N.am  149  GLY149     -0.1940
     29  CA        45.2150  139.9500    7.0270 C.3   149  GLY149      0.2014
     30  C         43.9170  139.1560    6.8750 C.2   149  GLY149      0.2639
     31  O         43.4570  138.8960    5.7580 O.2   149  GLY149     -0.2714
     32  N         43.3140  138.7740    7.9990 N.am  150  ALA150     -0.1963
     33  CA        42.0810  137.9920    7.9710 C.3   150  ALA150      0.1728
     34  C         40.9340  138.6330    8.7670 C.2   150  ALA150      0.2616
     35  O         39.7700  138.5230    8.3800 O.2   150  ALA150     -0.2715
     36  CB        42.3640  136.5630    8.4820 C.3   150  ALA150      0.0334
     37  N         41.2480  139.2980    9.8740 N.am  151  GLN151     -0.1977
     38  CA        40.2000  139.9310   10.6670 C.3   151  GLN151      0.1601
     39  C         39.6520  141.1710   10.0000 C.2   151  GLN151      0.2287
     40  O         40.0380  141.4930    8.8830 O.2   151  GLN151     -0.2864
     41  CB        40.7150  140.2790   12.0510 C.3   151  GLN151      0.0394
     42  CG        40.4910  139.1630   13.0360 C.3   151  GLN151      0.0908
     43  CD        41.1380  137.8350   12.6490 C.2   151  GLN151      0.2608
     44  OE1       40.4920  136.9250   12.1070 O.2   151  GLN151     -0.2717
     45  NE2       42.4180  137.7130   12.9530 N.am  151  GLN151     -0.0878
     46  N         39.3950  145.0590    9.5020 N.3   153  LYS153     -0.1245
     47  CA        40.1490  146.2820    9.7490 C.3   153  LYS153      0.1561
     48  C         39.9550  147.3390    8.6780 C.2   153  LYS153      0.2260
     49  O         39.2570  147.1320    7.7040 O.2   153  LYS153     -0.2867
     50  CB        41.6480  145.9770    9.8670 C.3   153  LYS153      0.0271
     51  CG        42.4350  146.1040    8.5680 C.3   153  LYS153      0.0035
     52  CD        42.4290  144.8340    7.7670 C.3   153  LYS153      0.0206
     53  CE        43.2620  143.7830    8.4590 C.3   153  LYS153      0.1093
     54  NZ        43.3570  142.5890    7.6030 N.3   153  LYS153     -0.1314
     55  N         46.4630  151.8720   11.3610 N.3   175  ILE175     -0.1245
     56  CA        45.7150  150.7000   10.9110 C.3   175  ILE175      0.1561
     57  C         44.5990  150.4230   11.9530 C.2   175  ILE175      0.2260
     58  O         44.8540  149.8570   13.0220 O.2   175  ILE175     -0.2867
     59  CB        46.6600  149.4740   10.7710 C.3   175  ILE175      0.0252
     60  CG1       47.4560  149.6180    9.4810 C.3   175  ILE175      0.0019
     61  CG2       45.8830  148.1560   10.7500 C.3   175  ILE175      0.0019
     62  CD1       48.1550  148.3480    9.0630 C.3   175  ILE175      0.0001
     63  N         41.4530  148.6660   13.6900 N.3   177  LYS177     -0.1245
     64  CA        40.8980  147.3290   13.8180 C.3   177  LYS177      0.1561
     65  C         39.5420  147.2820   14.5580 C.2   177  LYS177      0.2260
     66  O         39.2960  148.0560   15.4980 O.2   177  LYS177     -0.2867
     67  CB        41.9080  146.4320   14.5210 C.3   177  LYS177      0.0271
     68  CG        42.9630  145.8810   13.6030 C.3   177  LYS177      0.0035
     69  CD        43.8130  144.8890   14.3570 C.3   177  LYS177      0.0206
     70  CE        44.8040  144.1860   13.4620 C.3   177  LYS177      0.1093
     71  NZ        45.6410  143.2750   14.2860 N.3   177  LYS177     -0.1314
     72  N         54.4660  148.5920   18.0450 N.3   203  PRO203     -0.2116
     73  CA        53.9090  149.9330   17.8900 C.3   203  PRO203      0.1372
     74  C         52.9240  150.2860   18.9520 C.2   203  PRO203      0.2244
     75  O         52.2730  149.4080   19.4750 O.2   203  PRO203     -0.2868
     76  CB        53.2420  149.8750   16.5210 C.3   203  PRO203      0.0268
     77  CG        52.7340  148.4950   16.4960 C.3   203  PRO203      0.0207
     78  CD        53.9520  147.6970   17.0070 C.3   203  PRO203      0.0892
     79  N         45.9920  151.4200   15.8230 N.3   218  VAL218     -0.1231
     80  CA        47.4480  151.2180   15.9170 C.3   218  VAL218      0.1692
     81  C         48.2270  152.1940   14.9810 C.2   218  VAL218      0.2592
     82  O         47.7980  152.5310   13.8600 O.2   218  VAL218     -0.2718
     83  CB        47.8330  149.7650   15.5400 C.3   218  VAL218      0.0266
     84  CG1       49.2810  149.5230   15.7860 C.3   218  VAL218      0.0020
     85  CG2       47.0550  148.8060   16.3530 C.3   218  VAL218      0.0020
     86  N         49.3770  152.6480   15.4620 N.am  219  GLU219     -0.1966
     87  CA        50.2160  153.5740   14.7180 C.3   219  GLU219      0.1733
     88  C         51.0590  152.7400   13.7360 C.2   219  GLU219      0.2616
     89  O         51.5430  151.6500   14.0960 O.2   219  GLU219     -0.2715
     90  CB        51.0790  154.3110   15.7330 C.3   219  GLU219      0.0429
     91  CG        51.7000  155.5980   15.2840 C.3   219  GLU219      0.1163
     92  CD        52.5330  156.1930   16.3940 C.2   219  GLU219      0.3649
     93  OE1       53.0740  157.3050   16.2510 O.co2 219  GLU219     -0.2457
     94  OE2       52.6530  155.5350   17.4360 O.co2 219  GLU219     -0.2457
     95  N         51.2440  153.2380   12.5110 N.am  220  ARG220     -0.1963
     96  CA        51.9910  152.4690   11.4990 C.3   220  ARG220      0.1729
     97  C         53.5000  152.6820   11.4410 C.2   220  ARG220      0.2616
     98  O         53.9560  153.8070   11.1920 O.2   220  ARG220     -0.2715
     99  CB        51.4170  152.7290   10.1070 C.3   220  ARG220      0.0348
    100  CG        49.9290  152.6110   10.0410 C.3   220  ARG220      0.0492
    101  CD        49.4340  152.6170    8.6260 C.3   220  ARG220      0.2205
    102  NE        49.9850  151.4990    7.8880 N.pl3 220  ARG220     -0.0865
    103  CZ        49.5460  151.1100    6.7040 C.cat 220  ARG220      0.5346
    104  NH1       48.5460  151.7480    6.1210 N.pl3 220  ARG220      0.1354
    105  NH2       50.1130  150.0840    6.1000 N.pl3 220  ARG220      0.1354
    106  N         54.2690  151.6040   11.6320 N.am  221  PHE221     -0.1960
    107  CA        55.7070  151.7260   11.6000 C.3   221  PHE221      0.1771
    108  C         56.2170  151.6200   10.2120 C.2   221  PHE221      0.2619
    109  O         57.3660  151.2730   10.0270 O.2   221  PHE221     -0.2715
    110  CB        56.3830  150.6680   12.4150 C.3   221  PHE221      0.0574
    111  CG        55.9690  149.3350   12.0650 C.ar  221  PHE221     -0.0200
    112  CD1       55.2100  148.6010   12.9510 C.ar  221  PHE221     -0.0042
    113  CD2       56.2950  148.8000   10.8580 C.ar  221  PHE221     -0.0042
    114  CE1       54.7580  147.3140   12.6460 C.ar  221  PHE221     -0.0003
    115  CE2       55.8600  147.5180   10.5270 C.ar  221  PHE221     -0.0003
    116  CZ        55.0760  146.7640   11.4380 C.ar  221  PHE221     -0.0000
    117  N         55.3780  151.9270    9.2350 N.am  222  ASP222     -0.1971
    118  CA        55.7890  151.8810    7.8450 C.3   222  ASP222      0.1709
    119  C         55.3680  153.1860    7.2710 C.2   222  ASP222      0.2293
    120  O         54.9340  153.2620    6.1330 O.2   222  ASP222     -0.2864
    121  CB        55.1030  150.7250    7.0930 C.3   222  ASP222      0.1436
    122  CG        53.5510  150.7580    7.1740 C.2   222  ASP222      0.3671
    123  OD1       52.9640  151.3000    8.1440 O.co2 222  ASP222     -0.2456
    124  OD2       52.9140  150.1880    6.2600 O.co2 222  ASP222     -0.2456
    125  N         58.6130  147.7350    2.8290 N.3   237  GLN237     -0.1231
    126  CA        58.6190  146.5580    3.6920 C.3   237  GLN237      0.1698
    127  C         57.8650  145.4150    3.0810 C.2   237  GLN237      0.2592
    128  O         57.1550  145.5700    2.0930 O.2   237  GLN237     -0.2718
    129  CB        57.9730  146.8270    5.0240 C.3   237  GLN237      0.0381
    130  CG        56.5030  146.9260    4.9720 C.3   237  GLN237      0.0905
    131  CD        55.9270  147.1180    6.3470 C.2   237  GLN237      0.2608
    132  OE1       56.3550  147.9900    7.1120 O.2   237  GLN237     -0.2717
    133  NE2       54.9470  146.3030    6.6770 N.am  237  GLN237     -0.0878
    134  N         58.0110  144.2530    3.6980 N.am  238  GLU238     -0.1966
    135  CA        57.3300  143.0600    3.2230 C.3   238  GLU238      0.1733
    136  C         57.2490  142.0500    4.3710 C.2   238  GLU238      0.2616
    137  O         58.0060  142.1470    5.3470 O.2   238  GLU238     -0.2715
    138  CB        58.0670  142.4690    2.0190 C.3   238  GLU238      0.0429
    139  CG        59.4520  141.9300    2.3320 C.3   238  GLU238      0.1163
    140  CD        60.0500  141.0770    1.1970 C.2   238  GLU238      0.3649
    141  OE1       61.1530  140.4990    1.3900 O.co2 238  GLU238     -0.2457
    142  OE2       59.4220  140.9820    0.1130 O.co2 238  GLU238     -0.2457
    143  N         56.3000  141.1220    4.2820 N.am  239  ASP239     -0.1971
    144  CA        56.1720  140.1120    5.3170 C.3   239  ASP239      0.1709
    145  C         56.9380  138.8630    4.9100 C.2   239  ASP239      0.2293
    146  O         57.2170  138.6510    3.7340 O.2   239  ASP239     -0.2864
    147  CB        54.6810  139.8250    5.6490 C.3   239  ASP239      0.1436
    148  CG        53.8970  139.1310    4.5240 C.2   239  ASP239      0.3671
    149  OD1       52.7170  139.5450    4.3030 O.co2 239  ASP239     -0.2456
    150  OD2       54.4290  138.1700    3.9090 O.co2 239  ASP239     -0.2456
    151  N         51.0660  130.4070    5.1220 N.3   251  LYS251     -0.1245
    152  CA        51.4100  131.2360    6.2540 C.3   251  LYS251      0.1561
    153  C         51.8710  130.4510    7.4660 C.2   251  LYS251      0.2260
    154  O         52.8910  130.8090    8.0520 O.2   251  LYS251     -0.2867
    155  CB        50.2350  132.1130    6.6410 C.3   251  LYS251      0.0271
    156  CG        48.9360  131.3790    6.8770 C.3   251  LYS251      0.0035
    157  CD        47.8990  132.3450    7.4870 C.3   251  LYS251      0.0206
    158  CE        46.7140  132.5930    6.5600 C.3   251  LYS251      0.1093
    159  NZ        47.1160  133.1940    5.2390 N.3   251  LYS251     -0.1314
    160  N         49.3550  133.4430   16.3670 N.3   293  GLN293     -0.1245
    161  CA        49.2080  133.9450   15.0170 C.3   293  GLN293      0.1566
    162  C         50.5850  134.0820   14.4060 C.2   293  GLN293      0.2260
    163  O         50.7250  134.7140   13.3590 O.2   293  GLN293     -0.2867
    164  CB        48.5440  135.3200   15.0200 C.3   293  GLN293      0.0367
    165  CG        47.4760  135.5030   16.0980 C.3   293  GLN293      0.0905
    166  CD        46.3120  134.5120   15.9790 C.2   293  GLN293      0.2608
    167  OE1       45.6000  134.4740   14.9690 O.2   293  GLN293     -0.2717
    168  NE2       46.1180  133.7120   17.0230 N.am  293  GLN293     -0.0878
    169  N         52.3740  133.3100   12.1920 N.3   295  HIS295     -0.1241
    170  CA        52.4910  132.7630   10.8480 C.3   295  HIS295      0.1621
    171  C         53.3210  133.7800   10.0700 C.2   295  HIS295      0.2264
    172  O         53.2000  134.9930   10.3120 O.2   295  HIS295     -0.2867
    173  CB        51.1000  132.5700   10.2470 C.3   295  HIS295      0.0745
    174  CG        50.2000  133.7520   10.4130 C.ar  295  HIS295      0.0817
    175  ND1       50.4020  134.9380    9.7390 N.ar  295  HIS295     -0.2268
    176  CD2       49.1140  133.9460   11.2010 C.ar  295  HIS295      0.1154
    177  CE1       49.4800  135.8150   10.1060 C.ar  295  HIS295      0.1986
    178  NE2       48.6870  135.2390   10.9940 N.ar  295  HIS295     -0.2212
    179  N         53.2500  135.5660    7.6260 N.3   297  LYS297     -0.1231
    180  CA        52.6480  136.8730    7.3810 C.3   297  LYS297      0.1693
    181  C         52.5600  137.8770    8.5230 C.2   297  LYS297      0.2592
    182  O         51.9920  138.9520    8.3530 O.2   297  LYS297     -0.2718
    183  CB        51.2750  136.7260    6.7190 C.3   297  LYS297      0.0285
    184  CG        51.3490  136.3940    5.2080 C.3   297  LYS297      0.0035
    185  CD        50.0190  136.5940    4.4620 C.3   297  LYS297      0.0206
    186  CE        49.6500  138.0650    4.3370 C.3   297  LYS297      0.1093
    187  NZ        50.5330  138.8200    3.4490 N.3   297  LYS297     -0.1314
    188  N         53.1740  137.5730    9.6590 N.am  298  ASN298     -0.1974
    189  CA        53.1260  138.4870   10.8090 C.3   298  ASN298      0.1688
    190  C         54.4570  139.1520   11.2150 C.2   298  ASN298      0.2292
    191  O         54.5290  139.9870   12.1400 O.2   298  ASN298     -0.2864
    192  CB        52.4980  137.7600   11.9940 C.3   298  ASN298      0.1181
    193  CG        51.0740  138.2110   12.2450 C.2   298  ASN298      0.2629
    194  OD1       50.4450  138.8090   11.3650 O.2   298  ASN298     -0.2716
    195  ND2       50.5570  137.9310   13.4460 N.am  298  ASN298     -0.0877
    196  N         57.7790  141.3290    9.6010 N.3   300  SER300     -0.1217
    197  CA        58.1980  142.0910    8.4410 C.3   300  SER300      0.1889
    198  C         59.6250  142.6530    8.5210 C.2   300  SER300      0.2288
    199  O         60.1390  142.9960    9.6000 O.2   300  SER300     -0.2866
    200  CB        57.2090  143.2210    8.1880 C.3   300  SER300      0.2089
    201  OG        56.1150  142.7430    7.4360 O.3   300  SER300     -0.2183
    202  N         54.1630  143.1640   15.5800 N.3   315  TYR315     -0.1227
    203  CA        52.8460  143.7830   15.4990 C.3   315  TYR315      0.1736
    204  C         51.7860  142.7350   15.5720 C.2   315  TYR315      0.2595
    205  O         52.1060  141.5410   15.5530 O.2   315  TYR315     -0.2718
    206  CB        52.7150  144.5570   14.1780 C.3   315  TYR315      0.0548
    207  CG        53.0770  143.7660   12.9270 C.ar  315  TYR315     -0.0200
    208  CD1       52.0950  143.1710   12.1520 C.ar  315  TYR315     -0.0009
    209  CD2       54.4100  143.5670   12.5500 C.ar  315  TYR315     -0.0009
    210  CE1       52.4180  142.3960   11.0380 C.ar  315  TYR315      0.0417
    211  CE2       54.7410  142.7890   11.4340 C.ar  315  TYR315      0.0417
    212  CZ        53.7260  142.2130   10.6830 C.ar  315  TYR315      0.1957
    213  OH        53.9620  141.4880    9.5410 O.3   315  TYR315     -0.2866
    214  N         50.5370  143.1840   15.6680 N.am  316  ASP316     -0.1974
    215  CA        49.3950  142.2940   15.7730 C.3   316  ASP316      0.1709
    216  C         49.6630  141.1010   16.7290 C.2   316  ASP316      0.2293
    217  O         50.0700  140.0140   16.3050 O.2   316  ASP316     -0.2864
    218  CB        49.0300  141.8120   14.3740 C.3   316  ASP316      0.1436
    219  CG        48.2770  140.4970   14.3890 C.2   316  ASP316      0.3671
    220  OD1       47.2790  140.3810   15.1420 O.co2 316  ASP316     -0.2456
    221  OD2       48.6830  139.5720   13.6450 O.co2 316  ASP316     -0.2456
@<TRIPOS>BOND
     1   142   140   ar
     2   140   141   ar
     3   140   139    1
     4    12    11    2
     5   138   139    1
     6   138   135    1
     7     9    10    1
     8   128   127    2
     9     4     3    2
    10    11    10    1
    11     3     2    1
    12   125   126    1
    13     2     1    1
    14     2     5    1
    15    16    17    1
    16   127   126    1
    17   127   134   am
    18    10    13    1
    19   135   134    1
    20   135   136    1
    21    19    18    2
    22   187   186    1
    23   126   129    1
    24   146   145    2
    25     8     6   ar
    26    13    15    1
    27    13    14    1
    28   150   148   ar
    29    18    17    1
    30    18    23   am
    31    27    24    1
    32    17    20    1
    33     5     6    1
    34   143   136   am
    35   143   144    1
    36   149   148   ar
    37   186   185    1
    38   136   137    2
    39    24    23    1
    40    24    25    1
    41   185   184    1
    42   148   147    1
    43     6     7   ar
    44   145   144    1
    45   130   129    1
    46   130   131    1
    47   151   152    1
    48   184   183    1
    49   159   158    1
    50   144   147    1
    51    20    22    1
    52    20    21    1
    53    31    30    2
    54    25    28   am
    55    25    26    2
    56    28    29    1
    57   105   103    1
    58   104   103    1
    59   120   119    2
    60   152   155    1
    61   152   153    1
    62   124   122   ar
    63   131   133   am
    64   131   132    2
    65   158   157    1
    66   155   156    1
    67   103   102    2
    68   183   180    1
    69    30    29    1
    70    30    32   am
    71   156   157    1
    72   121   122    1
    73   121   118    1
    74   122   123   ar
    75   119   118    1
    76   180   179    1
    77   180   181    1
    78   201   200    1
    79   153   154    2
    80    54    53    1
    81    49    48    2
    82    52    53    1
    83    52    51    1
    84   118   117    1
    85   102   101    1
    86    33    32    1
    87    33    36    1
    88    33    34    1
    89   200   197    1
    90   182   181    2
    91    35    34    2
    92   197   198    1
    93   197   196    1
    94   198   199    2
    95   181   188   am
    96    51    50    1
    97   101   100    1
    98    48    47    1
    99    34    37   am
   100    40    39    2
   101    62    60    1
   102   117   108   am
   103    60    59    1
   104    46    47    1
   105   213   212    1
   106   188   189    1
   107   175   177   ar
   108   175   174   ar
   109    47    50    1
   110    37    38    1
   111    39    38    1
   112   109   108    2
   113   100    99    1
   114   171   172    2
   115   171   170    1
   116   177   178   ar
   117    99    96    1
   118   108   107    1
   119   173   174    1
   120   173   170    1
   121   174   176   ar
   122   115   113   ar
   123   115   116   ar
   124    38    41    1
   125   212   210   ar
   126   212   211   ar
   127    61    59    1
   128    59    56    1
   129   189   190    1
   130   189   192    1
   131   170   169    1
   132   113   111   ar
   133    56    55    1
   134    56    57    1
   135   178   176   ar
   136   210   208   ar
   137    98    97    2
   138   190   191    2
   139   194   193    2
   140   211   209   ar
   141   116   114   ar
   142    97    96    1
   143    97   106   am
   144    96    95    1
   145   107   106    1
   146   107   110    1
   147    57    58    2
   148   192   193    1
   149    41    42    1
   150   111   110    1
   151   111   112   ar
   152    44    43    2
   153   208   207   ar
   154   193   195   am
   155    95    88   am
   156   209   207   ar
   157   114   112   ar
   158    43    45   am
   159    43    42    1
   160   207   206    1
   161   163   162    2
   162    70    71    1
   163    70    69    1
   164    68    69    1
   165    68    67    1
   166   221   219   ar
   167    63    64    1
   168    88    89    2
   169    88    87    1
   170    64    67    1
   171    64    65    1
   172    82    81    2
   173   206   203    1
   174   218   219    1
   175   218   215    1
   176   219   220   ar
   177   162   161    1
   178    65    66    2
   179    87    86    1
   180    87    90    1
   181   167   166    2
   182    81    86   am
   183    81    80    1
   184   161   164    1
   185   161   160    1
   186   164   165    1
   187    91    90    1
   188    91    92    1
   189   203   204    1
   190   203   202    1
   191    83    84    1
   192    83    80    1
   193    83    85    1
   194   205   204    2
   195   204   214   am
   196   214   215    1
   197   215   216    1
   198    79    80    1
   199   166   165    1
   200   166   168   am
   201    93    92   ar
   202   217   216    2
   203    92    94   ar
   204    77    76    1
   205    77    78    1
   206    76    73    1
   207    78    72    1
   208    73    72    1
   209    73    74    1
   210    74    75    2
