@<TRIPOS>MOLECULE
tmp/3hzlA01.pdb
 127 124 0 0 0
SMALL
GASTEIGER

@<TRIPOS>ATOM
      1  N        -39.9510  -21.0680   15.4360 N.3    50  HIS50      -0.1241
      2  CA       -40.4960  -22.2950   15.9810 C.3    50  HIS50       0.1621
      3  C        -41.7860  -22.1890   16.7450 C.2    50  HIS50       0.2264
      4  O        -42.0230  -21.2130   17.4190 O.2    50  HIS50      -0.2867
      5  CB       -39.3990  -22.9520   16.8690 C.3    50  HIS50       0.0745
      6  CG       -39.7220  -24.3530   17.3060 C.ar   50  HIS50       0.0817
      7  ND1      -39.9690  -25.3840   16.4160 N.ar   50  HIS50      -0.2268
      8  CD2      -39.8640  -24.8880   18.5480 C.ar   50  HIS50       0.1154
      9  CE1      -40.2500  -26.4910   17.0920 C.ar   50  HIS50       0.1986
     10  NE2      -40.1920  -26.2170   18.3850 N.ar   50  HIS50      -0.2212
     11  N        -43.4900  -24.7130   19.3130 N.3    52  ARG52      -0.1245
     12  CA       -43.5850  -25.9600   20.0460 C.3    52  ARG52       0.1563
     13  C        -44.9530  -26.0700   20.7270 C.2    52  ARG52       0.2260
     14  O        -45.6560  -25.0850   20.9650 O.2    52  ARG52      -0.2867
     15  CB       -42.4850  -26.0250   21.1010 C.3    52  ARG52       0.0307
     16  CG       -42.6020  -24.9920   22.1880 C.3    52  ARG52       0.0489
     17  CD       -41.6420  -25.3690   23.2700 C.3    52  ARG52       0.2205
     18  NE       -40.7950  -24.2760   23.7090 N.pl3  52  ARG52      -0.0865
     19  CZ       -40.7670  -23.8380   24.9590 C.cat  52  ARG52       0.5346
     20  NH1      -41.5570  -24.4010   25.8680 N.pl3  52  ARG52       0.1354
     21  NH2      -39.9040  -22.8880   25.3100 N.pl3  52  ARG52       0.1354
     22  N        -35.9870  -32.1050   22.0400 N.3    90  TRP90      -0.1241
     23  CA       -35.2460  -31.5630   23.1840 C.3    90  TRP90       0.1605
     24  C        -34.4210  -32.7190   23.7340 C.2    90  TRP90       0.2264
     25  O        -34.9840  -33.7490   24.0960 O.2    90  TRP90      -0.2867
     26  CB       -36.1940  -31.0830   24.2770 C.3    90  TRP90       0.0550
     27  CG       -36.8260  -29.7600   24.0700 C.ar   90  TRP90       0.0003
     28  CD1      -36.9180  -29.0300   22.9030 C.ar   90  TRP90       0.0946
     29  CD2      -37.4630  -28.9920   25.0800 C.ar   90  TRP90       0.0152
     30  NE1      -37.5840  -27.8440   23.1470 N.ar   90  TRP90      -0.2442
     31  CE2      -37.9280  -27.7990   24.4780 C.ar   90  TRP90       0.0810
     32  CE3      -37.6880  -29.1960   26.4500 C.ar   90  TRP90       0.0012
     33  CZ2      -38.6100  -26.8010   25.2080 C.ar   90  TRP90       0.0191
     34  CZ3      -38.3620  -28.2140   27.1700 C.ar   90  TRP90       0.0001
     35  CH2      -38.8190  -27.0330   26.5550 C.ar   90  TRP90       0.0015
     36  N        -34.5900  -22.1860   28.8730 N.3   100  GLU100     -0.1245
     37  CA       -35.5150  -22.8690   27.9710 C.3   100  GLU100      0.1567
     38  C        -36.3450  -23.8190   28.8040 C.2   100  GLU100      0.2260
     39  O        -37.3850  -24.3390   28.3840 O.2   100  GLU100     -0.2867
     40  CB       -34.7130  -23.6780   26.9260 C.3   100  GLU100      0.0388
     41  CG       -35.5170  -24.5430   25.9750 C.3   100  GLU100      0.1160
     42  CD       -36.1930  -23.7530   24.8650 C.2   100  GLU100      0.3649
     43  OE1      -36.7530  -24.3760   23.9210 O.co2 100  GLU100     -0.2457
     44  OE2      -36.1430  -22.5150   24.9400 O.co2 100  GLU100     -0.2457
     45  N        -29.2980  -11.1630   20.0540 N.3   225  MET225     -0.1245
     46  CA       -28.9520  -12.5860   19.9780 C.3   225  MET225      0.1570
     47  C        -28.3320  -12.9160   18.6400 C.2   225  MET225      0.2261
     48  O        -28.7750  -12.4580   17.5930 O.2   225  MET225     -0.2867
     49  CB       -30.2280  -13.4330   20.1450 C.3   225  MET225      0.0387
     50  CG       -31.0390  -13.2060   21.4530 C.3   225  MET225      0.0595
     51  SD       -32.5190  -14.2710   21.5440 S.3   225  MET225     -0.1393
     52  CE       -31.7160  -15.9890   21.6190 C.3   225  MET225      0.0692
     53  N        -36.7050  -29.1820   14.6520 N.3   241  PHE241     -0.1241
     54  CA       -36.1160  -28.1210   15.4730 C.3   241  PHE241      0.1605
     55  C        -35.4630  -28.9030   16.6260 C.2   241  PHE241      0.2264
     56  O        -36.0370  -29.8910   17.1030 O.2   241  PHE241     -0.2867
     57  CB       -37.2380  -27.2340   16.0670 C.3   241  PHE241      0.0534
     58  CG       -36.7870  -26.3220   17.1770 C.ar  241  PHE241     -0.0203
     59  CD1      -36.6510  -26.7850   18.5020 C.ar  241  PHE241     -0.0042
     60  CD2      -36.4340  -25.0030   16.9020 C.ar  241  PHE241     -0.0042
     61  CE1      -36.1620  -25.9420   19.5100 C.ar  241  PHE241     -0.0003
     62  CE2      -35.9420  -24.1510   17.9070 C.ar  241  PHE241     -0.0003
     63  CZ       -35.8050  -24.6260   19.2050 C.ar  241  PHE241     -0.0000
     64  N        -32.9000  -28.5630   20.4160 N.3   243  PHE243     -0.1241
     65  CA       -32.2830  -27.7780   21.4730 C.3   243  PHE243      0.1605
     66  C        -31.5080  -28.7770   22.3250 C.2   243  PHE243      0.2264
     67  O        -32.0710  -29.7520   22.8030 O.2   243  PHE243     -0.2867
     68  CB       -33.3720  -27.0380   22.2880 C.3   243  PHE243      0.0534
     69  CG       -32.8150  -26.0240   23.2210 C.ar  243  PHE243     -0.0203
     70  CD1      -33.0200  -24.6610   22.9980 C.ar  243  PHE243     -0.0042
     71  CD2      -32.0750  -26.4250   24.3380 C.ar  243  PHE243     -0.0042
     72  CE1      -32.5050  -23.7100   23.8590 C.ar  243  PHE243     -0.0003
     73  CE2      -31.5450  -25.4760   25.2160 C.ar  243  PHE243     -0.0003
     74  CZ       -31.7700  -24.1080   24.9740 C.ar  243  PHE243     -0.0000
     75  N        -28.9980  -24.5590   19.7410 N.3   257  PHE257     -0.1241
     76  CA       -30.2230  -24.9940   19.1350 C.3   257  PHE257      0.1605
     77  C        -30.1810  -24.8200   17.6030 C.2   257  PHE257      0.2264
     78  O        -29.3610  -24.0840   17.0570 O.2   257  PHE257     -0.2867
     79  CB       -31.4470  -24.1710   19.7000 C.3   257  PHE257      0.0534
     80  CG       -31.4450  -22.7250   19.3060 C.ar  257  PHE257     -0.0203
     81  CD1      -30.8010  -21.7680   20.1010 C.ar  257  PHE257     -0.0042
     82  CD2      -32.0020  -22.3320   18.0840 C.ar  257  PHE257     -0.0042
     83  CE1      -30.6990  -20.4400   19.6760 C.ar  257  PHE257     -0.0003
     84  CE2      -31.9070  -21.0020   17.6420 C.ar  257  PHE257     -0.0003
     85  CZ       -31.2470  -20.0620   18.4440 C.ar  257  PHE257     -0.0000
     86  N        -33.0820  -24.4080   14.2440 N.3   259  PHE259     -0.1241
     87  CA       -34.4740  -24.3010   13.8520 C.3   259  PHE259      0.1605
     88  C        -35.0600  -25.4630   13.0620 C.2   259  PHE259      0.2264
     89  O        -36.2770  -25.6300   12.9540 O.2   259  PHE259     -0.2867
     90  CB       -34.6950  -22.9960   13.0330 C.3   259  PHE259      0.0534
     91  CG       -34.7840  -21.7420   13.8810 C.ar  259  PHE259     -0.0203
     92  CD1      -35.9290  -21.4850   14.6430 C.ar  259  PHE259     -0.0042
     93  CD2      -33.7550  -20.8300   13.8830 C.ar  259  PHE259     -0.0042
     94  CE1      -36.0070  -20.3020   15.3920 C.ar  259  PHE259     -0.0003
     95  CE2      -33.8330  -19.6440   14.6260 C.ar  259  PHE259     -0.0003
     96  CZ       -34.9710  -19.3870   15.3780 C.ar  259  PHE259     -0.0000
     97  N        -27.4210  -20.4300   22.9100 N.3   275  ASP275     -0.1239
     98  CA       -28.4000  -19.8280   23.8470 C.3   275  ASP275      0.1674
     99  C        -27.5480  -19.5580   25.1080 C.2   275  ASP275      0.2266
    100  O        -27.7080  -20.1730   26.1450 O.2   275  ASP275     -0.2867
    101  CB       -29.5670  -20.7780   24.1260 C.3   275  ASP275      0.1410
    102  CG       -30.4350  -20.2930   25.2610 C.2   275  ASP275      0.3668
    103  OD1      -31.0150  -21.1400   25.9520 O.co2 275  ASP275     -0.2456
    104  OD2      -30.5040  -19.0600   25.4560 O.co2 275  ASP275     -0.2456
    105  N        -42.0950  -13.6870   23.3030 N.3   354  TRP354     -0.1241
    106  CA       -41.4280  -14.5500   22.3070 C.3   354  TRP354      0.1605
    107  C        -42.6830  -14.9510   21.5620 C.2   354  TRP354      0.2264
    108  O        -43.3570  -15.9320   21.8900 O.2   354  TRP354     -0.2867
    109  CB       -40.7400  -15.6730   23.0830 C.3   354  TRP354      0.0550
    110  CG       -39.8360  -16.5430   22.2930 C.ar  354  TRP354      0.0003
    111  CD1      -40.0900  -17.8070   21.9240 C.ar  354  TRP354      0.0946
    112  CD2      -38.4680  -16.2730   21.9540 C.ar  354  TRP354      0.0152
    113  NE1      -38.9350  -18.4000   21.3770 N.ar  354  TRP354     -0.2442
    114  CE2      -37.9310  -17.4750   21.3960 C.ar  354  TRP354      0.0810
    115  CE3      -37.6390  -15.1580   22.0800 C.ar  354  TRP354      0.0012
    116  CZ2      -36.6010  -17.5760   20.9860 C.ar  354  TRP354      0.0191
    117  CZ3      -36.3090  -15.2540   21.6630 C.ar  354  TRP354      0.0001
    118  CH2      -35.8030  -16.4700   21.1250 C.ar  354  TRP354      0.0015
    119  N        -45.1360  -17.0380   16.9360 N.3   357  LYS357     -0.1245
    120  CA       -46.1680  -18.0700   16.8980 C.3   357  LYS357      0.1561
    121  C        -47.5690  -17.5550   17.2180 C.2   357  LYS357      0.2260
    122  O        -48.5550  -18.2070   16.8820 O.2   357  LYS357     -0.2867
    123  CB       -45.7900  -19.1790   17.8630 C.3   357  LYS357      0.0271
    124  CG       -45.6690  -18.7690   19.2950 C.3   357  LYS357      0.0035
    125  CD       -44.9030  -19.8940   20.0170 C.3   357  LYS357      0.0206
    126  CE       -43.9440  -19.3580   21.0540 C.3   357  LYS357      0.1093
    127  NZ       -43.4450  -20.4570   21.9180 N.3   357  LYS357     -0.1314
@<TRIPOS>BOND
     1    89    88    2
     2    90    87    1
     3    90    91    1
     4    88    87    1
     5    87    86    1
     6    91    93   ar
     7    91    92   ar
     8    93    95   ar
     9    95    96   ar
    10    92    94   ar
    11    53    54    1
    12    96    94   ar
    13     1     2    1
    14    54    57    1
    15    54    55    1
    16     2     3    1
    17     2     5    1
    18    57    58    1
    19     7     9   ar
    20     7     6   ar
    21    55    56    2
    22     3     4    2
    23     5     6    1
    24   122   121    2
    25   120   119    1
    26   120   121    1
    27   120   123    1
    28    60    58   ar
    29    60    62   ar
    30    78    77    2
    31     9    10   ar
    32    58    59   ar
    33     6     8   ar
    34    48    47    2
    35    77    76    1
    36    84    82   ar
    37    84    85   ar
    38   123   124    1
    39    62    63   ar
    40    82    80   ar
    41    10     8   ar
    42    85    83   ar
    43    59    61   ar
    44    47    46    1
    45    76    79    1
    46    76    75    1
    47    63    61   ar
    48   124   125    1
    49    80    79    1
    50    80    81   ar
    51    11    12    1
    52    83    81   ar
    53    46    45    1
    54    46    49    1
    55   125   126    1
    56    12    13    1
    57    12    15    1
    58    49    50    1
    59    64    65    1
    60    13    14    2
    61   116   118   ar
    62   116   114   ar
    63   126   127    1
    64    15    16    1
    65   118   117   ar
    66   113   114   ar
    67   113   111   ar
    68   114   112   ar
    69    50    51    1
    70    65    68    1
    71    65    66    1
    72    51    52    1
    73   107   108    2
    74   107   106    1
    75   117   115   ar
    76   111   110   ar
    77   112   115   ar
    78   112   110   ar
    79    22    23    1
    80    16    17    1
    81    68    69    1
    82   110   109    1
    83   106   109    1
    84   106   105    1
    85    66    67    2
    86    28    30   ar
    87    28    27   ar
    88    97    98    1
    89    70    69   ar
    90    70    72   ar
    91    30    31   ar
    92    23    24    1
    93    23    26    1
    94    69    71   ar
    95    17    18    1
    96    18    19    2
    97    24    25    2
    98    98   101    1
    99    98    99    1
   100    72    74   ar
   101    43    42   ar
   102    27    26    1
   103    27    29   ar
   104   101   102    1
   105    71    73   ar
   106    31    29   ar
   107    31    33   ar
   108    42    44   ar
   109    42    41    1
   110    19    21    1
   111    19    20    1
   112    74    73   ar
   113    29    32   ar
   114    99   100    2
   115    33    35   ar
   116   102   104   ar
   117   102   103   ar
   118    41    40    1
   119    32    34   ar
   120    35    34   ar
   121    40    37    1
   122    37    38    1
   123    37    36    1
   124    39    38    2
