@<TRIPOS>MOLECULE
tmp/3hzlA04.pdb
 85 78 0 0 0
SMALL
GASTEIGER

@<TRIPOS>ATOM
      1  N        -42.6140  -23.2130   16.6330 N.3    51  TRP51      -0.1241
      2  CA       -43.8340  -23.2710   17.3990 C.3    51  TRP51       0.1605
      3  C        -43.9630  -24.6370   18.0820 C.2    51  TRP51       0.2264
      4  O        -44.4510  -25.6090   17.5170 O.2    51  TRP51      -0.2867
      5  CB       -45.0330  -22.9860   16.5140 C.3    51  TRP51       0.0550
      6  CG       -46.2970  -22.8210   17.2930 C.ar   51  TRP51       0.0003
      7  CD1      -46.4370  -22.7610   18.6680 C.ar   51  TRP51       0.0946
      8  CD2      -47.5980  -22.6320   16.7450 C.ar   51  TRP51       0.0152
      9  NE1      -47.7540  -22.5460   18.9930 N.ar   51  TRP51      -0.2442
     10  CE2      -48.4910  -22.4630   17.8320 C.ar   51  TRP51       0.0810
     11  CE3      -48.0950  -22.5920   15.4450 C.ar   51  TRP51       0.0012
     12  CZ2      -49.8700  -22.2540   17.6470 C.ar   51  TRP51       0.0191
     13  CZ3      -49.4680  -22.3820   15.2600 C.ar   51  TRP51       0.0001
     14  CH2      -50.3350  -22.2170   16.3640 C.ar   51  TRP51       0.0015
     15  N        -45.3380  -27.3000   21.0220 N.3    53  LEU53      -0.1245
     16  CA       -46.5830  -27.5430   21.7180 C.3    53  LEU53       0.1561
     17  C        -46.3150  -27.7340   23.2280 C.2    53  LEU53       0.2260
     18  O        -47.1770  -27.4490   24.0630 O.2    53  LEU53      -0.2867
     19  CB       -47.2330  -28.7740   21.1140 C.3    53  LEU53       0.0270
     20  CG       -48.5570  -29.2690   21.6930 C.3    53  LEU53       0.0019
     21  CD1      -49.6430  -28.1750   21.6520 C.3    53  LEU53       0.0001
     22  CD2      -48.9670  -30.4600   20.8640 C.3    53  LEU53       0.0001
     23  N        -51.5700  -21.3030   22.4380 N.3    64  THR64      -0.1203
     24  CA       -51.2720  -22.1310   21.2760 C.3    64  THR64       0.1994
     25  C        -52.5680  -22.7070   20.6620 C.2    64  THR64       0.2617
     26  O        -52.7900  -22.6190   19.4520 O.2    64  THR64      -0.2717
     27  CB       -50.3050  -23.2610   21.6870 C.3    64  THR64       0.1784
     28  OG1      -48.9940  -22.7030   21.8570 O.3    64  THR64      -0.2211
     29  CG2      -50.3010  -24.3890   20.6700 C.3    64  THR64       0.0376
     30  N        -53.4360  -23.2860   21.4900 N.am   65  LEU65      -0.1979
     31  CA       -54.6670  -23.8380   20.9580 C.3    65  LEU65       0.1596
     32  C        -55.5870  -22.7870   20.3430 C.2    65  LEU65       0.2287
     33  O        -56.2260  -23.0570   19.3360 O.2    65  LEU65      -0.2864
     34  CB       -55.4340  -24.6240   22.0430 C.3    65  LEU65       0.0297
     35  CG       -54.6730  -25.7530   22.7520 C.3    65  LEU65       0.0022
     36  CD1      -55.6380  -26.4900   23.6830 C.3    65  LEU65       0.0001
     37  CD2      -54.0770  -26.7290   21.7420 C.3    65  LEU65       0.0001
     38  N        -54.0160  -21.5190   16.6990 N.3    68  LEU68      -0.1245
     39  CA       -54.0460  -22.4090   15.5390 C.3    68  LEU68       0.1561
     40  C        -55.1560  -22.1180   14.5070 C.2    68  LEU68       0.2260
     41  O        -54.8850  -22.0560   13.3130 O.2    68  LEU68      -0.2867
     42  CB       -54.1200  -23.8690   15.9970 C.3    68  LEU68       0.0270
     43  CG       -53.9370  -24.8780   14.8620 C.3    68  LEU68       0.0019
     44  CD1      -52.5930  -24.6630   14.1820 C.3    68  LEU68       0.0001
     45  CD2      -54.0170  -26.3010   15.4360 C.3    68  LEU68       0.0001
     46  N        -54.7910  -21.0940   10.4830 N.3    72  ARG72      -0.1245
     47  CA       -55.4460  -21.7510    9.3620 C.3    72  ARG72       0.1563
     48  C        -56.2210  -20.7670    8.4970 C.2    72  ARG72       0.2260
     49  O        -56.2110  -20.8820    7.2670 O.2    72  ARG72      -0.2867
     50  CB       -56.3940  -22.8590    9.8510 C.3    72  ARG72       0.0307
     51  CG       -55.6900  -23.8970   10.7070 C.3    72  ARG72       0.0489
     52  CD       -54.5630  -24.5110    9.9800 C.3    72  ARG72       0.2205
     53  NE       -53.9680  -25.6460   10.6870 N.pl3  72  ARG72      -0.0865
     54  CZ       -52.7920  -26.1800   10.3700 C.cat  72  ARG72       0.5346
     55  NH1      -52.3330  -27.2240   11.0430 N.pl3  72  ARG72       0.1354
     56  NH2      -52.0470  -25.6460    9.3970 N.pl3  72  ARG72       0.1354
     57  N        -47.4640  -22.9820    8.3790 N.3    83  ILE83      -0.1245
     58  CA       -46.9600  -23.7690    9.5200 C.3    83  ILE83       0.1561
     59  C        -46.6550  -25.1770    8.9990 C.2    83  ILE83       0.2260
     60  O        -47.4980  -25.7910    8.3000 O.2    83  ILE83      -0.2867
     61  CB       -48.0130  -23.9290   10.5850 C.3    83  ILE83       0.0252
     62  CG1      -48.5890  -22.5660   10.9540 C.3    83  ILE83       0.0019
     63  CG2      -47.4150  -24.6780   11.7670 C.3    83  ILE83       0.0019
     64  CD1      -47.5890  -21.6120   11.4800 C.3    83  ILE83       0.0001
     65  N        -45.2500  -28.9750   10.3180 N.3    85  GLU85      -0.1245
     66  CA       -44.9120  -29.8500   11.4320 C.3    85  GLU85       0.1567
     67  C        -43.6420  -30.6020   11.0690 C.2    85  GLU85       0.2260
     68  O        -43.6620  -31.4920   10.2180 O.2    85  GLU85      -0.2867
     69  CB       -46.0570  -30.8290   11.7200 C.3    85  GLU85       0.0388
     70  CG       -47.3250  -30.1690   12.2880 C.3    85  GLU85       0.1160
     71  CD       -48.1800  -29.4960   11.2080 C.2    85  GLU85       0.3649
     72  OE1      -49.1810  -28.8390   11.5660 O.co2  85  GLU85      -0.2457
     73  OE2      -47.8590  -29.6330    9.9980 O.co2  85  GLU85      -0.2457
     74  N        -45.5570  -32.8660   16.8590 N.3   145  ASP145     -0.1239
     75  CA       -46.4280  -31.7830   16.4100 C.3   145  ASP145      0.1674
     76  C        -45.7400  -30.4210   16.3550 C.2   145  ASP145      0.2266
     77  O        -46.3560  -29.4340   15.9400 O.2   145  ASP145     -0.2867
     78  CB       -47.6480  -31.7010   17.3150 C.3   145  ASP145      0.1410
     79  CG       -48.4150  -32.9980   17.3410 C.2   145  ASP145      0.3668
     80  OD1      -48.7700  -33.4770   16.2340 O.co2 145  ASP145     -0.2456
     81  OD2      -48.6550  -33.5300   18.4530 O.co2 145  ASP145     -0.2456
     82  N        -43.8200  -27.2820   15.2310 N.3   147  GLY147     -0.1225
     83  CA       -43.8240  -26.7570   13.8770 C.3   147  GLY147      0.1811
     84  C        -42.8100  -25.6700   13.6180 C.2   147  GLY147      0.2280
     85  O        -42.2130  -25.1140   14.5390 O.2   147  GLY147     -0.2866
@<TRIPOS>BOND
     1    49    48    2
     2    60    59    2
     3    57    58    1
     4    48    47    1
     5    59    58    1
     6    47    50    1
     7    47    46    1
     8    56    54    1
     9    58    61    1
    10    50    51    1
    11    52    53    1
    12    52    51    1
    13    73    71   ar
    14    68    67    2
    15    65    66    1
    16    54    53    2
    17    54    55    1
    18    61    62    1
    19    61    63    1
    20    62    64    1
    21    67    66    1
    22    71    72   ar
    23    71    70    1
    24    66    69    1
    25    69    70    1
    26    41    40    2
    27    84    83    1
    28    84    85    2
    29    83    82    1
    30    44    43    1
    31    40    39    1
    32    43    45    1
    33    43    42    1
    34    13    11   ar
    35    13    14   ar
    36    11     8   ar
    37    39    42    1
    38    39    38    1
    39    77    76    2
    40    80    79   ar
    41    76    75    1
    42    14    12   ar
    43    75    74    1
    44    75    78    1
    45     5     6    1
    46     5     2    1
    47     1     2    1
    48     8     6   ar
    49     8    10   ar
    50     6     7   ar
    51    78    79    1
    52    79    81   ar
    53     2     3    1
    54     4     3    2
    55    12    10   ar
    56    10     9   ar
    57     7     9   ar
    58    33    32    2
    59    26    25    2
    60    32    31    1
    61    25    24    1
    62    25    30   am
    63    29    27    1
    64    22    20    1
    65    31    30    1
    66    31    34    1
    67    15    16    1
    68    19    20    1
    69    19    16    1
    70    24    27    1
    71    24    23    1
    72    21    20    1
    73    27    28    1
    74    16    17    1
    75    37    35    1
    76    34    35    1
    77    35    36    1
    78    17    18    2
