@<TRIPOS>MOLECULE
tmp/3hzlA03.pdb
 99 98 0 0 0
SMALL
GASTEIGER

@<TRIPOS>ATOM
      1  N        -32.7990  -21.4340   30.7520 N.3    99  ASN99      -0.1240
      2  CA       -33.8400  -20.4390   30.4220 C.3    99  ASN99       0.1653
      3  C        -34.8970  -21.0400   29.4850 C.2    99  ASN99       0.2266
      4  O        -35.9950  -20.4940   29.3460 O.2    99  ASN99      -0.2867
      5  CB       -33.2300  -19.1460   29.8180 C.3    99  ASN99       0.1155
      6  CG       -32.5100  -19.3740   28.4940 C.2    99  ASN99       0.2627
      7  OD1      -32.2820  -20.5170   28.0860 O.2    99  ASN99      -0.2716
      8  ND2      -32.1290  -18.2800   27.8260 N.am   99  ASN99      -0.0877
      9  N        -32.5150   -7.9800   24.2190 N.3   223  TYR223     -0.1241
     10  CA       -31.2730   -8.7600   24.0610 C.3   223  TYR223      0.1605
     11  C        -30.9100   -8.9220   22.5970 C.2   223  TYR223      0.2264
     12  O        -31.7930   -9.2160   21.7530 O.2   223  TYR223     -0.2867
     13  CB       -31.4590  -10.1440   24.6510 C.3   223  TYR223      0.0534
     14  CG       -31.9260  -10.1430   26.0820 C.ar  223  TYR223     -0.0201
     15  CD1      -33.2790  -10.1530   26.3880 C.ar  223  TYR223     -0.0009
     16  CD2      -31.0060  -10.1640   27.1370 C.ar  223  TYR223     -0.0009
     17  CE1      -33.7160  -10.1960   27.6810 C.ar  223  TYR223      0.0417
     18  CE2      -31.4300  -10.2030   28.4420 C.ar  223  TYR223      0.0417
     19  CZ       -32.7900  -10.2210   28.7200 C.ar  223  TYR223      0.1957
     20  OH       -33.2880  -10.2830   30.0140 O.3   223  TYR223     -0.2866
     21  N        -29.2980  -11.1630   20.0540 N.3   225  MET225     -0.1245
     22  CA       -28.9520  -12.5860   19.9780 C.3   225  MET225      0.1570
     23  C        -28.3320  -12.9160   18.6400 C.2   225  MET225      0.2261
     24  O        -28.7750  -12.4580   17.5930 O.2   225  MET225     -0.2867
     25  CB       -30.2280  -13.4330   20.1450 C.3   225  MET225      0.0387
     26  CG       -31.0390  -13.2060   21.4530 C.3   225  MET225      0.0595
     27  SD       -32.5190  -14.2710   21.5440 S.3   225  MET225     -0.1393
     28  CE       -31.7160  -15.9890   21.6190 C.3   225  MET225      0.0692
     29  N        -27.4210  -20.4300   22.9100 N.3   275  ASP275     -0.1225
     30  CA       -28.4000  -19.8280   23.8470 C.3   275  ASP275      0.1805
     31  C        -27.5480  -19.5580   25.1080 C.2   275  ASP275      0.2598
     32  O        -27.7080  -20.1730   26.1450 O.2   275  ASP275     -0.2718
     33  CB       -29.5670  -20.7780   24.1260 C.3   275  ASP275      0.1424
     34  CG       -30.4350  -20.2930   25.2610 C.2   275  ASP275      0.3668
     35  OD1      -31.0150  -21.1400   25.9520 O.co2 275  ASP275     -0.2456
     36  OD2      -30.5040  -19.0600   25.4560 O.co2 275  ASP275     -0.2456
     37  N        -26.6140  -18.6220   24.9530 N.am  276  PHE276     -0.1962
     38  CA       -25.7090  -18.2490   26.0190 C.3   276  PHE276      0.1771
     39  C        -26.2790  -17.0840   26.8480 C.2   276  PHE276      0.2619
     40  O        -27.2030  -16.4080   26.4110 O.2   276  PHE276     -0.2715
     41  CB       -24.3650  -17.8170   25.4130 C.3   276  PHE276      0.0574
     42  CG       -23.5240  -18.9680   24.8530 C.ar  276  PHE276     -0.0200
     43  CD1      -22.2450  -18.7110   24.4350 C.ar  276  PHE276     -0.0042
     44  CD2      -24.0260  -20.2690   24.7280 C.ar  276  PHE276     -0.0042
     45  CE1      -21.4440  -19.7520   23.8910 C.ar  276  PHE276     -0.0003
     46  CE2      -23.2120  -21.3120   24.1750 C.ar  276  PHE276     -0.0003
     47  CZ       -21.9470  -21.0330   23.7750 C.ar  276  PHE276     -0.0000
     48  N        -25.7330  -16.8390   28.0330 N.am  277  GLU277     -0.1963
     49  CA       -26.2250  -15.6990   28.8190 C.3   277  GLU277      0.1733
     50  C        -25.7740  -14.4280   28.1180 C.2   277  GLU277      0.2616
     51  O        -24.6230  -14.3010   27.7520 O.2   277  GLU277     -0.2715
     52  CB       -25.6780  -15.7680   30.2390 C.3   277  GLU277      0.0429
     53  CG       -26.3950  -16.8600   31.0380 C.3   277  GLU277      0.1163
     54  CD       -25.8360  -17.0730   32.4290 C.2   277  GLU277      0.3649
     55  OE1      -26.2640  -18.0630   33.0700 O.co2 277  GLU277     -0.2457
     56  OE2      -24.9840  -16.2630   32.8780 O.co2 277  GLU277     -0.2457
     57  N        -26.7000  -13.4950   27.9000 N.am  278  VAL278     -0.1977
     58  CA       -26.3990  -12.2550   27.2110 C.3   278  VAL278      0.1596
     59  C        -26.9370  -11.1110   28.0880 C.2   278  VAL278      0.2287
     60  O        -28.0640  -11.1750   28.5290 O.2   278  VAL278     -0.2864
     61  CB       -27.1300  -12.2160   25.8360 C.3   278  VAL278      0.0276
     62  CG1      -26.8490  -10.9010   25.1300 C.3   278  VAL278      0.0022
     63  CG2      -26.6490  -13.3880   24.9530 C.3   278  VAL278      0.0022
     64  N        -38.3480   -9.2450   25.9810 N.3   324  LEU324     -0.1231
     65  CA       -39.0230  -10.1140   26.9280 C.3   324  LEU324      0.1678
     66  C        -39.2890   -9.4580   28.3000 C.2   324  LEU324      0.2434
     67  O        -38.5220   -8.5960   28.7340 O.2   324  LEU324     -0.2733
     68  CB       -38.1010  -11.3300   27.1960 C.3   324  LEU324      0.0284
     69  CG       -37.6650  -12.0100   25.9030 C.3   324  LEU324      0.0019
     70  CD1      -36.5200  -12.9960   26.2000 C.3   324  LEU324      0.0001
     71  CD2      -38.8300  -12.7680   25.3150 C.3   324  LEU324      0.0001
     72  N        -40.3650   -9.8780   28.9740 N.am  325  PRO325     -0.2729
     73  CA       -40.6550   -9.3120   30.3110 C.3   325  PRO325      0.1401
     74  C        -39.4210   -9.5930   31.1590 C.2   325  PRO325      0.2269
     75  O        -38.8330  -10.7000   31.0810 O.2   325  PRO325     -0.2865
     76  CB       -41.8240  -10.1410   30.7780 C.3   325  PRO325      0.0296
     77  CG       -42.5800  -10.4000   29.5160 C.3   325  PRO325      0.0237
     78  CD       -41.4600  -10.7530   28.5370 C.3   325  PRO325      0.0939
     79  N        -39.1620  -13.3340   34.6320 N.3   328  PRO328     -0.2116
     80  CA       -39.3080  -14.5950   33.8940 C.3   328  PRO328      0.1372
     81  C        -40.6350  -15.3060   34.1250 C.2   328  PRO328      0.2244
     82  O        -40.9730  -16.2560   33.4150 O.2   328  PRO328     -0.2868
     83  CB       -38.1090  -15.4130   34.3790 C.3   328  PRO328      0.0268
     84  CG       -37.9930  -14.9710   35.8000 C.3   328  PRO328      0.0207
     85  CD       -38.1650  -13.4660   35.7110 C.3   328  PRO328      0.0892
     86  N        -42.0950  -13.6870   23.3030 N.3   354  TRP354     -0.1241
     87  CA       -41.4280  -14.5500   22.3070 C.3   354  TRP354      0.1605
     88  C        -42.6830  -14.9510   21.5620 C.2   354  TRP354      0.2264
     89  O        -43.3570  -15.9320   21.8900 O.2   354  TRP354     -0.2867
     90  CB       -40.7400  -15.6730   23.0830 C.3   354  TRP354      0.0550
     91  CG       -39.8360  -16.5430   22.2930 C.ar  354  TRP354      0.0003
     92  CD1      -40.0900  -17.8070   21.9240 C.ar  354  TRP354      0.0946
     93  CD2      -38.4680  -16.2730   21.9540 C.ar  354  TRP354      0.0152
     94  NE1      -38.9350  -18.4000   21.3770 N.ar  354  TRP354     -0.2442
     95  CE2      -37.9310  -17.4750   21.3960 C.ar  354  TRP354      0.0810
     96  CE3      -37.6390  -15.1580   22.0800 C.ar  354  TRP354      0.0012
     97  CZ2      -36.6010  -17.5760   20.9860 C.ar  354  TRP354      0.0191
     98  CZ3      -36.3090  -15.2540   21.6630 C.ar  354  TRP354      0.0001
     99  CH2      -35.8030  -16.4700   21.1250 C.ar  354  TRP354      0.0015
@<TRIPOS>BOND
     1    24    23    2
     2    23    22    1
     3    22    21    1
     4    22    25    1
     5    25    26    1
     6    97    99   ar
     7    97    95   ar
     8    99    98   ar
     9    94    95   ar
    10    94    92   ar
    11    95    93   ar
    12    26    27    1
    13    27    28    1
    14    88    89    2
    15    88    87    1
    16    98    96   ar
    17    12    11    2
    18    92    91   ar
    19    93    96   ar
    20    93    91   ar
    21    91    90    1
    22    87    90    1
    23    87    86    1
    24    11    10    1
    25    29    30    1
    26    47    45   ar
    27    47    46   ar
    28    30    33    1
    29    30    31    1
    30    45    43   ar
    31    10     9    1
    32    10    13    1
    33    33    34    1
    34    46    44   ar
    35    43    42   ar
    36    13    14    1
    37    44    42   ar
    38    42    41    1
    39    37    31   am
    40    37    38    1
    41    63    61    1
    42    31    32    2
    43    62    61    1
    44    34    36   ar
    45    34    35   ar
    46    71    69    1
    47    41    38    1
    48    61    58    1
    49    69    70    1
    50    69    68    1
    51    64    65    1
    52    38    39    1
    53    14    15   ar
    54    14    16   ar
    55    15    17   ar
    56    40    39    2
    57    39    48   am
    58    65    68    1
    59    65    66    1
    60    16    18   ar
    61    58    57    1
    62    58    59    1
    63    17    19   ar
    64    51    50    2
    65     8     6   am
    66    57    50   am
    67    48    49    1
    68     7     6    2
    69    59    60    2
    70    50    49    1
    71    66    67    2
    72    66    72   am
    73    18    19   ar
    74     6     5    1
    75    78    72    1
    76    78    77    1
    77    19    20    1
    78    49    52    1
    79    72    73    1
    80     4     3    2
    81     3     2    1
    82    77    76    1
    83     5     2    1
    84    52    53    1
    85    73    76    1
    86    73    74    1
    87     2     1    1
    88    53    54    1
    89    75    74    2
    90    54    56   ar
    91    54    55   ar
    92    82    81    2
    93    80    81    1
    94    80    83    1
    95    80    79    1
    96    83    84    1
    97    79    85    1
    98    85    84    1
