@<TRIPOS>MOLECULE
tmp/3hznA07.pdb
 78 75 0 0 0
SMALL
GASTEIGER

@<TRIPOS>ATOM
      1  N         77.7330    4.9900   12.5730 N.3    13  SER13      -0.1217
      2  CA        78.6250    6.1010   12.9020 C.3    13  SER13       0.1889
      3  C         79.7880    6.1610   11.9210 C.2    13  SER13       0.2288
      4  O         80.6380    5.2640   11.8790 O.2    13  SER13      -0.2866
      5  CB        79.1950    5.9220   14.3090 C.3    13  SER13       0.2089
      6  OG        78.1830    6.0050   15.2840 O.3    13  SER13      -0.2183
      7  N         83.3570    7.4010   10.6180 N.3    15  LYS15      -0.1245
      8  CA        84.6220    7.7910   11.2400 C.3    15  LYS15       0.1561
      9  C         85.5200    8.5330   10.2520 C.2    15  LYS15       0.2260
     10  O         86.3590    9.3450   10.6440 O.2    15  LYS15      -0.2867
     11  CB        85.3600    6.5550   11.7680 C.3    15  LYS15       0.0271
     12  CG        84.7440    5.9400   13.0230 C.3    15  LYS15       0.0035
     13  CD        85.4300    4.6170   13.4010 C.3    15  LYS15       0.0206
     14  CE        85.1060    4.2060   14.8440 C.3    15  LYS15       0.1093
     15  NZ        83.7010    4.5750   15.2120 N.3    15  LYS15      -0.1314
     16  N         91.7780   11.6670   18.2800 N.3    71  PHE71      -0.1227
     17  CA        91.2700   10.8490   17.1830 C.3    71  PHE71       0.1736
     18  C         89.9910   11.3990   16.5460 C.2    71  PHE71       0.2595
     19  O         89.6920   11.0680   15.4090 O.2    71  PHE71      -0.2718
     20  CB        91.0720    9.3910   17.6140 C.3    71  PHE71       0.0547
     21  CG        90.1160    9.2220   18.7520 C.ar   71  PHE71      -0.0202
     22  CD1       88.7720    9.0270   18.5190 C.ar   71  PHE71      -0.0042
     23  CD2       90.5600    9.2630   20.0580 C.ar   71  PHE71      -0.0042
     24  CE1       87.8830    8.8810   19.5740 C.ar   71  PHE71      -0.0003
     25  CE2       89.6740    9.1080   21.1110 C.ar   71  PHE71      -0.0003
     26  CZ        88.3330    8.9190   20.8660 C.ar   71  PHE71      -0.0000
     27  N         89.2340   12.2190   17.2750 N.am   72  ASN72      -0.1974
     28  CA        87.9870   12.8010   16.7590 C.3    72  ASN72       0.1688
     29  C         88.2080   14.0670   15.9420 C.2    72  ASN72       0.2292
     30  O         87.3130   14.5310   15.2250 O.2    72  ASN72      -0.2864
     31  CB        87.0500   13.1320   17.9130 C.3    72  ASN72       0.1181
     32  CG        86.3670   11.9120   18.4610 C.2    72  ASN72       0.2629
     33  OD1       86.1310   10.9470   17.7410 O.2    72  ASN72      -0.2716
     34  ND2       86.0400   11.9460   19.7410 N.am   72  ASN72      -0.0877
     35  N         87.4540   13.9250   12.1590 N.3    75  LYS75      -0.1245
     36  CA        86.0730   13.8530   11.7090 C.3    75  LYS75       0.1561
     37  C         85.4030   15.2270   11.7700 C.2    75  LYS75       0.2260
     38  O         84.6080   15.5890   10.9180 O.2    75  LYS75      -0.2867
     39  CB        85.2770   12.7610   12.4160 C.3    75  LYS75       0.0271
     40  CG        85.7320   12.4090   13.7900 C.3    75  LYS75       0.0035
     41  CD        84.9450   11.2230   14.2910 C.3    75  LYS75       0.0206
     42  CE        85.7240    9.9170   14.1620 C.3    75  LYS75       0.1093
     43  NZ        85.9790    9.3480   15.5230 N.3    75  LYS75      -0.1314
     44  N         78.0520   11.1360   12.8200 N.3   158  VAL158     -0.1231
     45  CA        78.4830   10.4300   14.0200 C.3   158  VAL158      0.1678
     46  C         78.2390   11.3300   15.2150 C.2   158  VAL158      0.2434
     47  O         78.5350   12.5280   15.1430 O.2   158  VAL158     -0.2733
     48  CB        79.9950   10.0680   13.9650 C.3   158  VAL158      0.0265
     49  CG1       80.8460   11.2990   13.6830 C.3   158  VAL158      0.0020
     50  CG2       80.4380    9.4110   15.2690 C.3   158  VAL158      0.0020
     51  N         77.7000   10.7720   16.3180 N.am  159  PRO159     -0.2718
     52  CA        77.5430   11.5420   17.5610 C.3   159  PRO159      0.1535
     53  C         78.7890   11.4370   18.4300 C.2   159  PRO159      0.2598
     54  O         79.2090   10.3360   18.8170 O.2   159  PRO159     -0.2715
     55  CB        76.3680   10.8580   18.2490 C.3   159  PRO159      0.0310
     56  CG        76.4370    9.4460   17.7650 C.3   159  PRO159      0.0237
     57  CD        77.0620    9.4470   16.4100 C.3   159  PRO159      0.0939
     58  N         79.3850   12.5810   18.7220 N.am  160  ILE160     -0.1964
     59  CA        80.6520   12.6040   19.4240 C.3   160  ILE160      0.1727
     60  C         80.5060   13.1810   20.8220 C.2   160  ILE160      0.2616
     61  O         80.1440   14.3340   20.9850 O.2   160  ILE160     -0.2715
     62  CB        81.6760   13.4240   18.6480 C.3   160  ILE160      0.0290
     63  CG1       81.9310   12.7730   17.2890 C.3   160  ILE160      0.0022
     64  CG2       82.9770   13.5210   19.4190 C.3   160  ILE160      0.0023
     65  CD1       83.0590   13.4170   16.5140 C.3   160  ILE160      0.0001
     66  N         80.7710   12.3640   21.8320 N.am  161  GLU161     -0.1963
     67  CA        80.8550   12.8680   23.1960 C.3   161  GLU161      0.1733
     68  C         82.3150   13.1190   23.5520 C.2   161  GLU161      0.2616
     69  O         82.6200   13.8310   24.5030 O.2   161  GLU161     -0.2715
     70  CB        80.2120   11.8870   24.1810 C.3   161  GLU161      0.0429
     71  CG        78.6980   11.7780   24.0350 C.3   161  GLU161      0.1163
     72  CD        78.0410   10.9400   25.1310 C.2   161  GLU161      0.3649
     73  OE1       78.7550   10.1840   25.8260 O.co2 161  GLU161     -0.2457
     74  OE2       76.8050   11.0220   25.2870 O.co2 161  GLU161     -0.2457
     75  N         83.2130   12.5410   22.7620 N.am  162  GLY162     -0.1955
     76  CA        84.6330   12.6090   23.0380 C.3   162  GLY162      0.1869
     77  C         85.2360   13.9300   22.6500 C.2   162  GLY162      0.2309
     78  O         85.9400   14.0220   21.6490 O.2   162  GLY162     -0.2863
@<TRIPOS>BOND
     1     9    10    2
     2     9     8    1
     3     7     8    1
     4    38    37    2
     5     8    11    1
     6    36    37    1
     7    36    35    1
     8    36    39    1
     9    11    12    1
    10     4     3    2
    11     3     2    1
    12    39    40    1
    13     1     2    1
    14    44    45    1
    15     2     5    1
    16    12    13    1
    17    13    14    1
    18    49    48    1
    19    40    41    1
    20    48    45    1
    21    48    50    1
    22    45    46    1
    23    42    41    1
    24    42    43    1
    25     5     6    1
    26    14    15    1
    27    47    46    2
    28    46    51   am
    29    30    29    2
    30    19    18    2
    31    29    28    1
    32    51    57    1
    33    51    52    1
    34    57    56    1
    35    65    63    1
    36    18    17    1
    37    18    27   am
    38    28    27    1
    39    28    31    1
    40    17    20    1
    41    17    16    1
    42    63    62    1
    43    52    55    1
    44    52    53    1
    45    20    21    1
    46    33    32    2
    47    56    55    1
    48    31    32    1
    49    53    58   am
    50    53    54    2
    51    32    34   am
    52    22    21   ar
    53    22    24   ar
    54    62    64    1
    55    62    59    1
    56    58    59    1
    57    21    23   ar
    58    59    60    1
    59    24    26   ar
    60    23    25   ar
    61    60    61    2
    62    60    66   am
    63    26    25   ar
    64    78    77    2
    65    66    67    1
    66    77    76    1
    67    75    76    1
    68    75    68   am
    69    67    68    1
    70    67    70    1
    71    68    69    2
    72    71    70    1
    73    71    72    1
    74    72    74   ar
    75    72    73   ar
