@<TRIPOS>MOLECULE
tmp/3hznA09.pdb
 81 81 0 0 0
SMALL
GASTEIGER

@<TRIPOS>ATOM
      1  N         68.2460    0.4430   10.0770 N.3     9  LEU9       -0.1231
      2  CA        69.1330   -0.7130    9.9430 C.3     9  LEU9        0.1693
      3  C         70.3890   -0.4030    9.1330 C.2     9  LEU9        0.2592
      4  O         71.3890   -1.1020    9.2540 O.2     9  LEU9       -0.2718
      5  CB        68.3940   -1.8990    9.3110 C.3     9  LEU9        0.0284
      6  CG        67.2050   -2.4330   10.1160 C.3     9  LEU9        0.0019
      7  CD1       66.5330   -3.5640    9.3710 C.3     9  LEU9        0.0001
      8  CD2       67.6610   -2.8920   11.4930 C.3     9  LEU9        0.0001
      9  N         70.3510    0.6470    8.3220 N.am   10  GLN10      -0.1966
     10  CA        71.4490    0.9080    7.3990 C.3    10  GLN10       0.1733
     11  C         72.3920    2.0090    7.8760 C.2    10  GLN10       0.2616
     12  O         73.4800    2.1550    7.3460 O.2    10  GLN10      -0.2715
     13  CB        70.9240    1.2410    5.9930 C.3    10  GLN10       0.0408
     14  CG        70.2530    0.0760    5.2590 C.3    10  GLN10       0.0908
     15  CD        71.2390   -1.0480    4.9370 C.2    10  GLN10       0.2608
     16  OE1       72.3620   -0.7940    4.4650 O.2    10  GLN10      -0.2717
     17  NE2       70.8230   -2.2990    5.1880 N.am   10  GLN10      -0.0878
     18  N         71.9840    2.7950    8.8640 N.am   11  ARG11      -0.1963
     19  CA        72.8530    3.8720    9.3290 C.3    11  ARG11       0.1729
     20  C         73.8980    3.3440   10.3090 C.2    11  ARG11       0.2616
     21  O         73.7680    2.2430   10.8690 O.2    11  ARG11      -0.2715
     22  CB        72.0530    5.0160    9.9550 C.3    11  ARG11       0.0348
     23  CG        71.3300    4.6750   11.2700 C.3    11  ARG11       0.0492
     24  CD        71.1570    5.9200   12.1700 C.3    11  ARG11       0.2205
     25  NE        72.4370    6.3860   12.7020 N.pl3  11  ARG11      -0.0865
     26  CZ        73.2040    5.6480   13.5030 C.cat  11  ARG11       0.5346
     27  NH1       72.8110    4.4200   13.8410 N.pl3  11  ARG11       0.1354
     28  NH2       74.3680    6.1120   13.9530 N.pl3  11  ARG11       0.1354
     29  N         74.9490    4.1280   10.4980 N.am   12  TYR12      -0.1974
     30  CA        76.0500    3.7500   11.3580 C.3    12  TYR12       0.1639
     31  C         76.8100    5.0360   11.6150 C.2    12  TYR12       0.2290
     32  O         76.5510    6.0400   10.9580 O.2    12  TYR12      -0.2864
     33  CB        76.9480    2.7330   10.6570 C.3    12  TYR12       0.0560
     34  CG        77.6080    3.2880    9.4240 C.ar   12  TYR12      -0.0198
     35  CD1       78.9060    3.7920    9.4750 C.ar   12  TYR12      -0.0009
     36  CD2       76.9260    3.3510    8.2150 C.ar   12  TYR12      -0.0009
     37  CE1       79.5070    4.3450    8.3540 C.ar   12  TYR12       0.0417
     38  CE2       77.5200    3.9010    7.0870 C.ar   12  TYR12       0.0417
     39  CZ        78.8070    4.3960    7.1700 C.ar   12  TYR12       0.1957
     40  OH        79.4050    4.9240    6.0560 O.3    12  TYR12      -0.2866
     41  N         83.9600    1.4270    9.1300 N.3   196  ASN196     -0.1225
     42  CA        82.7650    1.1140    9.8950 C.3   196  ASN196      0.1785
     43  C         81.5880    0.8200    8.9460 C.2   196  ASN196      0.2597
     44  O         80.6660    0.0770    9.2840 O.2   196  ASN196     -0.2718
     45  CB        82.4390    2.2380   10.8780 C.3   196  ASN196      0.1169
     46  CG        81.5830    1.7710   12.0400 C.2   196  ASN196      0.2627
     47  OD1       81.4810    0.5740   12.3130 O.2   196  ASN196     -0.2716
     48  ND2       80.9560    2.7150   12.7320 N.am  196  ASN196     -0.0877
     49  N         81.6460    1.3760    7.7410 N.am  197  ALA197     -0.1966
     50  CA        80.6340    1.1130    6.7270 C.3   197  ALA197      0.1728
     51  C         80.6320   -0.3410    6.2860 C.2   197  ALA197      0.2617
     52  O         79.6450   -0.8150    5.7390 O.2   197  ALA197     -0.2715
     53  CB        80.8430    2.0020    5.5250 C.3   197  ALA197      0.0334
     54  N         81.7380   -1.0450    6.5040 N.am  198  GLY198     -0.1940
     55  CA        81.8190   -2.4570    6.1400 C.3   198  GLY198      0.2014
     56  C         81.5300   -3.4310    7.2770 C.2   198  GLY198      0.2639
     57  O         81.5960   -4.6510    7.0890 O.2   198  GLY198     -0.2714
     58  N         81.2120   -2.9130    8.4590 N.am  199  LEU199     -0.1963
     59  CA        80.9190   -3.7650    9.6070 C.3   199  LEU199      0.1713
     60  C         79.4150   -3.9820    9.7700 C.2   199  LEU199      0.2458
     61  O         78.6250   -3.0900    9.5060 O.2   199  LEU199     -0.2730
     62  CB        81.4940   -3.1650   10.8940 C.3   199  LEU199      0.0310
     63  CG        83.0150   -2.9940   11.0090 C.3   199  LEU199      0.0022
     64  CD1       83.3920   -2.4680   12.4010 C.3   199  LEU199      0.0001
     65  CD2       83.7630   -4.2890   10.6990 C.3   199  LEU199      0.0001
     66  N         79.0080   -5.1640   10.2280 N.am  200  PRO200     -0.2716
     67  CA        77.5730   -5.2760   10.4870 C.3   200  PRO200      0.1536
     68  C         77.1980   -4.5360   11.7660 C.2   200  PRO200      0.2598
     69  O         78.0520   -4.3160   12.6300 O.2   200  PRO200     -0.2715
     70  CB        77.3470   -6.7840   10.6550 C.3   200  PRO200      0.0310
     71  CG        78.7070   -7.3630   10.9990 C.3   200  PRO200      0.0237
     72  CD        79.7700   -6.3730   10.5890 C.3   200  PRO200      0.0939
     73  N         75.9300   -4.1450   11.8780 N.am  201  LYS201     -0.1978
     74  CA        75.4460   -3.5000   13.1020 C.3   201  LYS201      0.1596
     75  C         75.3290   -4.5230   14.2170 C.2   201  LYS201      0.2287
     76  O         75.1280   -5.7150   13.9620 O.2   201  LYS201     -0.2864
     77  CB        74.1080   -2.8100   12.8680 C.3   201  LYS201      0.0298
     78  CG        74.1560   -1.7310   11.7920 C.3   201  LYS201      0.0038
     79  CD        72.9130   -0.8620   11.8670 C.3   201  LYS201      0.0206
     80  CE        72.8930   -0.0540   13.1570 C.3   201  LYS201      0.1093
     81  NZ        74.0370    0.9160   13.2360 N.3   201  LYS201     -0.1314
@<TRIPOS>BOND
     1    16    15    2
     2    15    17   am
     3    15    14    1
     4    14    13    1
     5    53    50    1
     6    52    51    2
     7    13    10    1
     8    40    39    1
     9    55    54    1
    10    55    56    1
    11    51    54   am
    12    51    50    1
    13    50    49    1
    14    38    39   ar
    15    38    36   ar
    16    57    56    2
    17    39    37   ar
    18    56    58   am
    19    12    11    2
    20    10    11    1
    21    10     9    1
    22    49    43   am
    23    11    18   am
    24    36    34   ar
    25     9     3   am
    26    37    35   ar
    27    58    59    1
    28    18    19    1
    29    43    44    2
    30    43    42    1
    31    41    42    1
    32     3     4    2
    33     3     2    1
    34     5     2    1
    35     5     6    1
    36    19    22    1
    37    19    20    1
    38     7     6    1
    39    34    35   ar
    40    34    33    1
    41    61    60    2
    42    59    60    1
    43    59    62    1
    44    60    66   am
    45    42    45    1
    46     2     1    1
    47    22    23    1
    48     6     8    1
    49    66    67    1
    50    66    72    1
    51    20    29   am
    52    20    21    2
    53    67    70    1
    54    67    68    1
    55    29    30    1
    56    72    71    1
    57    70    71    1
    58    33    30    1
    59    65    63    1
    60    45    46    1
    61    62    63    1
    62    32    31    2
    63    63    64    1
    64    23    24    1
    65    30    31    1
    66    68    73   am
    67    68    69    2
    68    78    79    1
    69    78    77    1
    70    79    80    1
    71    73    74    1
    72    46    47    2
    73    46    48   am
    74    24    25    1
    75    25    26    2
    76    77    74    1
    77    74    75    1
    78    80    81    1
    79    26    27    1
    80    26    28    1
    81    76    75    2
