@<TRIPOS>MOLECULE
tmp/3hznD02.pdb
 79 75 0 0 0
SMALL
GASTEIGER

@<TRIPOS>ATOM
      1  N         18.1430   46.3430   -9.9110 N.3     7  VAL7       -0.1245
      2  CA        18.2410   45.2700   -8.9360 C.3     7  VAL7        0.1561
      3  C         18.1310   45.8300   -7.5250 C.2     7  VAL7        0.2260
      4  O         17.4270   45.2780   -6.6880 O.2     7  VAL7       -0.2867
      5  CB        19.5560   44.5120   -9.0840 C.3     7  VAL7        0.0252
      6  CG1       19.7620   43.5800   -7.9060 C.3     7  VAL7        0.0019
      7  CG2       19.5440   43.7510  -10.3870 C.3     7  VAL7        0.0019
      8  N         14.6010   46.6390   -6.7730 N.3    10  GLN10      -0.1231
      9  CA        13.7210   45.4690   -6.6340 C.3    10  GLN10       0.1698
     10  C         13.9110   44.7540   -5.2980 C.2    10  GLN10       0.2592
     11  O         12.9470   44.3400   -4.6900 O.2    10  GLN10      -0.2718
     12  CB        13.9440   44.4540   -7.7600 C.3    10  GLN10       0.0381
     13  CG        13.5690   44.9400   -9.1590 C.3    10  GLN10       0.0905
     14  CD        12.0620   44.8980   -9.4400 C.2    10  GLN10       0.2608
     15  OE1       11.5190   45.7970  -10.0780 O.2    10  GLN10      -0.2717
     16  NE2       11.3890   43.8580   -8.9620 N.am   10  GLN10      -0.0878
     17  N         15.1500   44.5720   -4.8460 N.am   11  ARG11      -0.1966
     18  CA        15.3750   43.8210   -3.6040 C.3    11  ARG11       0.1729
     19  C         14.6450   44.4660   -2.4370 C.2    11  ARG11       0.2616
     20  O         14.3350   45.6530   -2.4640 O.2    11  ARG11      -0.2715
     21  CB        16.8560   43.7220   -3.2710 C.3    11  ARG11       0.0348
     22  CG        17.5040   45.0530   -2.9920 C.3    11  ARG11       0.0492
     23  CD        18.6510   44.9560   -1.9780 C.3    11  ARG11       0.2205
     24  NE        18.2230   44.3700   -0.7070 N.pl3  11  ARG11      -0.0865
     25  CZ        17.5460   45.0180    0.2470 C.cat  11  ARG11       0.5346
     26  NH1       17.1930   46.2980    0.0930 N.pl3  11  ARG11       0.1354
     27  NH2       17.2180   44.3850    1.3680 N.pl3  11  ARG11       0.1354
     28  N         14.3780   43.6830   -1.4060 N.am   12  TYR12      -0.1974
     29  CA        13.7430   44.2030   -0.2150 C.3    12  TYR12       0.1639
     30  C         14.0930   43.2430    0.9140 C.2    12  TYR12       0.2290
     31  O         14.7160   42.1940    0.6660 O.2    12  TYR12      -0.2864
     32  CB        12.2350   44.2780   -0.4210 C.3    12  TYR12       0.0560
     33  CG        11.5510   42.9440   -0.2820 C.ar   12  TYR12      -0.0198
     34  CD1       10.7400   42.6730    0.8150 C.ar   12  TYR12      -0.0009
     35  CD2       11.7200   41.9470   -1.2430 C.ar   12  TYR12      -0.0009
     36  CE1       10.1050   41.4430    0.9540 C.ar   12  TYR12       0.0417
     37  CE2       11.0990   40.7190   -1.1070 C.ar   12  TYR12       0.0417
     38  CZ        10.3010   40.4700   -0.0020 C.ar   12  TYR12       0.1957
     39  OH         9.6720   39.2560    0.1390 O.3    12  TYR12      -0.2866
     40  N         20.7150   39.4410   -4.5140 N.3   152  ALA152     -0.1245
     41  CA        19.5490   40.0100   -5.1960 C.3   152  ALA152      0.1562
     42  C         19.7620   39.9200   -6.7140 C.2   152  ALA152      0.2260
     43  O         18.8730   39.4970   -7.4600 O.2   152  ALA152     -0.2867
     44  CB        19.2970   41.4430   -4.7700 C.3   152  ALA152      0.0290
     45  N         18.7960   36.9350   -8.2990 N.3   154  GLY154     -0.1210
     46  CA        17.3680   36.6410   -8.2670 C.3   154  GLY154      0.1956
     47  C         16.9100   35.9850   -6.9690 C.2   154  GLY154      0.2612
     48  O         15.8130   35.4410   -6.8970 O.2   154  GLY154     -0.2717
     49  N         17.7510   36.0280   -5.9430 N.am  155  LEU155     -0.1965
     50  CA        17.4130   35.4510   -4.6670 C.3   155  LEU155      0.1728
     51  C         16.8220   36.4820   -3.7120 C.2   155  LEU155      0.2616
     52  O         17.0950   37.6770   -3.8100 O.2   155  LEU155     -0.2715
     53  CB        18.6540   34.8290   -4.0200 C.3   155  LEU155      0.0311
     54  CG        19.3300   33.7050   -4.8020 C.3   155  LEU155      0.0022
     55  CD1       20.6150   33.2880   -4.1140 C.3   155  LEU155      0.0001
     56  CD2       18.4090   32.5130   -4.9220 C.3   155  LEU155      0.0001
     57  N         16.0190   36.0010   -2.7740 N.am  156  ASP156     -0.1971
     58  CA        15.5640   36.8180   -1.6700 C.3   156  ASP156      0.1709
     59  C         16.4440   36.5660   -0.4580 C.2   156  ASP156      0.2293
     60  O         17.0300   35.4870   -0.3110 O.2   156  ASP156     -0.2864
     61  CB        14.1230   36.4730   -1.3480 C.3   156  ASP156      0.1436
     62  CG        13.1700   36.8540   -2.4800 C.2   156  ASP156      0.3671
     63  OD1       13.3470   37.9510   -3.0730 O.co2 156  ASP156     -0.2456
     64  OD2       12.2420   36.0570   -2.7670 O.co2 156  ASP156     -0.2456
     65  N         11.0250   34.2410   -1.3330 N.3   190  HIS190     -0.1241
     66  CA        10.0190   34.7030   -0.3910 C.3   190  HIS190      0.1621
     67  C          8.7290   33.9450   -0.6160 C.2   190  HIS190      0.2264
     68  O          8.4640   33.5050   -1.7280 O.2   190  HIS190     -0.2867
     69  CB         9.7760   36.2040   -0.5560 C.3   190  HIS190      0.0745
     70  CG         9.0500   36.5570   -1.8100 C.ar  190  HIS190      0.0817
     71  ND1        9.7020   36.9100   -2.9710 N.ar  190  HIS190     -0.2268
     72  CD2        7.7240   36.6060   -2.0920 C.ar  190  HIS190      0.1154
     73  CE1        8.8100   37.1760   -3.9120 C.ar  190  HIS190      0.1986
     74  NE2        7.6030   36.9960   -3.4050 N.ar  190  HIS190     -0.2212
     75  N          7.0660   42.0940   -0.6700 N.3   197  ALA197     -0.1245
     76  CA         7.7410   41.9520   -1.9630 C.3   197  ALA197      0.1562
     77  C          7.2750   42.9910   -2.9970 C.2   197  ALA197      0.2260
     78  O          8.0050   43.3170   -3.9340 O.2   197  ALA197     -0.2867
     79  CB         7.5690   40.5320   -2.5050 C.3   197  ALA197      0.0290
@<TRIPOS>BOND
     1     7     5    1
     2    15    14    2
     3     1     2    1
     4    14    13    1
     5    14    16   am
     6    13    12    1
     7     5     2    1
     8     5     6    1
     9     2     3    1
    10    45    46    1
    11    46    47    1
    12    12     9    1
    13     3     4    2
    14    43    42    2
    15    47    48    2
    16    47    49   am
    17     8     9    1
    18    42    41    1
    19     9    10    1
    20    49    50    1
    21    10    17   am
    22    10    11    2
    23    41    44    1
    24    41    40    1
    25    56    54    1
    26    17    18    1
    27    54    55    1
    28    54    53    1
    29    50    53    1
    30    50    51    1
    31    78    77    2
    32    73    74   ar
    33    73    71   ar
    34    52    51    2
    35    51    57   am
    36    18    21    1
    37    18    19    1
    38    74    72   ar
    39    21    22    1
    40    63    62   ar
    41    77    76    1
    42    22    23    1
    43    71    70   ar
    44    57    58    1
    45    64    62   ar
    46    79    76    1
    47    62    61    1
    48    20    19    2
    49    19    28   am
    50    72    70   ar
    51    23    24    1
    52    76    75    1
    53    70    69    1
    54    68    67    2
    55    58    61    1
    56    58    59    1
    57    28    29    1
    58    65    66    1
    59    35    37   ar
    60    35    33   ar
    61    37    38   ar
    62    24    25    2
    63    67    66    1
    64    69    66    1
    65    59    60    2
    66    32    33    1
    67    32    29    1
    68    33    34   ar
    69    29    30    1
    70    38    39    1
    71    38    36   ar
    72    26    25    1
    73    25    27    1
    74    31    30    2
    75    34    36   ar
