@<TRIPOS>MOLECULE
tmp/3hznD11.pdb
 91 89 0 0 0
SMALL
GASTEIGER

@<TRIPOS>ATOM
      1  N         15.1500   44.5720   -4.8460 N.3    11  ARG11      -0.1231
      2  CA        15.3750   43.8210   -3.6040 C.3    11  ARG11       0.1694
      3  C         14.6450   44.4660   -2.4370 C.2    11  ARG11       0.2592
      4  O         14.3350   45.6530   -2.4640 O.2    11  ARG11      -0.2718
      5  CB        16.8560   43.7220   -3.2710 C.3    11  ARG11       0.0321
      6  CG        17.5040   45.0530   -2.9920 C.3    11  ARG11       0.0489
      7  CD        18.6510   44.9560   -1.9780 C.3    11  ARG11       0.2205
      8  NE        18.2230   44.3700   -0.7070 N.pl3  11  ARG11      -0.0865
      9  CZ        17.5460   45.0180    0.2470 C.cat  11  ARG11       0.5346
     10  NH1       17.1930   46.2980    0.0930 N.pl3  11  ARG11       0.1354
     11  NH2       17.2180   44.3850    1.3680 N.pl3  11  ARG11       0.1354
     12  N         14.3780   43.6830   -1.4060 N.am   12  TYR12      -0.1962
     13  CA        13.7430   44.2030   -0.2150 C.3    12  TYR12       0.1771
     14  C         14.0930   43.2430    0.9140 C.2    12  TYR12       0.2620
     15  O         14.7160   42.1940    0.6660 O.2    12  TYR12      -0.2715
     16  CB        12.2350   44.2780   -0.4210 C.3    12  TYR12       0.0574
     17  CG        11.5510   42.9440   -0.2820 C.ar   12  TYR12      -0.0198
     18  CD1       10.7400   42.6730    0.8150 C.ar   12  TYR12      -0.0009
     19  CD2       11.7200   41.9470   -1.2430 C.ar   12  TYR12      -0.0009
     20  CE1       10.1050   41.4430    0.9540 C.ar   12  TYR12       0.0417
     21  CE2       11.0990   40.7190   -1.1070 C.ar   12  TYR12       0.0417
     22  CZ        10.3010   40.4700   -0.0020 C.ar   12  TYR12       0.1957
     23  OH         9.6720   39.2560    0.1390 O.3    12  TYR12      -0.2866
     24  N         13.7280   43.6060    2.1430 N.am   13  SER13      -0.1936
     25  CA        13.9960   42.7670    3.3030 C.3    13  SER13       0.2055
     26  C         12.8800   41.7640    3.4670 C.2    13  SER13       0.2643
     27  O         11.7910   42.1070    3.9210 O.2    13  SER13      -0.2714
     28  CB        14.1050   43.6090    4.5740 C.3    13  SER13       0.2130
     29  OG        15.2620   44.4160    4.5140 O.3    13  SER13      -0.2179
     30  N         13.1660   40.5220    3.1000 N.am   14  THR14      -0.1950
     31  CA        12.1780   39.4630    3.0830 C.3    14  THR14       0.1897
     32  C         11.6350   39.1990    4.4700 C.2    14  THR14       0.2313
     33  O         12.4000   39.0930    5.4250 O.2    14  THR14      -0.2863
     34  CB        12.7860   38.1840    2.5080 C.3    14  THR14       0.1794
     35  OG1       13.3200   38.4820    1.2170 O.3    14  THR14      -0.2208
     36  CG2       11.7250   37.0840    2.3670 C.3    14  THR14       0.0378
     37  N         24.1270   41.1720    0.2130 N.3   148  LEU148     -0.1245
     38  CA        22.7210   41.4410   -0.0380 C.3   148  LEU148      0.1561
     39  C         22.4900   41.8640   -1.4790 C.2   148  LEU148      0.2260
     40  O         21.5640   41.4010   -2.1280 O.2   148  LEU148     -0.2867
     41  CB        22.1860   42.5110    0.9070 C.3   148  LEU148      0.0270
     42  CG        22.1690   42.0420    2.3590 C.3   148  LEU148      0.0019
     43  CD1       21.6190   43.1250    3.2740 C.3   148  LEU148      0.0001
     44  CD2       21.4010   40.7180    2.5390 C.3   148  LEU148      0.0001
     45  N         23.2450   38.6220   -3.8310 N.3   151  VAL151     -0.1231
     46  CA        22.2280   37.5870   -3.9720 C.3   151  VAL151      0.1692
     47  C         20.9920   38.1420   -4.6680 C.2   151  VAL151      0.2591
     48  O         20.2950   37.3960   -5.3550 O.2   151  VAL151     -0.2718
     49  CB        21.8540   36.8920   -2.6500 C.3   151  VAL151      0.0266
     50  CG1       23.0950   36.2850   -1.9980 C.3   151  VAL151      0.0020
     51  CG2       21.1490   37.8500   -1.7010 C.3   151  VAL151      0.0020
     52  N         20.7150   39.4410   -4.5140 N.am  152  ALA152     -0.1980
     53  CA        19.5490   40.0100   -5.1960 C.3   152  ALA152      0.1597
     54  C         19.7620   39.9200   -6.7140 C.2   152  ALA152      0.2287
     55  O         18.8730   39.4970   -7.4600 O.2   152  ALA152     -0.2864
     56  CB        19.2970   41.4430   -4.7700 C.3   152  ALA152      0.0319
     57  N         17.7510   36.0280   -5.9430 N.3   155  LEU155     -0.1231
     58  CA        17.4130   35.4510   -4.6670 C.3   155  LEU155      0.1693
     59  C         16.8220   36.4820   -3.7120 C.2   155  LEU155      0.2592
     60  O         17.0950   37.6770   -3.8100 O.2   155  LEU155     -0.2718
     61  CB        18.6540   34.8290   -4.0200 C.3   155  LEU155      0.0284
     62  CG        19.3300   33.7050   -4.8020 C.3   155  LEU155      0.0019
     63  CD1       20.6150   33.2880   -4.1140 C.3   155  LEU155      0.0001
     64  CD2       18.4090   32.5130   -4.9220 C.3   155  LEU155      0.0001
     65  N         16.0190   36.0010   -2.7740 N.am  156  ASP156     -0.1960
     66  CA        15.5640   36.8180   -1.6700 C.3   156  ASP156      0.1840
     67  C         16.4440   36.5660   -0.4580 C.2   156  ASP156      0.2622
     68  O         17.0300   35.4870   -0.3110 O.2   156  ASP156     -0.2715
     69  CB        14.1230   36.4730   -1.3480 C.3   156  ASP156      0.1450
     70  CG        13.1700   36.8540   -2.4800 C.2   156  ASP156      0.3671
     71  OD1       13.3470   37.9510   -3.0730 O.co2 156  ASP156     -0.2456
     72  OD2       12.2420   36.0570   -2.7670 O.co2 156  ASP156     -0.2456
     73  N         16.5430   37.5720    0.3950 N.am  157  ALA157     -0.1963
     74  CA        17.3940   37.5300    1.5790 C.3   157  ALA157      0.1728
     75  C         16.9710   38.6550    2.5310 C.2   157  ALA157      0.2616
     76  O         16.1710   39.4990    2.1640 O.2   157  ALA157     -0.2715
     77  CB        18.8570   37.6720    1.1780 C.3   157  ALA157      0.0334
     78  N         17.4650   38.6100    3.7680 N.am  158  VAL158     -0.1964
     79  CA        17.2230   39.6520    4.7640 C.3   158  VAL158      0.1712
     80  C         18.3010   39.6220    5.8420 C.2   158  VAL158      0.2458
     81  O         18.6190   38.5550    6.3780 O.2   158  VAL158     -0.2730
     82  CB        15.8560   39.4770    5.4540 C.3   158  VAL158      0.0289
     83  CG1       15.7630   38.1240    6.1410 C.3   158  VAL158      0.0023
     84  CG2       15.6320   40.5920    6.4570 C.3   158  VAL158      0.0023
     85  N         18.8700   40.7860    6.1760 N.am  159  PRO159     -0.2727
     86  CA        19.8410   40.8140    7.2830 C.3   159  PRO159      0.1402
     87  C         19.1330   40.8140    8.6370 C.2   159  PRO159      0.2269
     88  O         18.1660   41.5390    8.8310 O.2   159  PRO159     -0.2865
     89  CB        20.5840   42.1350    7.0680 C.3   159  PRO159      0.0296
     90  CG        19.5770   43.0200    6.3510 C.3   159  PRO159      0.0237
     91  CD        18.7190   42.0980    5.5180 C.3   159  PRO159      0.0939
@<TRIPOS>BOND
     1    55    54    2
     2    54    53    1
     3    57    58    1
     4    48    47    2
     5    53    56    1
     6    53    52    1
     7    64    62    1
     8     1     2    1
     9    62    63    1
    10    62    61    1
    11    47    52   am
    12    47    46    1
    13    58    61    1
    14    58    59    1
    15    46    45    1
    16    46    49    1
    17    60    59    2
    18    59    65   am
    19     2     5    1
    20     2     3    1
    21     5     6    1
    22    71    70   ar
    23     6     7    1
    24    65    66    1
    25    72    70   ar
    26    49    50    1
    27    49    51    1
    28    70    69    1
    29     4     3    2
    30     3    12   am
    31    40    39    2
    32     7     8    1
    33    66    69    1
    34    66    67    1
    35    39    38    1
    36    12    13    1
    37    19    21   ar
    38    19    17   ar
    39    21    22   ar
    40     8     9    2
    41    67    68    2
    42    67    73   am
    43    16    17    1
    44    16    13    1
    45    17    18   ar
    46    13    14    1
    47    38    37    1
    48    38    41    1
    49    22    23    1
    50    22    20   ar
    51    10     9    1
    52     9    11    1
    53    73    74    1
    54    15    14    2
    55    18    20   ar
    56    41    42    1
    57    14    24   am
    58    77    74    1
    59    35    34    1
    60    74    75    1
    61    24    25    1
    62    76    75    2
    63    42    44    1
    64    42    43    1
    65    36    34    1
    66    34    31    1
    67    75    78   am
    68    31    30    1
    69    31    32    1
    70    30    26   am
    71    25    26    1
    72    25    28    1
    73    26    27    2
    74    78    79    1
    75    32    33    2
    76    29    28    1
    77    79    82    1
    78    79    80    1
    79    82    83    1
    80    82    84    1
    81    91    85    1
    82    91    90    1
    83    80    85   am
    84    80    81    2
    85    85    86    1
    86    90    89    1
    87    89    86    1
    88    86    87    1
    89    87    88    2
