@<TRIPOS>MOLECULE
tmp/3hznD06.pdb
 78 75 0 0 0
SMALL
GASTEIGER

@<TRIPOS>ATOM
      1  N         13.7280   43.6060    2.1430 N.3    13  SER13      -0.1217
      2  CA        13.9960   42.7670    3.3030 C.3    13  SER13       0.1889
      3  C         12.8800   41.7640    3.4670 C.2    13  SER13       0.2288
      4  O         11.7910   42.1070    3.9210 O.2    13  SER13      -0.2866
      5  CB        14.1050   43.6090    4.5740 C.3    13  SER13       0.2089
      6  OG        15.2620   44.4160    4.5140 O.3    13  SER13      -0.2183
      7  N         10.3130   39.1060    4.5800 N.3    15  LYS15      -0.1245
      8  CA         9.6800   38.8810    5.8720 C.3    15  LYS15       0.1561
      9  C          9.3060   37.4210    6.0850 C.2    15  LYS15       0.2260
     10  O          9.1740   36.9770    7.2300 O.2    15  LYS15      -0.2867
     11  CB         8.4470   39.7640    6.0320 C.3    15  LYS15       0.0271
     12  CG         8.7650   41.2600    6.0150 C.3    15  LYS15       0.0035
     13  CD         9.5740   41.6750    7.2480 C.3    15  LYS15       0.0206
     14  CE        10.2120   43.0410    7.0400 C.3    15  LYS15       0.1093
     15  NZ        10.9730   43.5150    8.2250 N.3    15  LYS15      -0.1314
     16  N         10.4330   36.4360   16.7520 N.3    71  PHE71      -0.1227
     17  CA         9.8200   36.9900   15.5310 C.3    71  PHE71       0.1736
     18  C         10.6830   36.7080   14.2770 C.2    71  PHE71       0.2595
     19  O         10.2150   36.8620   13.1370 O.2    71  PHE71      -0.2718
     20  CB         9.5080   38.4910   15.6700 C.3    71  PHE71       0.0547
     21  CG        10.6740   39.3120   16.1450 C.ar   71  PHE71      -0.0202
     22  CD1       11.6080   39.7880   15.2510 C.ar   71  PHE71      -0.0042
     23  CD2       10.8410   39.5900   17.4940 C.ar   71  PHE71      -0.0042
     24  CE1       12.6830   40.5260   15.6910 C.ar   71  PHE71      -0.0003
     25  CE2       11.9110   40.3160   17.9400 C.ar   71  PHE71      -0.0003
     26  CZ        12.8390   40.7830   17.0390 C.ar   71  PHE71      -0.0000
     27  N         11.9360   36.2930   14.4900 N.am   72  ASN72      -0.1974
     28  CA        12.8390   35.9700   13.3840 C.3    72  ASN72       0.1688
     29  C         13.0460   34.4800   13.2120 C.2    72  ASN72       0.2292
     30  O         13.7620   34.0610   12.3130 O.2    72  ASN72      -0.2864
     31  CB        14.2170   36.6010   13.5720 C.3    72  ASN72       0.1181
     32  CG        14.2110   38.1330   13.4600 C.2    72  ASN72       0.2629
     33  OD1       14.9850   38.8090   14.1380 O.2    72  ASN72      -0.2716
     34  ND2       13.3790   38.6670   12.5950 N.am   72  ASN72      -0.0877
     35  N         12.0500   32.8550    9.6210 N.3    75  LYS75      -0.1245
     36  CA        12.9510   33.1800    8.5180 C.3    75  LYS75       0.1561
     37  C         14.1510   32.2580    8.5590 C.2    75  LYS75       0.2260
     38  O         14.6370   31.7900    7.5300 O.2    75  LYS75      -0.2867
     39  CB        13.4870   34.6030    8.6560 C.3    75  LYS75       0.0271
     40  CG        12.4900   35.7400    8.5080 C.3    75  LYS75       0.0035
     41  CD        13.2130   37.0180    8.8920 C.3    75  LYS75       0.0206
     42  CE        12.2810   38.1490    9.1920 C.3    75  LYS75       0.1093
     43  NZ        13.0940   39.3720    9.5380 N.3    75  LYS75      -0.1314
     44  N         17.4650   38.6100    3.7680 N.3   158  VAL158     -0.1231
     45  CA        17.2230   39.6520    4.7640 C.3   158  VAL158      0.1678
     46  C         18.3010   39.6220    5.8420 C.2   158  VAL158      0.2434
     47  O         18.6190   38.5550    6.3780 O.2   158  VAL158     -0.2733
     48  CB        15.8560   39.4770    5.4540 C.3   158  VAL158      0.0265
     49  CG1       15.7630   38.1240    6.1410 C.3   158  VAL158      0.0020
     50  CG2       15.6320   40.5920    6.4570 C.3   158  VAL158      0.0020
     51  N         18.8700   40.7860    6.1760 N.am  159  PRO159     -0.2718
     52  CA        19.8410   40.8140    7.2830 C.3   159  PRO159      0.1535
     53  C         19.1330   40.8140    8.6370 C.2   159  PRO159      0.2598
     54  O         18.1660   41.5390    8.8310 O.2   159  PRO159     -0.2715
     55  CB        20.5840   42.1350    7.0680 C.3   159  PRO159      0.0310
     56  CG        19.5770   43.0200    6.3510 C.3   159  PRO159      0.0237
     57  CD        18.7190   42.0980    5.5180 C.3   159  PRO159      0.0939
     58  N         19.6000   40.0000    9.5690 N.am  160  ILE160     -0.1964
     59  CA        18.9980   39.9240   10.8860 C.3   160  ILE160      0.1727
     60  C         20.0230   40.2810   11.9520 C.2   160  ILE160      0.2616
     61  O         21.1150   39.7130   12.0090 O.2   160  ILE160     -0.2715
     62  CB        18.4830   38.5180   11.1510 C.3   160  ILE160      0.0290
     63  CG1       17.2800   38.2180   10.2540 C.3   160  ILE160      0.0022
     64  CG2       18.1250   38.3190   12.6180 C.3   160  ILE160      0.0023
     65  CD1       16.9150   36.7350   10.2570 C.3   160  ILE160      0.0001
     66  N         19.6770   41.2400   12.7890 N.am  161  GLU161     -0.1963
     67  CA        20.5220   41.5930   13.9180 C.3   161  GLU161      0.1733
     68  C         19.7710   41.1810   15.1740 C.2   161  GLU161      0.2616
     69  O         20.3140   41.1710   16.2540 O.2   161  GLU161     -0.2715
     70  CB        20.7670   43.1060   13.9530 C.3   161  GLU161      0.0429
     71  CG        21.5320   43.6990   12.7530 C.3   161  GLU161      0.1163
     72  CD        21.8410   45.2120   12.9650 C.2   161  GLU161      0.3649
     73  OE1       21.0950   45.8770   13.7410 O.co2 161  GLU161     -0.2457
     74  OE2       22.8250   45.7280   12.3710 O.co2 161  GLU161     -0.2457
     75  N         18.4930   40.8760   15.0300 N.am  162  GLY162     -0.1955
     76  CA        17.7300   40.4080   16.1640 C.3   162  GLY162      0.1869
     77  C         17.9320   38.9170   16.3500 C.2   162  GLY162      0.2309
     78  O         17.1660   38.1060   15.8440 O.2   162  GLY162     -0.2863
@<TRIPOS>BOND
     1     1     2    1
     2     2     3    1
     3     2     5    1
     4     3     4    2
     5    44    45    1
     6     6     5    1
     7     7     8    1
     8    45    48    1
     9    45    46    1
    10    48    49    1
    11    48    50    1
    12    57    51    1
    13    57    56    1
    14    46    51   am
    15    46    47    2
    16     8    11    1
    17     8     9    1
    18    12    11    1
    19    12    13    1
    20     9    10    2
    21    51    52    1
    22    56    55    1
    23    14    13    1
    24    14    15    1
    25    55    52    1
    26    52    53    1
    27    38    37    2
    28    40    39    1
    29    40    41    1
    30    36    37    1
    31    36    39    1
    32    36    35    1
    33    53    54    2
    34    53    58   am
    35    41    42    1
    36    42    43    1
    37    58    59    1
    38    63    65    1
    39    63    62    1
    40    59    62    1
    41    59    60    1
    42    62    64    1
    43    60    61    2
    44    60    66   am
    45    30    29    2
    46    74    72   ar
    47    34    32   am
    48    71    72    1
    49    71    70    1
    50    66    67    1
    51    72    73   ar
    52    19    18    2
    53    29    28    1
    54    28    31    1
    55    28    27    1
    56    32    31    1
    57    32    33    2
    58    67    70    1
    59    67    68    1
    60    18    27   am
    61    18    17    1
    62    75    68   am
    63    75    76    1
    64    68    69    2
    65    22    24   ar
    66    22    21   ar
    67    17    20    1
    68    17    16    1
    69    20    21    1
    70    24    26   ar
    71    78    77    2
    72    21    23   ar
    73    76    77    1
    74    26    25   ar
    75    23    25   ar
