@<TRIPOS>MOLECULE
tmp/3hznF02.pdb
 87 85 0 0 0
SMALL
GASTEIGER

@<TRIPOS>ATOM
      1  N        -15.4950   46.8530   22.7090 N.3    11  ARG11      -0.1231
      2  CA       -14.4580   47.8420   22.9670 C.3    11  ARG11       0.1694
      3  C        -13.1010   47.3480   22.4780 C.2    11  ARG11       0.2592
      4  O        -12.8530   46.1290   22.3880 O.2    11  ARG11      -0.2718
      5  CB       -14.3930   48.1890   24.4450 C.3    11  ARG11       0.0321
      6  CG       -13.9570   47.0450   25.3390 C.3    11  ARG11       0.0489
      7  CD       -13.2160   47.6020   26.5600 C.3    11  ARG11       0.2205
      8  NE       -12.0800   48.4320   26.1510 N.pl3  11  ARG11      -0.0865
      9  CZ       -10.9560   47.9310   25.6340 C.cat  11  ARG11       0.5346
     10  NH1      -10.8280   46.6150   25.4750 N.pl3  11  ARG11       0.1354
     11  NH2       -9.9660   48.7380   25.2700 N.pl3  11  ARG11       0.1354
     12  N        -12.2240   48.2960   22.1600 N.am   12  TYR12      -0.1962
     13  CA       -10.9030   47.9880   21.6380 C.3    12  TYR12       0.1771
     14  C         -9.9950   49.1840   21.9190 C.2    12  TYR12       0.2620
     15  O        -10.4740   50.2390   22.3380 O.2    12  TYR12      -0.2715
     16  CB       -10.9950   47.6690   20.1390 C.3    12  TYR12       0.0574
     17  CG       -11.0470   48.8740   19.2600 C.ar   12  TYR12      -0.0198
     18  CD1       -9.9210   49.2730   18.5460 C.ar   12  TYR12      -0.0009
     19  CD2      -12.2110   49.6480   19.1600 C.ar   12  TYR12      -0.0009
     20  CE1       -9.9450   50.4040   17.7420 C.ar   12  TYR12       0.0417
     21  CE2      -12.2480   50.7800   18.3520 C.ar   12  TYR12       0.0417
     22  CZ       -11.1070   51.1500   17.6540 C.ar   12  TYR12       0.1957
     23  OH       -11.1060   52.2570   16.8570 O.3    12  TYR12      -0.2866
     24  N         -8.6870   49.0210   21.7400 N.am   13  SER13      -0.1950
     25  CA        -7.7570   50.1430   21.9400 C.3    13  SER13       0.1924
     26  C         -7.6780   50.9190   20.6620 C.2    13  SER13       0.2314
     27  O         -6.9890   50.5070   19.7170 O.2    13  SER13      -0.2863
     28  CB        -6.3350   49.6810   22.3200 C.3    13  SER13       0.2116
     29  OG        -6.3690   48.7680   23.4010 O.3    13  SER13      -0.2180
     30  N         -6.7510   53.2320   17.7970 N.3    15  LYS15      -0.1245
     31  CA        -5.4640   53.6040   17.2330 C.3    15  LYS15       0.1561
     32  C         -5.5030   54.9750   16.5440 C.2    15  LYS15       0.2260
     33  O         -4.4630   55.6010   16.3520 O.2    15  LYS15      -0.2867
     34  CB        -4.9800   52.5320   16.2560 C.3    15  LYS15       0.0271
     35  CG        -4.8830   51.1180   16.8690 C.3    15  LYS15       0.0035
     36  CD        -3.8920   51.0440   18.0540 C.3    15  LYS15       0.0206
     37  CE        -3.6090   49.5820   18.4130 C.3    15  LYS15       0.1093
     38  NZ        -2.5700   49.3920   19.4670 N.3    15  LYS15      -0.1314
     39  N         -8.5660   49.0440   12.8770 N.3   196  ASN196     -0.1240
     40  CA        -8.5190   48.1680   14.0580 C.3   196  ASN196      0.1653
     41  C         -9.8620   48.0040   14.7640 C.2   196  ASN196      0.2266
     42  O        -10.0590   47.0730   15.5360 O.2   196  ASN196     -0.2867
     43  CB        -7.4660   48.6660   15.0710 C.3   196  ASN196      0.1155
     44  CG        -6.1270   47.9360   14.9460 C.2   196  ASN196      0.2627
     45  OD1       -5.5960   47.4330   15.9370 O.2   196  ASN196     -0.2716
     46  ND2       -5.5840   47.8700   13.7300 N.am  196  ASN196     -0.0877
     47  N        -11.4470   44.5940   13.6330 N.3   199  LEU199     -0.1231
     48  CA       -10.6710   43.3700   13.7370 C.3   199  LEU199      0.1678
     49  C        -11.2380   42.4590   14.8200 C.2   199  LEU199      0.2434
     50  O        -11.8180   42.9220   15.7880 O.2   199  LEU199     -0.2733
     51  CB        -9.2090   43.6910   14.0400 C.3   199  LEU199      0.0284
     52  CG        -8.3770   44.3120   12.9090 C.3   199  LEU199      0.0019
     53  CD1       -6.9380   44.6080   13.3760 C.3   199  LEU199      0.0001
     54  CD2       -8.3640   43.4520   11.6590 C.3   199  LEU199      0.0001
     55  N        -11.0480   41.1540   14.6660 N.am  200  PRO200     -0.2718
     56  CA       -11.5070   40.2360   15.7030 C.3   200  PRO200      0.1535
     57  C        -10.7320   40.5060   16.9840 C.2   200  PRO200      0.2598
     58  O         -9.5630   40.8720   16.9220 O.2   200  PRO200     -0.2715
     59  CB       -11.1420   38.8480   15.1460 C.3   200  PRO200      0.0310
     60  CG       -10.7050   39.0670   13.6990 C.3   200  PRO200      0.0237
     61  CD       -10.2300   40.4890   13.6380 C.3   200  PRO200      0.0939
     62  N        -11.3780   40.3390   18.1300 N.am  201  LYS201     -0.1964
     63  CA       -10.6990   40.4740   19.4110 C.3   201  LYS201      0.1728
     64  C         -9.8710   39.2380   19.7140 C.2   201  LYS201      0.2617
     65  O        -10.2650   38.1290   19.3610 O.2   201  LYS201     -0.2715
     66  CB       -11.7060   40.7140   20.5360 C.3   201  LYS201      0.0311
     67  CG       -12.4410   42.0420   20.3870 C.3   201  LYS201      0.0038
     68  CD       -12.7490   42.6920   21.7460 C.3   201  LYS201      0.0206
     69  CE       -11.5260   43.3680   22.3050 C.3   201  LYS201      0.1093
     70  NZ       -11.5510   43.2970   23.7680 N.3   201  LYS201     -0.1314
     71  N         -8.7300   39.4210   20.3760 N.am  202  SER202     -0.1936
     72  CA        -7.8960   38.2760   20.7300 C.3   202  SER202      0.2055
     73  C         -7.5470   38.2230   22.2030 C.2   202  SER202      0.2642
     74  O         -7.0780   39.1940   22.7800 O.2   202  SER202     -0.2714
     75  CB        -6.6230   38.2620   19.8980 C.3   202  SER202      0.2130
     76  OG        -5.8340   37.1390   20.2270 O.3   202  SER202     -0.2179
     77  N         -7.8000   37.0720   22.8040 N.am  203  ARG203     -0.1977
     78  CA        -7.4420   36.8130   24.1800 C.3   203  ARG203      0.1597
     79  C         -7.0250   35.3710   24.2570 C.2   203  ARG203      0.2287
     80  O         -7.4650   34.5600   23.4410 O.2   203  ARG203     -0.2864
     81  CB        -8.6320   37.0430   25.1160 C.3   203  ARG203      0.0334
     82  CG        -9.0660   38.5190   25.2360 C.3   203  ARG203      0.0492
     83  CD        -7.9840   39.3850   25.8920 C.3   203  ARG203      0.2205
     84  NE        -8.5140   40.7160   26.1940 N.pl3 203  ARG203     -0.0865
     85  CZ        -8.6780   41.6660   25.2850 C.cat 203  ARG203      0.5346
     86  NH1       -8.3190   41.4420   24.0320 N.pl3 203  ARG203      0.1354
     87  NH2       -9.1910   42.8370   25.6230 N.pl3 203  ARG203      0.1354
@<TRIPOS>BOND
     1    54    52    1
     2    39    40    1
     3    52    53    1
     4    52    51    1
     5    47    48    1
     6    61    60    1
     7    61    55    1
     8    60    59    1
     9    46    44   am
    10    48    51    1
    11    48    49    1
    12    40    41    1
    13    40    43    1
    14    55    49   am
    15    55    56    1
    16    41    42    2
    17    49    50    2
    18    44    43    1
    19    44    45    2
    20    59    56    1
    21    56    57    1
    22    34    35    1
    23    34    31    1
    24    33    32    2
    25    32    31    1
    26    23    22    1
    27    35    36    1
    28    58    57    2
    29    57    62   am
    30    31    30    1
    31    22    20   ar
    32    22    21   ar
    33    20    18   ar
    34    36    37    1
    35    62    63    1
    36    21    19   ar
    37    37    38    1
    38    18    17   ar
    39    19    17   ar
    40    17    16    1
    41    65    64    2
    42    63    64    1
    43    63    66    1
    44    64    71   am
    45    27    26    2
    46    75    76    1
    47    75    72    1
    48    16    13    1
    49    71    72    1
    50    67    66    1
    51    67    68    1
    52    26    25    1
    53    72    73    1
    54    13    14    1
    55    13    12    1
    56    24    14   am
    57    24    25    1
    58    68    69    1
    59    14    15    2
    60    25    28    1
    61    12     3   am
    62    73    74    2
    63    73    77   am
    64    69    70    1
    65    28    29    1
    66     4     3    2
    67     3     2    1
    68     1     2    1
    69    77    78    1
    70     2     5    1
    71    80    79    2
    72    86    85    1
    73    78    79    1
    74    78    81    1
    75     5     6    1
    76    81    82    1
    77    82    83    1
    78    11     9    1
    79    85    87    1
    80    85    84    2
    81     6     7    1
    82    10     9    1
    83     9     8    2
    84    83    84    1
    85     8     7    1
