@<TRIPOS>MOLECULE
tmp/3hzoB00.pdb
 101 94 0 0 0
SMALL
GASTEIGER

@<TRIPOS>ATOM
      1  N        -23.6120  -10.4400  -34.3260 N.3    19  GLY19      -0.1210
      2  CA       -22.8920  -11.6240  -34.8170 C.3    19  GLY19       0.1956
      3  C        -23.7550  -12.7590  -35.4220 C.2    19  GLY19       0.2611
      4  O        -24.9460  -12.6100  -35.5740 O.2    19  GLY19      -0.2717
      5  N        -23.1440  -13.8830  -35.8090 N.am   20  ARG20      -0.1979
      6  CA       -23.8880  -15.0330  -36.3180 C.3    20  ARG20       0.1597
      7  C        -24.9250  -15.4490  -35.3070 C.2    20  ARG20       0.2287
      8  O        -24.5810  -15.6500  -34.1630 O.2    20  ARG20      -0.2864
      9  CB       -22.9560  -16.2440  -36.4640 C.3    20  ARG20       0.0334
     10  CG       -23.6050  -17.4440  -37.1270 C.3    20  ARG20       0.0492
     11  CD       -22.5450  -18.4550  -37.5730 C.3    20  ARG20       0.2205
     12  NE       -23.1140  -19.7410  -37.9990 N.pl3  20  ARG20      -0.0865
     13  CZ       -23.0740  -20.8750  -37.2740 C.cat  20  ARG20       0.5346
     14  NH1      -22.5160  -20.9020  -36.0740 N.pl3  20  ARG20       0.1354
     15  NH2      -23.6410  -21.9720  -37.7420 N.pl3  20  ARG20       0.1354
     16  N        -18.0610   -9.5540  -34.2420 N.3    86  SER86      -0.1202
     17  CA       -17.7670  -10.8510  -34.9500 C.3    86  SER86       0.2020
     18  C        -18.0820  -10.9140  -36.4450 C.2    86  SER86       0.2618
     19  O        -17.4390  -10.2300  -37.2510 O.2    86  SER86      -0.2717
     20  CB       -18.4060  -12.0450  -34.2160 C.3    86  SER86       0.2103
     21  OG       -17.4310  -12.6690  -33.3810 O.3    86  SER86      -0.2182
     22  N        -19.0350  -11.7350  -36.8480 N.am   87  MET87      -0.1979
     23  CA       -19.5540  -11.6090  -38.1830 C.3    87  MET87       0.1605
     24  C        -19.9700  -10.1630  -38.4100 C.2    87  MET87       0.2287
     25  O        -19.8070   -9.6690  -39.5040 O.2    87  MET87      -0.2864
     26  CB       -20.7720  -12.4910  -38.3900 C.3    87  MET87       0.0413
     27  CG       -21.2880  -12.4310  -39.7920 C.3    87  MET87       0.0598
     28  SD       -22.7200  -13.4560  -39.9990 S.3    87  MET87      -0.1393
     29  CE       -24.0600  -12.4460  -39.3380 C.3    87  MET87       0.0692
     30  N        -11.5690  -10.2930  -36.8890 N.3   112  ARG112     -0.1245
     31  CA       -10.3690  -10.8080  -37.4760 C.3   112  ARG112      0.1563
     32  C        -10.3900  -10.2950  -38.8860 C.2   112  ARG112      0.2260
     33  O        -11.4630   -9.8470  -39.3160 O.2   112  ARG112     -0.2867
     34  CB       -10.4400  -12.3280  -37.4810 C.3   112  ARG112      0.0307
     35  CG       -11.7210  -12.7960  -38.0980 C.3   112  ARG112      0.0489
     36  CD       -11.6730  -14.2180  -38.4710 C.3   112  ARG112      0.2205
     37  NE       -11.4240  -15.1520  -37.3740 N.pl3 112  ARG112     -0.0865
     38  CZ       -12.3150  -15.5270  -36.4450 C.cat 112  ARG112      0.5346
     39  NH1      -13.5470  -15.0060  -36.4460 N.pl3 112  ARG112      0.1354
     40  NH2      -11.9480  -16.4170  -35.5050 N.pl3 112  ARG112      0.1354
     41  N        -10.3490  -19.9660  -36.8350 N.3   119  ARG119     -0.1245
     42  CA       -11.5110  -19.8870  -37.7230 C.3   119  ARG119      0.1563
     43  C        -11.7680  -21.1510  -38.5850 C.2   119  ARG119      0.2260
     44  O        -12.9270  -21.6210  -38.6530 O.2   119  ARG119     -0.2867
     45  CB       -11.4820  -18.6510  -38.6160 C.3   119  ARG119      0.0307
     46  CG       -12.7120  -18.5860  -39.4770 C.3   119  ARG119      0.0489
     47  CD       -13.9580  -18.2960  -38.6130 C.3   119  ARG119      0.2205
     48  NE       -15.2880  -18.5840  -39.1990 N.pl3 119  ARG119     -0.0865
     49  CZ       -16.3870  -17.8530  -38.9180 C.cat 119  ARG119      0.5346
     50  NH1      -16.3000  -16.7520  -38.1580 N.pl3 119  ARG119      0.1354
     51  NH2      -17.5660  -18.1580  -39.4430 N.pl3 119  ARG119      0.1354
     52  N        -13.1260  -24.0220  -36.4620 N.3   122  PHE122     -0.1241
     53  CA       -14.4540  -23.7080  -36.0790 C.3   122  PHE122      0.1605
     54  C        -15.3950  -23.8760  -37.2340 C.2   122  PHE122      0.2264
     55  O        -16.4910  -24.4450  -37.0320 O.2   122  PHE122     -0.2867
     56  CB       -14.4750  -22.2740  -35.5870 C.3   122  PHE122      0.0534
     57  CG       -15.8360  -21.7260  -35.3480 C.ar  122  PHE122     -0.0203
     58  CD1      -16.4080  -21.7640  -34.0580 C.ar  122  PHE122     -0.0042
     59  CD2      -16.5180  -21.0790  -36.3710 C.ar  122  PHE122     -0.0042
     60  CE1      -17.6660  -21.1750  -33.7960 C.ar  122  PHE122     -0.0003
     61  CE2      -17.7620  -20.5090  -36.1500 C.ar  122  PHE122     -0.0003
     62  CZ       -18.3580  -20.5630  -34.8450 C.ar  122  PHE122     -0.0000
     63  N        -24.7210  -18.2950  -42.6140 N.3   182  GLN182     -0.1245
     64  CA       -23.9530  -17.2410  -41.9480 C.3   182  GLN182      0.1566
     65  C        -22.6030  -17.7830  -41.5970 C.2   182  GLN182      0.2260
     66  O        -21.6560  -17.0340  -41.4390 O.2   182  GLN182     -0.2867
     67  CB       -24.6350  -16.7420  -40.6710 C.3   182  GLN182      0.0367
     68  CG       -25.8310  -15.9460  -40.9860 C.3   182  GLN182      0.0905
     69  CD       -26.4770  -15.2380  -39.8120 C.2   182  GLN182      0.2608
     70  OE1      -26.1880  -15.5110  -38.6320 O.2   182  GLN182     -0.2717
     71  NE2      -27.3930  -14.3130  -40.1430 N.am  182  GLN182     -0.0878
     72  N        -20.1710  -16.3570  -44.1120 N.3   185  CYS185     -0.1235
     73  CA       -19.8270  -14.9210  -44.0690 C.3   185  CYS185      0.1677
     74  C        -18.6640  -14.6270  -43.1600 C.2   185  CYS185      0.2270
     75  O        -18.8430  -14.0540  -42.1090 O.2   185  CYS185     -0.2867
     76  CB       -21.0250  -14.0500  -43.6700 C.3   185  CYS185      0.0956
     77  SG       -22.4090  -14.4680  -44.7630 S.3   185  CYS185     -0.0801
     78  N        -13.1700  -18.1520  -29.3970 N.3   212  VAL212     -0.1231
     79  CA       -13.6760  -18.2050  -30.7390 C.3   212  VAL212      0.1692
     80  C        -12.8750  -17.2530  -31.6490 C.2   212  VAL212      0.2592
     81  O        -12.3900  -17.6770  -32.6880 O.2   212  VAL212     -0.2718
     82  CB       -15.1480  -17.8850  -30.7600 C.3   212  VAL212      0.0266
     83  CG1      -15.7190  -18.0410  -32.2200 C.3   212  VAL212      0.0020
     84  CG2      -15.8690  -18.7710  -29.7490 C.3   212  VAL212      0.0020
     85  N        -12.7240  -15.9830  -31.2660 N.am  213  THR213     -0.1953
     86  CA       -11.9060  -15.0010  -32.0130 C.3   213  THR213      0.1897
     87  C        -10.8880  -14.3530  -31.0770 C.2   213  THR213      0.2313
     88  O        -11.1680  -13.3000  -30.4850 O.2   213  THR213     -0.2863
     89  CB       -12.7850  -13.9300  -32.6500 C.3   213  THR213      0.1794
     90  OG1      -13.8080  -14.5900  -33.3980 O.3   213  THR213     -0.2208
     91  CG2      -11.9840  -13.0940  -33.6130 C.3   213  THR213      0.0378
     92  N        -15.7980  -14.2710  -25.5400 N.3   238  HIS238     -0.1241
     93  CA       -16.4010  -13.8710  -26.7800 C.3   238  HIS238      0.1621
     94  C        -17.7000  -13.0510  -26.6680 C.2   238  HIS238      0.2264
     95  O        -18.0260  -12.3440  -27.6210 O.2   238  HIS238     -0.2867
     96  CB       -16.6610  -15.1050  -27.6120 C.3   238  HIS238      0.0745
     97  CG       -16.9260  -14.8130  -29.0440 C.ar  238  HIS238      0.0817
     98  ND1      -16.0570  -14.0660  -29.8170 N.ar  238  HIS238     -0.2268
     99  CD2      -17.9440  -15.1830  -29.8590 C.ar  238  HIS238      0.1154
    100  CE1      -16.5350  -13.9800  -31.0470 C.ar  238  HIS238      0.1986
    101  NE2      -17.6750  -14.6430  -31.0950 N.ar  238  HIS238     -0.2212
@<TRIPOS>BOND
     1    77    76    1
     2    72    73    1
     3    73    76    1
     4    73    74    1
     5    74    75    2
     6    63    64    1
     7    64    65    1
     8    64    67    1
     9    65    66    2
    10    68    67    1
    11    68    69    1
    12    71    69   am
    13    28    27    1
    14    28    29    1
    15    69    70    2
    16    27    26    1
    17    25    24    2
    18    46    45    1
    19    46    47    1
    20    51    49    1
    21    33    32    2
    22    48    49    2
    23    48    47    1
    24    49    50    1
    25    32    31    1
    26    44    43    2
    27    45    42    1
    28    43    42    1
    29    36    35    1
    30    36    37    1
    31    24    23    1
    32    26    23    1
    33    23    22    1
    34    35    34    1
    35    12    11    1
    36    12    13    2
    37    15    13    1
    38    42    41    1
    39    11    10    1
    40    34    31    1
    41    31    30    1
    42    37    38    2
    43    13    14    1
    44    19    18    2
    45    54    55    2
    46    54    53    1
    47    10     9    1
    48    22    18   am
    49     9     6    1
    50    52    53    1
    51    39    38    1
    52    18    17    1
    53    38    40    1
    54    59    61   ar
    55    59    57   ar
    56     6     5    1
    57     6     7    1
    58    61    62   ar
    59    53    56    1
    60     5     3   am
    61    56    57    1
    62     4     3    2
    63     3     2    1
    64    57    58   ar
    65     7     8    2
    66    17    16    1
    67    17    20    1
    68    62    60   ar
    69     2     1    1
    70    20    21    1
    71    58    60   ar
    72    91    89    1
    73    90    89    1
    74    81    80    2
    75    89    86    1
    76    83    82    1
    77    86    85    1
    78    86    87    1
    79    80    85   am
    80    80    79    1
    81   101   100   ar
    82   101    99   ar
    83    87    88    2
    84   100    98   ar
    85    82    79    1
    86    82    84    1
    87    79    78    1
    88    99    97   ar
    89    98    97   ar
    90    97    96    1
    91    95    94    2
    92    96    93    1
    93    93    94    1
    94    93    92    1
