@<TRIPOS>MOLECULE
tmp/3hzpA00.pdb
 145 139 0 0 0
SMALL
GASTEIGER

@<TRIPOS>ATOM
      1  N         35.8980   16.4920    5.1330 N.3    13  PHE13      -0.1241
      2  CA        37.0140   15.9870    5.9420 C.3    13  PHE13       0.1605
      3  C         38.3370   16.0840    5.1840 C.2    13  PHE13       0.2264
      4  O         39.3590   16.5350    5.7540 O.2    13  PHE13      -0.2867
      5  CB        36.7250   14.5430    6.3510 C.3    13  PHE13       0.0534
      6  CG        37.9090   13.8020    6.9080 C.ar   13  PHE13      -0.0203
      7  CD1       38.4870   14.2020    8.1220 C.ar   13  PHE13      -0.0042
      8  CD2       38.4410   12.7420    6.2200 C.ar   13  PHE13      -0.0042
      9  CE1       39.5640   13.5080    8.5960 C.ar   13  PHE13      -0.0003
     10  CE2       39.5220   12.0450    6.7180 C.ar   13  PHE13      -0.0003
     11  CZ        40.0770   12.4540    7.8980 C.ar   13  PHE13      -0.0000
     12  N         39.0260    8.2810   16.3250 N.3    32  PHE32      -0.1241
     13  CA        39.8580    8.0800   15.1480 C.3    32  PHE32       0.1605
     14  C         40.9620    7.1140   15.5270 C.2    32  PHE32       0.2264
     15  O         41.7300    7.3940   16.4660 O.2    32  PHE32      -0.2867
     16  CB        40.4720    9.4360   14.7220 C.3    32  PHE32       0.0534
     17  CG        41.3770    9.3620   13.5350 C.ar   32  PHE32      -0.0203
     18  CD1       40.8680    9.4990   12.2660 C.ar   32  PHE32      -0.0042
     19  CD2       42.7450    9.1780   13.7040 C.ar   32  PHE32      -0.0042
     20  CE1       41.7090    9.4370   11.1570 C.ar   32  PHE32      -0.0003
     21  CE2       43.5940    9.1460   12.5850 C.ar   32  PHE32      -0.0003
     22  CZ        43.0630    9.2890   11.3540 C.ar   32  PHE32      -0.0000
     23  N         44.3070    5.4100   14.8380 N.3    34  ARG34      -0.1231
     24  CA        45.5660    5.5590   14.1200 C.3    34  ARG34       0.1679
     25  C         46.1070    4.2070   13.6520 C.2    34  ARG34       0.2434
     26  O         45.6670    3.1350   14.1430 O.2    34  ARG34      -0.2733
     27  CB        46.5750    6.2400   15.0240 C.3    34  ARG34       0.0321
     28  CG        46.2250    7.6770   15.3430 C.3    34  ARG34       0.0489
     29  CD        47.2150    8.2670   16.3680 C.3    34  ARG34       0.2205
     30  NE        46.7850    7.9550   17.7120 N.pl3  34  ARG34      -0.0865
     31  CZ        47.3290    8.4600   18.8190 C.cat  34  ARG34       0.5346
     32  NH1       48.3940    9.2400   18.7290 N.pl3  34  ARG34       0.1354
     33  NH2       46.7980    8.1740   20.0080 N.pl3  34  ARG34       0.1354
     34  N         47.0930    4.2250   12.7480 N.am   35  PRO35      -0.2729
     35  CA        47.6560    2.9630   12.2740 C.3    35  PRO35       0.1401
     36  C         48.1890    2.0710   13.3920 C.2    35  PRO35       0.2269
     37  O         48.1620    0.8360   13.2510 O.2    35  PRO35      -0.2865
     38  CB        48.7950    3.4210   11.3530 C.3    35  PRO35       0.0296
     39  CG        48.2870    4.7230   10.7930 C.3    35  PRO35       0.0237
     40  CD        47.6590    5.3610   11.9930 C.3    35  PRO35       0.0939
     41  N         42.4100    8.4830   18.9690 N.3    40  LEU40      -0.1245
     42  CA        42.3610    9.9340   19.2300 C.3    40  LEU40       0.1561
     43  C         40.9160   10.3700   19.2070 C.2    40  LEU40       0.2260
     44  O         40.1440    9.9230   18.3660 O.2    40  LEU40      -0.2867
     45  CB        43.0760   10.6860   18.1270 C.3    40  LEU40       0.0270
     46  CG        44.5830   10.6430   18.0620 C.3    40  LEU40       0.0019
     47  CD1       45.0500   11.3760   16.7830 C.3    40  LEU40       0.0001
     48  CD2       45.1750   11.3060   19.3500 C.3    40  LEU40       0.0001
     49  N         42.6720   14.8070   17.6510 N.3    45  PHE45      -0.1241
     50  CA        42.9390   14.8790   16.2170 C.3    45  PHE45       0.1605
     51  C         43.2780   16.3260   15.8200 C.2    45  PHE45       0.2264
     52  O         44.2290   16.5790   15.0890 O.2    45  PHE45      -0.2867
     53  CB        41.7560   14.3270   15.4300 C.3    45  PHE45       0.0534
     54  CG        42.0060   14.2220   13.9480 C.ar   45  PHE45      -0.0203
     55  CD1       42.5620   13.0930   13.4370 C.ar   45  PHE45      -0.0042
     56  CD2       41.6450   15.2350   13.1000 C.ar   45  PHE45      -0.0042
     57  CE1       42.7980   12.9550   12.1000 C.ar   45  PHE45      -0.0003
     58  CE2       41.8630   15.1260   11.7460 C.ar   45  PHE45      -0.0003
     59  CZ        42.4550   13.9850   11.2370 C.ar   45  PHE45      -0.0000
     60  N         47.0540   18.4930   14.1970 N.3    48  TRP48      -0.1241
     61  CA        47.1340   19.3730   13.0440 C.3    48  TRP48       0.1605
     62  C         47.4120   20.7900   13.4600 C.2    48  TRP48       0.2264
     63  O         47.7340   21.6220   12.6220 O.2    48  TRP48      -0.2867
     64  CB        45.8440   19.2740   12.1980 C.3    48  TRP48       0.0550
     65  CG        45.7540   18.0120   11.4950 C.ar   48  TRP48       0.0003
     66  CD1       44.9550   16.9510   11.7930 C.ar   48  TRP48       0.0946
     67  CD2       46.5190   17.6280   10.3540 C.ar   48  TRP48       0.0152
     68  NE1       45.1700   15.9320   10.8970 N.ar   48  TRP48      -0.2442
     69  CE2       46.1300   16.3220   10.0070 C.ar   48  TRP48       0.0810
     70  CE3       47.4960   18.2690    9.5850 C.ar   48  TRP48       0.0012
     71  CZ2       46.6840   15.6390    8.9360 C.ar   48  TRP48       0.0191
     72  CZ3       48.0410   17.5950    8.5290 C.ar   48  TRP48       0.0001
     73  CH2       47.6430   16.2940    8.2130 C.ar   48  TRP48       0.0015
     74  N         53.1410   20.2060   11.1980 N.3    53  LEU53      -0.1245
     75  CA        52.4030   19.3100   10.3090 C.3    53  LEU53       0.1561
     76  C         51.3970   20.1000    9.4550 C.2    53  LEU53       0.2260
     77  O         50.4690   20.7070    9.9770 O.2    53  LEU53      -0.2867
     78  CB        51.7070   18.2280   11.1460 C.3    53  LEU53       0.0270
     79  CG        50.8810   17.2080   10.3750 C.3    53  LEU53       0.0019
     80  CD1       51.7560   16.3260    9.4800 C.3    53  LEU53       0.0001
     81  CD2       50.0390   16.3560   11.3400 C.3    53  LEU53       0.0001
     82  N         48.8650   20.0460    5.9250 N.3    55  LEU55      -0.1245
     83  CA        48.2350   19.2950    4.8430 C.3    55  LEU55       0.1561
     84  C         48.2910   20.1450    3.5950 C.2    55  LEU55       0.2260
     85  O         47.8260   21.2760    3.6050 O.2    55  LEU55      -0.2867
     86  CB        46.7860   18.9990    5.2080 C.3    55  LEU55       0.0270
     87  CG        46.0080   18.0320    4.3340 C.3    55  LEU55       0.0019
     88  CD1       46.6480   16.6550    4.3400 C.3    55  LEU55       0.0001
     89  CD2       44.5370   18.0130    4.8070 C.3    55  LEU55       0.0001
     90  N         42.2430    7.2970    0.9570 N.3    80  LEU80      -0.1245
     91  CA        42.4360    8.7370    1.1390 C.3    80  LEU80       0.1561
     92  C         43.8280    9.0630    0.6220 C.2    80  LEU80       0.2260
     93  O         44.8220    8.5390    1.1270 O.2    80  LEU80      -0.2867
     94  CB        42.3400    9.0960    2.6060 C.3    80  LEU80       0.0270
     95  CG        42.5530   10.5700    2.9410 C.3    80  LEU80       0.0019
     96  CD1       41.3810   11.3350    2.4880 C.3    80  LEU80       0.0001
     97  CD2       42.7890   10.7570    4.4780 C.3    80  LEU80       0.0001
     98  N         46.7210   11.7870    0.2750 N.3    82  SER82      -0.1217
     99  CA        47.1300   13.0660    0.7970 C.3    82  SER82       0.1889
    100  C         48.5770   13.3490    0.5390 C.2    82  SER82       0.2288
    101  O         49.3940   12.4400    0.3670 O.2    82  SER82      -0.2866
    102  CB        46.9420   13.1620    2.3020 C.3    82  SER82       0.2089
    103  OG        45.6020   12.9190    2.6340 O.3    82  SER82      -0.2183
    104  N         51.4150   15.8260    2.5860 N.3    84  PHE84      -0.1241
    105  CA        51.5870   16.6630    3.7390 C.3    84  PHE84       0.1605
    106  C         53.0470   16.9160    3.9760 C.2    84  PHE84       0.2264
    107  O         53.8860   16.1780    3.5090 O.2    84  PHE84      -0.2867
    108  CB        50.9270   16.0310    4.9510 C.3    84  PHE84       0.0534
    109  CG        51.5890   14.7880    5.4360 C.ar   84  PHE84      -0.0203
    110  CD1       51.2380   13.5490    4.9220 C.ar   84  PHE84      -0.0042
    111  CD2       52.5090   14.8410    6.4550 C.ar   84  PHE84      -0.0042
    112  CE1       51.8390   12.3840    5.3920 C.ar   84  PHE84      -0.0003
    113  CE2       53.1150   13.6930    6.9260 C.ar   84  PHE84      -0.0003
    114  CZ        52.7730   12.4590    6.3990 C.ar   84  PHE84      -0.0000
    115  N         55.8750   17.4690    7.0070 N.3    86  TYR86      -0.1241
    116  CA        56.0830   17.2360    8.4340 C.3    86  TYR86       0.1605
    117  C         57.5060   17.5820    8.7670 C.2    86  TYR86       0.2264
    118  O         58.4320   17.0240    8.1720 O.2    86  TYR86      -0.2867
    119  CB        55.8130   15.7710    8.7690 C.3    86  TYR86       0.0534
    120  CG        56.0090   15.4120   10.2310 C.ar   86  TYR86      -0.0201
    121  CD1       55.2240   15.9820   11.2230 C.ar   86  TYR86      -0.0009
    122  CD2       56.9630   14.4780   10.6070 C.ar   86  TYR86      -0.0009
    123  CE1       55.3950   15.6430   12.5620 C.ar   86  TYR86       0.0417
    124  CE2       57.1390   14.1250   11.9340 C.ar   86  TYR86       0.0417
    125  CZ        56.3540   14.7050   12.9070 C.ar   86  TYR86       0.1957
    126  OH        56.5390   14.3510   14.2330 O.3    86  TYR86      -0.2866
    127  N         50.6890   10.0260    1.2880 N.3    93  ASP93      -0.1239
    128  CA        50.0270    9.1570    2.2370 C.3    93  ASP93       0.1674
    129  C         48.8250    8.5520    1.5220 C.2    93  ASP93       0.2266
    130  O         48.0010    9.2740    0.9290 O.2    93  ASP93      -0.2867
    131  CB        49.5760   10.0060    3.4340 C.3    93  ASP93       0.1410
    132  CG        49.0090    9.2000    4.5600 C.2    93  ASP93       0.3668
    133  OD1       49.6490    8.2500    5.0430 O.co2  93  ASP93      -0.2456
    134  OD2       47.9120    9.5860    5.0100 O.co2  93  ASP93      -0.2456
    135  N         42.1030    4.1400   10.2270 N.3   114  ARG114     -0.1245
    136  CA        42.9890    4.1940    9.0780 C.3   114  ARG114      0.1563
    137  C         44.1670    3.2550    9.1880 C.2   114  ARG114      0.2260
    138  O         44.6640    2.9840   10.2780 O.2   114  ARG114     -0.2867
    139  CB        43.5140    5.6100    8.8020 C.3   114  ARG114      0.0307
    140  CG        44.3890    6.2020    9.8830 C.3   114  ARG114      0.0489
    141  CD        45.2920    7.3130    9.3460 C.3   114  ARG114      0.2205
    142  NE        46.3390    6.7670    8.5140 N.pl3 114  ARG114     -0.0865
    143  CZ        47.0820    7.4580    7.6640 C.cat 114  ARG114      0.5346
    144  NH1       46.9210    8.7640    7.5390 N.pl3 114  ARG114      0.1354
    145  NH2       47.9890    6.8400    6.9350 N.pl3 114  ARG114      0.1354
@<TRIPOS>BOND
     1    98    99    1
     2   101   100    2
     3   100    99    1
     4    92    93    2
     5    92    91    1
     6    99   102    1
     7   130   129    2
     8    90    91    1
     9    91    94    1
    10   127   128    1
    11   129   128    1
    12   128   131    1
    13   102   103    1
    14    96    95    1
    15   104   105    1
    16    94    95    1
    17    95    97    1
    18   131   132    1
    19   107   106    2
    20    84    85    2
    21    84    83    1
    22   105   106    1
    23   105   108    1
    24    87    88    1
    25    87    89    1
    26    87    86    1
    27   132   134   ar
    28   132   133   ar
    29    83    86    1
    30    83    82    1
    31   110   112   ar
    32   110   109   ar
    33   108   109    1
    34     1     2    1
    35     3     4    2
    36     3     2    1
    37   112   114   ar
    38   109   111   ar
    39     2     5    1
    40     8    10   ar
    41     8     6   ar
    42     5     6    1
    43   114   113   ar
    44   111   113   ar
    45    10    11   ar
    46     6     7   ar
    47   145   143    1
    48   115   116    1
    49   144   143    1
    50   143   142    2
    51    11     9   ar
    52     7     9   ar
    53   118   117    2
    54    73    72   ar
    55    73    71   ar
    56   116   117    1
    57   116   119    1
    58   142   141    1
    59    72    70   ar
    60   119   120    1
    61   139   136    1
    62   139   140    1
    63    71    69   ar
    64   136   137    1
    65   136   135    1
    66   137   138    2
    67   141   140    1
    68    76    77    2
    69    76    75    1
    70    80    79    1
    71    70    67   ar
    72    69    67   ar
    73    69    68   ar
    74   120   122   ar
    75   120   121   ar
    76    75    78    1
    77    75    74    1
    78    67    65   ar
    79    79    78    1
    80    79    81    1
    81   122   124   ar
    82    39    38    1
    83    39    40    1
    84    68    66   ar
    85    20    22   ar
    86    20    18   ar
    87   121   123   ar
    88    59    58   ar
    89    59    57   ar
    90    38    35    1
    91    22    21   ar
    92    65    66   ar
    93    65    64    1
    94    58    56   ar
    95   124   125   ar
    96    40    34    1
    97    57    55   ar
    98    64    61    1
    99    18    17   ar
   100    35    34    1
   101    35    36    1
   102   123   125   ar
   103    21    19   ar
   104    63    62    2
   105    34    25   am
   106   125   126    1
   107    61    62    1
   108    61    60    1
   109    56    54   ar
   110    37    36    2
   111    55    54   ar
   112    17    19   ar
   113    17    16    1
   114    25    24    1
   115    25    26    2
   116    54    53    1
   117    24    23    1
   118    24    27    1
   119    16    13    1
   120    27    28    1
   121    52    51    2
   122    13    14    1
   123    13    12    1
   124    28    29    1
   125    53    50    1
   126    14    15    2
   127    51    50    1
   128    50    49    1
   129    29    30    1
   130    47    46    1
   131    30    31    2
   132    46    45    1
   133    46    48    1
   134    45    42    1
   135    44    43    2
   136    32    31    1
   137    31    33    1
   138    41    42    1
   139    43    42    1
