@<TRIPOS>MOLECULE
tmp/3hztA00.pdb
 171 161 0 0 0
SMALL
GASTEIGER

@<TRIPOS>ATOM
      1  N         14.4450  -13.4880   31.1740 N.3     8  LYS8       -0.1231
      2  CA        14.9970  -12.5400   30.2010 C.3     8  LYS8        0.1693
      3  C         14.1400  -11.2810   30.1040 C.2     8  LYS8        0.2592
      4  O         13.0200  -11.2460   30.6200 O.2     8  LYS8       -0.2718
      5  CB        15.1230  -13.1840   28.8170 C.3     8  LYS8        0.0285
      6  CG        13.8100  -13.6400   28.2030 C.3     8  LYS8        0.0035
      7  CD        14.0010  -14.0160   26.7430 C.3     8  LYS8        0.0206
      8  CE        12.8770  -14.9140   26.2630 C.3     8  LYS8        0.1093
      9  NZ        12.9190  -15.1070   24.7940 N.3     8  LYS8       -0.1314
     10  N         14.6730  -10.2560   29.4440 N.am    9  LYS9       -0.1966
     11  CA        13.9120   -9.0550   29.1330 C.3     9  LYS9        0.1728
     12  C         12.9600   -9.3280   27.9690 C.2     9  LYS9        0.2616
     13  O         13.3580   -9.9000   26.9510 O.2     9  LYS9       -0.2715
     14  CB        14.8430   -7.8700   28.8130 C.3     9  LYS9        0.0311
     15  CG        14.1020   -6.5230   28.6340 C.3     9  LYS9        0.0038
     16  CD        15.0630   -5.3330   28.6750 C.3     9  LYS9        0.0206
     17  CE        14.3930   -4.0560   28.2100 C.3     9  LYS9        0.1093
     18  NZ        15.1280   -2.8490   28.6930 N.3     9  LYS9       -0.1314
     19  N         11.6960   -8.9490   28.1300 N.am   10  LEU10      -0.1963
     20  CA        10.7510   -9.0440   27.0250 C.3    10  LEU10       0.1728
     21  C         10.7790   -7.7680   26.2020 C.2    10  LEU10       0.2617
     22  O         10.6840   -7.8080   24.9740 O.2    10  LEU10      -0.2715
     23  CB         9.3370   -9.3490   27.5220 C.3    10  LEU10       0.0311
     24  CG         9.0730  -10.7920   27.9640 C.3    10  LEU10       0.0022
     25  CD1        7.7160  -10.9160   28.6590 C.3    10  LEU10       0.0001
     26  CD2        9.2030  -11.8020   26.8050 C.3    10  LEU10       0.0001
     27  N         10.9290   -6.6410   26.8840 N.am   11  GLY11      -0.1940
     28  CA        10.9240   -5.3450   26.2350 C.3    11  GLY11       0.2014
     29  C         10.6190   -4.2430   27.2240 C.2    11  GLY11       0.2640
     30  O         10.9120   -4.3610   28.4100 O.2    11  GLY11      -0.2714
     31  N         10.0110   -3.1790   26.7200 N.am   12  SER12      -0.1935
     32  CA         9.7580   -1.9760   27.4880 C.3    12  SER12       0.2055
     33  C          8.2710   -1.6910   27.5450 C.2    12  SER12       0.2643
     34  O          7.5220   -2.0770   26.6570 O.2    12  SER12      -0.2714
     35  CB        10.4640   -0.7920   26.8290 C.3    12  SER12       0.2130
     36  OG        11.8480   -1.0650   26.7230 O.3    12  SER12      -0.2179
     37  N          7.8500   -1.0230   28.6100 N.am   13  GLY13      -0.1954
     38  CA         6.5110   -0.4860   28.6720 C.3    13  GLY13       0.1869
     39  C          6.5720    0.8690   29.3190 C.2    13  GLY13       0.2309
     40  O          7.6400    1.3200   29.7120 O.2    13  GLY13      -0.2863
     41  N         10.0150   -4.6480   31.1110 N.3    18  VAL18      -0.1245
     42  CA         9.1670   -5.8120   31.2750 C.3    18  VAL18       0.1561
     43  C         10.0090   -7.0660   31.1510 C.2    18  VAL18       0.2260
     44  O         10.6510   -7.3120   30.1160 O.2    18  VAL18      -0.2867
     45  CB         8.0020   -5.8310   30.2280 C.3    18  VAL18       0.0252
     46  CG1        7.1390   -7.0590   30.3950 C.3    18  VAL18       0.0019
     47  CG2        7.1530   -4.5750   30.3460 C.3    18  VAL18       0.0019
     48  N          4.8630  -11.9360   32.9060 N.3    31  ALA31      -0.1245
     49  CA         5.5190  -10.7260   32.4330 C.3    31  ALA31       0.1562
     50  C          5.4620   -9.7610   33.5960 C.2    31  ALA31       0.2260
     51  O          4.3820   -9.4780   34.1240 O.2    31  ALA31      -0.2867
     52  CB         4.7950  -10.1610   31.2080 C.3    31  ALA31       0.0290
     53  N          6.5580   -6.0620   35.0250 N.3    33  LYS33      -0.1245
     54  CA         7.0700   -4.7170   34.8370 C.3    33  LYS33       0.1561
     55  C          7.6480   -4.2210   36.1650 C.2    33  LYS33       0.2260
     56  O          7.0060   -4.3390   37.2280 O.2    33  LYS33      -0.2867
     57  CB         5.9690   -3.7610   34.3460 C.3    33  LYS33       0.0271
     58  CG         6.4270   -2.2780   34.1840 C.3    33  LYS33       0.0035
     59  CD         5.2670   -1.3270   33.8480 C.3    33  LYS33       0.0206
     60  CE         4.8440   -1.4760   32.3900 C.3    33  LYS33       0.1093
     61  NZ         3.8910   -0.4070   31.9920 N.3    33  LYS33      -0.1314
     62  N         -5.5050   -7.1270   29.0780 N.3    65  MET65      -0.1245
     63  CA        -4.4350   -7.6830   29.8920 C.3    65  MET65       0.1570
     64  C         -4.9020   -7.9580   31.3280 C.2    65  MET65       0.2261
     65  O         -5.5590   -7.1210   31.9340 O.2    65  MET65      -0.2867
     66  CB        -3.2910   -6.6640   29.8870 C.3    65  MET65       0.0387
     67  CG        -2.0880   -6.8730   30.8210 C.3    65  MET65       0.0595
     68  SD        -1.2930   -5.2430   30.9770 S.3    65  MET65      -0.1393
     69  CE        -2.2350   -4.5200   32.2960 C.3    65  MET65       0.0692
     70  N          2.0470   -9.6670   35.4060 N.3    81  MET81      -0.1230
     71  CA         1.0440   -9.7720   34.3640 C.3    81  MET81       0.1702
     72  C          1.2010  -11.0580   33.5470 C.2    81  MET81       0.2592
     73  O          2.2390  -11.7420   33.6030 O.2    81  MET81      -0.2718
     74  CB         1.1060   -8.5260   33.4660 C.3    81  MET81       0.0401
     75  CG         1.1410   -7.1880   34.2880 C.3    81  MET81       0.0596
     76  SD         1.4820   -5.7270   33.3210 S.3    81  MET81      -0.1393
     77  CE         3.2290   -5.9560   32.9910 C.3    81  MET81       0.0692
     78  N          0.1560  -11.3760   32.7960 N.am   82  GLU82      -0.1966
     79  CA         0.1330  -12.5180   31.8980 C.3    82  GLU82       0.1733
     80  C          1.1080  -12.3220   30.7340 C.2    82  GLU82       0.2616
     81  O          1.2920  -11.2030   30.2620 O.2    82  GLU82      -0.2715
     82  CB        -1.2890  -12.6960   31.3570 C.3    82  GLU82       0.0429
     83  CG        -2.1240  -13.6320   32.1990 C.3    82  GLU82       0.1163
     84  CD        -3.5120  -13.9040   31.6360 C.2    82  GLU82       0.3649
     85  OE1       -4.2220  -14.7400   32.2350 O.co2  82  GLU82      -0.2457
     86  OE2       -3.9040  -13.2720   30.6340 O.co2  82  GLU82      -0.2457
     87  N          1.7200  -13.4190   30.2880 N.am   83  VAL83      -0.1963
     88  CA         2.5430  -13.4430   29.0670 C.3    83  VAL83       0.1727
     89  C          1.6680  -13.7810   27.8500 C.2    83  VAL83       0.2616
     90  O          0.8910  -14.7290   27.8880 O.2    83  VAL83      -0.2715
     91  CB         3.6700  -14.5160   29.1580 C.3    83  VAL83       0.0290
     92  CG1        4.6160  -14.4400   27.9310 C.3    83  VAL83       0.0023
     93  CG2        4.4570  -14.3840   30.4550 C.3    83  VAL83       0.0023
     94  N          1.7830  -12.9830   26.7880 N.am   84  TYR84      -0.1960
     95  CA         1.0860  -13.2520   25.5190 C.3    84  TYR84       0.1771
     96  C          2.1330  -13.5860   24.4740 C.2    84  TYR84       0.2619
     97  O          3.1240  -12.8780   24.3470 O.2    84  TYR84      -0.2715
     98  CB         0.1800  -12.0640   25.1110 C.3    84  TYR84       0.0574
     99  CG        -0.7990  -11.6960   26.2270 C.ar   84  TYR84      -0.0198
    100  CD1       -1.6560  -12.6640   26.7620 C.ar   84  TYR84      -0.0009
    101  CD2       -0.8490  -10.3970   26.7600 C.ar   84  TYR84      -0.0009
    102  CE1       -2.5540  -12.3620   27.7860 C.ar   84  TYR84       0.0417
    103  CE2       -1.7520  -10.0750   27.7950 C.ar   84  TYR84       0.0417
    104  CZ        -2.5920  -11.0700   28.2970 C.ar   84  TYR84       0.1957
    105  OH        -3.4640  -10.8030   29.3160 O.3    84  TYR84      -0.2866
    106  N          1.9230  -14.6780   23.7410 N.am   85  ARG85      -0.1977
    107  CA         2.9730  -15.2110   22.8730 C.3    85  ARG85       0.1597
    108  C          2.6030  -15.1950   21.3870 C.2    85  ARG85       0.2287
    109  O          3.3390  -15.7370   20.5470 O.2    85  ARG85      -0.2864
    110  CB         3.3860  -16.6210   23.3260 C.3    85  ARG85       0.0334
    111  CG         3.9920  -16.6830   24.7380 C.3    85  ARG85       0.0492
    112  CD         4.0890  -18.1280   25.2220 C.3    85  ARG85       0.2205
    113  NE         4.4390  -18.2460   26.6390 N.pl3  85  ARG85      -0.0865
    114  CZ         3.5580  -18.2910   27.6370 C.cat  85  ARG85       0.5346
    115  NH1        2.2550  -18.2180   27.3940 N.pl3  85  ARG85       0.1354
    116  NH2        3.9840  -18.4110   28.8850 N.pl3  85  ARG85       0.1354
    117  N          2.5090  -12.5760   19.5270 N.3    87  GLY87      -0.1210
    118  CA         3.1610  -11.4340   18.8850 C.3    87  GLY87       0.1956
    119  C          2.2430  -10.2290   18.7050 C.2    87  GLY87       0.2611
    120  O          1.0590  -10.2610   19.0530 O.2    87  GLY87      -0.2717
    121  N          2.8100   -9.1580   18.1680 N.am   88  GLU88      -0.1979
    122  CA         2.0750   -7.9490   17.8940 C.3    88  GLU88       0.1602
    123  C          1.0970   -8.1510   16.7390 C.2    88  GLU88       0.2287
    124  O          1.4150   -8.8150   15.7320 O.2    88  GLU88      -0.2864
    125  CB         3.0550   -6.8100   17.6110 C.3    88  GLU88       0.0415
    126  CG         3.9690   -6.5230   18.8020 C.3    88  GLU88       0.1163
    127  CD         5.0740   -5.5490   18.4820 C.2    88  GLU88       0.3649
    128  OE1        4.9310   -4.7280   17.5640 O.co2  88  GLU88      -0.2457
    129  OE2        6.1070   -5.6150   19.1550 O.co2  88  GLU88      -0.2457
    130  N         -1.5110   -7.1890   21.4950 N.3   134  LEU134     -0.1245
    131  CA        -0.7770   -8.4700   21.5000 C.3   134  LEU134      0.1561
    132  C         -1.7460   -9.6170   21.2690 C.2   134  LEU134      0.2260
    133  O         -2.8390   -9.6440   21.8740 O.2   134  LEU134     -0.2867
    134  CB         0.0050   -8.6670   22.8080 C.3   134  LEU134      0.0270
    135  CG         1.2650   -7.8160   23.0640 C.3   134  LEU134      0.0019
    136  CD1        2.0120   -8.3690   24.2530 C.3   134  LEU134      0.0001
    137  CD2        2.1810   -7.7850   21.8210 C.3   134  LEU134      0.0001
    138  N         -2.5150   -4.1560   26.0780 N.3   147  VAL147     -0.1231
    139  CA        -1.5670   -4.1380   27.1870 C.3   147  VAL147      0.1692
    140  C         -1.0800   -2.7060   27.4300 C.2   147  VAL147      0.2592
    141  O         -1.2050   -1.8320   26.5560 O.2   147  VAL147     -0.2718
    142  CB        -0.3450   -5.1180   26.9620 C.3   147  VAL147      0.0266
    143  CG1       -0.8400   -6.5490   26.6450 C.3   147  VAL147      0.0020
    144  CG2        0.6060   -4.6170   25.8440 C.3   147  VAL147      0.0020
    145  N         -0.5480   -2.4930   28.6280 N.am  148  ASP148     -0.1974
    146  CA         0.2180   -1.3080   29.0120 C.3   148  ASP148      0.1709
    147  C         -0.5760   -0.0260   29.3140 C.2   148  ASP148      0.2293
    148  O         -0.0120    1.0650   29.3230 O.2   148  ASP148     -0.2864
    149  CB         1.3470   -1.0260   28.0190 C.3   148  ASP148      0.1436
    150  CG         2.5510   -0.4600   28.6950 C.2   148  ASP148      0.3671
    151  OD1        2.7210   -0.7620   29.9070 O.co2 148  ASP148     -0.2456
    152  OD2        3.3020    0.3010   28.0360 O.co2 148  ASP148     -0.2456
    153  N         17.5430   -0.4340   18.4830 N.3   287  LEU287     -0.1245
    154  CA        17.8990   -1.4320   19.4970 C.3   287  LEU287      0.1561
    155  C         19.3320   -1.9320   19.3380 C.2   287  LEU287      0.2260
    156  O         20.0150   -2.1970   20.3300 O.2   287  LEU287     -0.2867
    157  CB        16.9260   -2.6250   19.4790 C.3   287  LEU287      0.0270
    158  CG        15.7510   -2.6540   20.4680 C.3   287  LEU287      0.0019
    159  CD1       14.8180   -1.4580   20.3160 C.3   287  LEU287      0.0001
    160  CD2       14.9590   -3.9430   20.3480 C.3   287  LEU287      0.0001
    161  N         19.6020  -10.4240   15.6480 N.3   374  ARG374     -0.1245
    162  CA        18.2830   -9.8560   15.9120 C.3   374  ARG374      0.1563
    163  C         17.9490   -8.7640   14.8910 C.2   374  ARG374      0.2260
    164  O         16.8000   -8.6410   14.4510 O.2   374  ARG374     -0.2867
    165  CB        18.2170   -9.3230   17.3440 C.3   374  ARG374      0.0307
    166  CG        18.2790  -10.4300   18.3950 C.3   374  ARG374      0.0489
    167  CD        18.9420   -9.9570   19.6720 C.3   374  ARG374      0.2205
    168  NE        18.0650   -9.0980   20.4600 N.pl3 374  ARG374     -0.0865
    169  CZ        18.4240   -8.4980   21.5900 C.cat 374  ARG374      0.5346
    170  NH1       19.6540   -8.6510   22.0710 N.pl3 374  ARG374      0.1354
    171  NH2       17.5510   -7.7370   22.2390 N.pl3 374  ARG374      0.1354
@<TRIPOS>BOND
     1   164   163    2
     2   163   162    1
     3   161   162    1
     4   124   123    2
     5   162   165    1
     6   123   122    1
     7   165   166    1
     8   128   127   ar
     9   125   122    1
    10   125   126    1
    11   122   121    1
    12   121   119   am
    13   166   167    1
    14   127   126    1
    15   127   129   ar
    16   153   154    1
    17   119   118    1
    18   119   120    2
    19   118   117    1
    20   155   154    1
    21   155   156    2
    22   157   154    1
    23   157   158    1
    24   167   168    1
    25   159   158    1
    26   160   158    1
    27   168   169    2
    28   109   108    2
    29   132   131    1
    30   132   133    2
    31   108   107    1
    32   130   131    1
    33   131   134    1
    34   169   170    1
    35   169   171    1
    36   137   135    1
    37   134   135    1
    38   107   110    1
    39   107   106    1
    40   135   136    1
    41   110   111    1
    42   106    96   am
    43    97    96    2
    44    96    95    1
    45   111   112    1
    46     9     8    1
    47    22    21    2
    48    98    95    1
    49    98    99    1
    50   112   113    1
    51    95    94    1
    52   144   142    1
    53   138   139    1
    54    21    27   am
    55    21    20    1
    56    99   101   ar
    57    99   100   ar
    58    28    27    1
    59    28    29    1
    60     8     7    1
    61   141   140    2
    62   113   114    2
    63   143   142    1
    64    34    33    2
    65    31    29   am
    66    31    32    1
    67    36    35    1
    68     7     6    1
    69   101   103   ar
    70   100   102   ar
    71    94    89   am
    72    26    24    1
    73    35    32    1
    74    13    12    2
    75   142   139    1
    76    20    23    1
    77    20    19    1
    78   139   140    1
    79    29    30    2
    80   115   114    1
    81   140   145   am
    82    32    33    1
    83    23    24    1
    84    33    37   am
    85   114   116    1
    86   102   104   ar
    87   103   104   ar
    88    89    90    2
    89    89    88    1
    90    92    91    1
    91    24    25    1
    92    12    19   am
    93    12    11    1
    94   149   150    1
    95   149   146    1
    96   152   150   ar
    97     6     5    1
    98    17    16    1
    99    17    18    1
   100   104   105    1
   101    37    38    1
   102   145   146    1
   103    15    16    1
   104    15    14    1
   105    38    39    1
   106   150   151   ar
   107    14    11    1
   108     5     2    1
   109   146   147    1
   110    88    91    1
   111    88    87    1
   112    62    63    1
   113    11    10    1
   114    91    93    1
   115   147   148    2
   116    39    40    2
   117    10     3   am
   118    66    63    1
   119    66    67    1
   120    63    64    1
   121     3     2    1
   122     3     4    2
   123    44    43    2
   124     2     1    1
   125    45    47    1
   126    45    46    1
   127    45    42    1
   128    81    80    2
   129    87    80   am
   130    86    84   ar
   131    80    79    1
   132    67    68    1
   133    68    69    1
   134    41    42    1
   135    43    42    1
   136    52    49    1
   137    64    65    2
   138    82    79    1
   139    82    83    1
   140    84    83    1
   141    84    85   ar
   142    79    78    1
   143    61    60    1
   144    60    59    1
   145    49    48    1
   146    49    50    1
   147    78    72   am
   148    77    76    1
   149    76    75    1
   150    74    75    1
   151    74    71    1
   152    72    73    2
   153    72    71    1
   154    50    51    2
   155    59    58    1
   156    58    57    1
   157    57    54    1
   158    71    70    1
   159    54    53    1
   160    54    55    1
   161    55    56    2
