@<TRIPOS>MOLECULE
tmp/3hzwA00.pdb
 126 119 0 0 0
SMALL
GASTEIGER

@<TRIPOS>ATOM
      1  N         29.8720   18.5410   35.6700 N.3     2  LEU2       -0.1245
      2  CA        29.0900   19.1150   34.5910 C.3     2  LEU2        0.1561
      3  C         28.5190   18.0460   33.6740 C.2     2  LEU2        0.2260
      4  O         27.5500   18.3080   32.9700 O.2     2  LEU2       -0.2867
      5  CB        29.9200   20.1380   33.7990 C.3     2  LEU2        0.0270
      6  CG        30.2330   21.4690   34.5130 C.3     2  LEU2        0.0019
      7  CD1       31.2870   22.2210   33.7270 C.3     2  LEU2        0.0001
      8  CD2       28.9890   22.3340   34.6700 C.3     2  LEU2        0.0001
      9  N         25.3860   16.9950   35.3540 N.3     5  LEU5       -0.1245
     10  CA        24.5240   18.1400   35.1990 C.3     5  LEU5        0.1561
     11  C         23.9210   18.3350   33.8180 C.2     5  LEU5        0.2260
     12  O         22.6980   18.4280   33.6990 O.2     5  LEU5       -0.2867
     13  CB        25.2730   19.3970   35.6100 C.3     5  LEU5        0.0270
     14  CG        24.5600   20.7200   35.3900 C.3     5  LEU5        0.0019
     15  CD1       23.3410   20.7810   36.2810 C.3     5  LEU5        0.0001
     16  CD2       25.5060   21.8810   35.7130 C.3     5  LEU5        0.0001
     17  N         20.0860   17.7520   32.7480 N.3     9  ILE9       -0.1245
     18  CA        19.3740   18.7840   32.0550 C.3     9  ILE9        0.1561
     19  C         18.7980   18.2950   30.7530 C.2     9  ILE9        0.2260
     20  O         17.7070   18.6930   30.3750 O.2     9  ILE9       -0.2867
     21  CB        20.2420   19.9920   31.7880 C.3     9  ILE9        0.0252
     22  CG1       20.5440   20.6930   33.0910 C.3     9  ILE9        0.0019
     23  CG2       19.5080   20.9550   30.8860 C.3     9  ILE9        0.0019
     24  CD1       21.4030   21.9430   32.9150 C.3     9  ILE9        0.0001
     25  N         21.8940   20.8770   26.6490 N.3    17  PRO17      -0.2116
     26  CA        22.2630   21.7380   27.7780 C.3    17  PRO17       0.1372
     27  C         23.2210   22.8720   27.4320 C.2    17  PRO17       0.2244
     28  O         23.0140   24.0220   27.8260 O.2    17  PRO17      -0.2868
     29  CB        22.8940   20.7660   28.7720 C.3    17  PRO17       0.0268
     30  CG        22.3990   19.4390   28.3440 C.3    17  PRO17       0.0207
     31  CD        22.3860   19.5110   26.8600 C.3    17  PRO17       0.0892
     32  N         21.5570   26.2220   27.6440 N.3    21  TYR21      -0.1227
     33  CA        21.8720   26.8170   28.9350 C.3    21  TYR21       0.1736
     34  C         23.3020   27.2990   29.0720 C.2    21  TYR21       0.2596
     35  O         23.6260   28.0810   29.9770 O.2    21  TYR21      -0.2718
     36  CB        21.3130   25.9140   30.0280 C.3    21  TYR21       0.0548
     37  CG        19.8520   25.5890   29.8280 C.ar   21  TYR21      -0.0200
     38  CD1       18.8560   26.5160   30.1580 C.ar   21  TYR21      -0.0009
     39  CD2       19.4610   24.3580   29.3190 C.ar   21  TYR21      -0.0009
     40  CE1       17.5030   26.2110   29.9850 C.ar   21  TYR21       0.0417
     41  CE2       18.1160   24.0450   29.1470 C.ar   21  TYR21       0.0417
     42  CZ        17.1450   24.9710   29.4820 C.ar   21  TYR21       0.1957
     43  OH        15.8190   24.6390   29.3400 O.3    21  TYR21      -0.2866
     44  N         24.1680   26.8250   28.1880 N.am   22  GLY22      -0.1957
     45  CA        25.5790   27.0710   28.3580 C.3    22  GLY22       0.1869
     46  C         25.8300   28.5470   28.6130 C.2    22  GLY22       0.2309
     47  O         26.6750   28.8920   29.4260 O.2    22  GLY22      -0.2863
     48  N         22.8330   33.9770   34.7420 N.3    27  ASN27      -0.1225
     49  CA        23.2480   32.8730   35.5790 C.3    27  ASN27       0.1785
     50  C         23.4560   31.5300   34.9230 C.2    27  ASN27       0.2597
     51  O         24.2120   30.7130   35.4300 O.2    27  ASN27      -0.2718
     52  CB        22.2380   32.7510   36.7030 C.3    27  ASN27       0.1169
     53  CG        22.0750   34.0490   37.4550 C.2    27  ASN27       0.2627
     54  OD1       22.8680   34.3670   38.3340 O.2    27  ASN27      -0.2716
     55  ND2       21.0600   34.8210   37.0930 N.am   27  ASN27      -0.0877
     56  N         22.7910   31.2860   33.8040 N.am   28  CYS28      -0.1956
     57  CA        22.9400   29.9980   33.1540 C.3    28  CYS28       0.1843
     58  C         24.1940   29.9790   32.3590 C.2    28  CYS28       0.2626
     59  O         24.2680   30.5340   31.2650 O.2    28  CYS28      -0.2714
     60  CB        21.7490   29.6890   32.2500 C.3    28  CYS28       0.0997
     61  SG        20.1820   29.6780   33.1620 S.3    28  CYS28      -0.0797
     62  N         25.2080   29.3530   32.9200 N.am   29  GLY29      -0.1954
     63  CA        26.4360   29.2910   32.1880 C.3    29  GLY29       0.1869
     64  C         27.6730   29.7050   32.9260 C.2    29  GLY29       0.2309
     65  O         27.8390   29.4510   34.1190 O.2    29  GLY29      -0.2863
     66  N         19.2110   28.7770   37.2400 N.3    44  CYS44      -0.1235
     67  CA        20.6640   28.6450   37.2540 C.3    44  CYS44       0.1677
     68  C         21.2490   29.4560   38.3770 C.2    44  CYS44       0.2270
     69  O         22.3210   29.1540   38.9000 O.2    44  CYS44      -0.2867
     70  CB        21.2450   29.1120   35.9340 C.3    44  CYS44       0.0956
     71  SG        20.5170   28.2260   34.5430 S.3    44  CYS44      -0.0801
     72  N         20.8140   27.4870   41.4910 N.3    47  HIS47      -0.1226
     73  CA        21.7700   26.4270   41.2770 C.3    47  HIS47       0.1752
     74  C         23.1730   26.8660   41.6830 C.2    47  HIS47       0.2595
     75  O         23.8820   26.1560   42.3970 O.2    47  HIS47      -0.2718
     76  CB        21.7140   26.0470   39.8060 C.3    47  HIS47       0.0759
     77  CG        22.6850   24.9900   39.4150 C.ar   47  HIS47       0.0818
     78  ND1       23.6600   25.2360   38.4840 N.ar   47  HIS47      -0.2268
     79  CD2       22.8440   23.7030   39.8070 C.ar   47  HIS47       0.1154
     80  CE1       24.3890   24.1460   38.3140 C.ar   47  HIS47       0.1986
     81  NE2       23.9140   23.2000   39.1050 N.ar   47  HIS47      -0.2212
     82  N         23.5800   28.0390   41.2300 N.am   48  LYS48      -0.1980
     83  CA        24.8940   28.5290   41.5980 C.3    48  LYS48       0.1596
     84  C         24.9510   28.7670   43.0990 C.2    48  LYS48       0.2287
     85  O         25.9290   28.4100   43.7450 O.2    48  LYS48      -0.2864
     86  CB        25.2240   29.7950   40.8100 C.3    48  LYS48       0.0298
     87  CG        25.9700   29.4880   39.5240 C.3    48  LYS48       0.0038
     88  CD        25.7730   30.5640   38.4960 C.3    48  LYS48       0.0206
     89  CE        26.6180   30.2720   37.2850 C.3    48  LYS48       0.1093
     90  NZ        26.4720   31.3260   36.2420 N.3    48  LYS48      -0.1314
     91  N         25.4980   25.6160   44.6420 N.3    51  TYR51      -0.1241
     92  CA        26.8730   25.1790   44.4580 C.3    51  TYR51       0.1605
     93  C         27.7910   25.8340   45.4810 C.2    51  TYR51       0.2264
     94  O         28.7480   25.2260   45.9510 O.2    51  TYR51      -0.2867
     95  CB        27.3560   25.5620   43.0590 C.3    51  TYR51       0.0534
     96  CG        27.1820   24.4990   42.0070 C.ar   51  TYR51      -0.0201
     97  CD1       26.2510   23.4720   42.1640 C.ar   51  TYR51      -0.0009
     98  CD2       27.9380   24.5330   40.8340 C.ar   51  TYR51      -0.0009
     99  CE1       26.0830   22.5050   41.1800 C.ar   51  TYR51       0.0417
    100  CE2       27.7730   23.5770   39.8460 C.ar   51  TYR51       0.0417
    101  CZ        26.8470   22.5650   40.0240 C.ar   51  TYR51       0.1957
    102  OH        26.6940   21.6160   39.0520 O.3    51  TYR51      -0.2866
    103  N         31.9950   21.2950   39.7100 N.3    60  LYS60      -0.1245
    104  CA        32.2700   21.2320   38.2900 C.3    60  LYS60       0.1561
    105  C         32.9040   19.9370   37.8420 C.2    60  LYS60       0.2260
    106  O         32.5710   19.4060   36.7830 O.2    60  LYS60      -0.2867
    107  CB        33.1880   22.3830   37.9090 C.3    60  LYS60       0.0271
    108  CG        32.6500   23.7490   38.2940 C.3    60  LYS60       0.0035
    109  CD        31.3160   24.0220   37.6070 C.3    60  LYS60       0.0206
    110  CE        30.8760   25.4510   37.8370 C.3    60  LYS60       0.1093
    111  NZ        31.8830   26.4140   37.3010 N.3    60  LYS60      -0.1314
    112  N         18.2080   22.0400   39.5630 N.3    92  VAL92      -0.1245
    113  CA        18.2540   22.9890   38.4720 C.3    92  VAL92       0.1561
    114  C         17.6780   22.3890   37.1830 C.2    92  VAL92       0.2260
    115  O         16.9980   23.0810   36.4280 O.2    92  VAL92      -0.2867
    116  CB        19.7000   23.5250   38.2570 C.3    92  VAL92       0.0252
    117  CG1       20.5660   22.5050   37.4660 C.3    92  VAL92       0.0019
    118  CG2       19.6250   24.8450   37.5640 C.3    92  VAL92       0.0019
    119  N         14.7680   24.0820   35.2180 N.3    96  LEU96      -0.1245
    120  CA        14.8830   24.5070   33.8370 C.3    96  LEU96       0.1561
    121  C         13.7210   23.9170   33.0600 C.2    96  LEU96       0.2260
    122  O         13.0740   24.6080   32.2840 O.2    96  LEU96      -0.2867
    123  CB        16.2010   24.0450   33.2150 C.3    96  LEU96       0.0270
    124  CG        17.4480   24.7130   33.7870 C.3    96  LEU96       0.0019
    125  CD1       18.6980   24.1670   33.1130 C.3    96  LEU96       0.0001
    126  CD2       17.3430   26.2110   33.6010 C.3    96  LEU96       0.0001
@<TRIPOS>BOND
     1    25    31    1
     2    25    26    1
     3    31    30    1
     4    27    26    1
     5    27    28    2
     6    32    33    1
     7    26    29    1
     8    44    45    1
     9    44    34   am
    10    30    29    1
    11    45    46    1
    12    46    47    2
    13    33    34    1
    14    33    36    1
    15    34    35    2
    16    41    39   ar
    17    41    42   ar
    18    39    37   ar
    19    43    42    1
    20    42    40   ar
    21    37    36    1
    22    37    38   ar
    23    40    38   ar
    24    20    19    2
    25    19    18    1
    26    23    21    1
    27    59    58    2
    28    21    18    1
    29    21    22    1
    30    18    17    1
    31    63    62    1
    32    63    64    1
    33    60    57    1
    34    60    61    1
    35   122   121    2
    36    58    62   am
    37    58    57    1
    38    24    22    1
    39    64    65    2
    40     4     3    2
    41   121   120    1
    42   125   124    1
    43    57    56    1
    44    61    71    1
    45   123   124    1
    46   123   120    1
    47   126   124    1
    48     3     2    1
    49    12    11    2
    50     7     6    1
    51     5     6    1
    52     5     2    1
    53    56    50   am
    54    11    10    1
    55   120   119    1
    56     6     8    1
    57    71    70    1
    58     2     1    1
    59    48    49    1
    60    50    51    2
    61    50    49    1
    62    10     9    1
    63    10    13    1
    64    14    13    1
    65    14    16    1
    66    14    15    1
    67    49    52    1
    68    70    67    1
    69    90    89    1
    70   115   114    2
    71    52    53    1
    72   106   105    2
    73    55    53   am
    74   114   113    1
    75    66    67    1
    76    67    68    1
    77    89    88    1
    78   111   110    1
    79    53    54    2
    80   117   116    1
    81   118   116    1
    82   109   110    1
    83   109   108    1
    84   105   104    1
    85   107   104    1
    86   107   108    1
    87   116   113    1
    88   104   103    1
    89    80    78   ar
    90    80    81   ar
    91    68    69    2
    92   113   112    1
    93    78    77   ar
    94    88    87    1
    95   102   101    1
    96    81    79   ar
    97    77    76    1
    98    77    79   ar
    99    87    86    1
   100    76    73    1
   101   100   101   ar
   102   100    98   ar
   103   101    99   ar
   104    86    83    1
   105    98    96   ar
   106    99    97   ar
   107    82    83    1
   108    82    74   am
   109    73    72    1
   110    73    74    1
   111    83    84    1
   112    74    75    2
   113    96    97   ar
   114    96    95    1
   115    95    92    1
   116    84    85    2
   117    92    91    1
   118    92    93    1
   119    93    94    2
