@<TRIPOS>MOLECULE
tmp/3i06A00.pdb
 113 109 0 0 0
SMALL
GASTEIGER

@<TRIPOS>ATOM
      1  N         -8.8330  -25.2570   -3.3670 N.3    19  GLN19      -0.1245
      2  CA        -9.3590  -26.6220   -3.5050 C.3    19  GLN19       0.1566
      3  C        -10.8350  -26.7060   -3.0980 C.2    19  GLN19       0.2260
      4  O        -11.5230  -27.6590   -3.4480 O.2    19  GLN19      -0.2867
      5  CB        -8.5170  -27.6020   -2.7080 C.3    19  GLN19       0.0367
      6  CG        -8.5900  -27.4550   -1.1840 C.3    19  GLN19       0.0905
      7  CD        -7.6880  -28.4560   -0.5260 C.2    19  GLN19       0.2608
      8  OE1       -6.4900  -28.2480   -0.3550 O.2    19  GLN19      -0.2717
      9  NE2       -8.2320  -29.5860   -0.1190 N.am   19  GLN19      -0.0878
     10  N        -11.2880  -32.9840   -0.7760 N.3    23  GLY23      -0.1225
     11  CA        -9.9970  -33.4290   -0.2710 C.3    23  GLY23       0.1811
     12  C         -8.9920  -33.7390   -1.3920 C.2    23  GLY23       0.2280
     13  O         -8.4050  -34.7890   -1.4700 O.2    23  GLY23      -0.2866
     14  N         -6.1500  -31.9110   -2.0650 N.3    25  CYS25      -0.1221
     15  CA        -4.8390  -31.3300   -1.8730 C.3    25  CYS25       0.1808
     16  C         -3.7340  -32.0680   -2.5670 C.2    25  CYS25       0.2601
     17  O         -2.7890  -31.4650   -3.0690 O.2    25  CYS25      -0.2717
     18  CB        -4.5200  -31.2780   -0.3290 C.3    25  CYS25       0.0970
     19  SG        -4.5440  -32.9350    0.4490 S.3    25  CYS25      -0.0800
     20  N         -3.8270  -33.4120   -2.6220 N.am   26  TRP26      -0.1976
     21  CA        -2.8120  -34.2580   -3.2500 C.3    26  TRP26       0.1640
     22  C         -2.6960  -33.8960   -4.7480 C.2    26  TRP26       0.2290
     23  O         -1.6130  -33.9640   -5.3180 O.2    26  TRP26      -0.2864
     24  CB        -3.2180  -35.7320   -3.0560 C.3    26  TRP26       0.0576
     25  CG        -4.5990  -36.0720   -3.5840 C.ar   26  TRP26       0.0006
     26  CD1       -5.7740  -35.9430   -2.9300 C.ar   26  TRP26       0.0946
     27  CD2       -4.9090  -36.5910   -4.8800 C.ar   26  TRP26       0.0152
     28  NE1       -6.8020  -36.2770   -3.7670 N.ar   26  TRP26      -0.2442
     29  CE2       -6.2960  -36.7160   -4.9480 C.ar   26  TRP26       0.0810
     30  CE3       -4.1260  -36.9960   -5.9880 C.ar   26  TRP26       0.0012
     31  CZ2       -6.9510  -37.2080   -6.0850 C.ar   26  TRP26       0.0191
     32  CZ3       -4.7670  -37.4840   -7.0860 C.ar   26  TRP26       0.0001
     33  CH2       -6.1530  -37.5570   -7.1450 C.ar   26  TRP26       0.0015
     34  N        -12.1270  -36.6560   -4.0370 N.3    63  CYS63      -0.1221
     35  CA       -12.2990  -35.7420   -2.9160 C.3    63  CYS63       0.1808
     36  C        -12.1080  -36.4050   -1.5890 C.2    63  CYS63       0.2602
     37  O        -12.1390  -35.7210   -0.5570 O.2    63  CYS63      -0.2717
     38  CB       -13.6530  -35.0340   -2.9770 C.3    63  CYS63       0.0970
     39  SG       -13.8420  -33.8980   -4.3520 S.3    63  CYS63      -0.0800
     40  N        -11.8750  -37.7190   -1.5700 N.am   64  SER64      -0.1938
     41  CA       -11.6020  -38.4300   -0.3300 C.3    64  SER64       0.2055
     42  C        -10.1190  -38.5330   -0.0420 C.2    64  SER64       0.2644
     43  O         -9.7680  -39.0340    1.0050 O.2    64  SER64      -0.2714
     44  CB       -12.1940  -39.8310   -0.3800 C.3    64  SER64       0.2130
     45  OG       -13.6060  -39.7290   -0.4430 O.3    64  SER64      -0.2179
     46  N         -9.2370  -38.0870   -0.9060 N.am   65  GLY65      -0.1939
     47  CA        -7.7830  -38.0950   -0.6460 C.3    65  GLY65       0.2014
     48  C         -7.0300  -38.8470   -1.7200 C.2    65  GLY65       0.2639
     49  O         -7.6170  -39.3570   -2.6920 O.2    65  GLY65      -0.2714
     50  N         -5.7060  -38.9100   -1.5480 N.am   66  GLY66      -0.1939
     51  CA        -4.8160  -39.4730   -2.5340 C.3    66  GLY66       0.2014
     52  C         -3.4160  -39.1500   -2.1480 C.2    66  GLY66       0.2639
     53  O         -3.1280  -38.5770   -1.1150 O.2    66  GLY66      -0.2714
     54  N         -2.5000  -39.5650   -3.0330 N.am   67  LEU67      -0.1963
     55  CA        -1.0370  -39.4030   -2.8450 C.3    67  LEU67       0.1728
     56  C         -0.4300  -38.8790   -4.1250 C.2    67  LEU67       0.2616
     57  O         -0.6790  -39.4430   -5.2120 O.2    67  LEU67      -0.2715
     58  CB        -0.3930  -40.7010   -2.4410 C.3    67  LEU67       0.0311
     59  CG        -0.7270  -41.2730   -1.0870 C.3    67  LEU67       0.0022
     60  CD1       -0.0900  -42.6470   -0.9150 C.3    67  LEU67       0.0001
     61  CD2       -0.3550  -40.3390    0.0830 C.3    67  LEU67       0.0001
     62  N          0.4590  -37.9290   -4.0290 N.am   68  MET68      -0.1977
     63  CA         1.1830  -37.3870   -5.1750 C.3    68  MET68       0.1605
     64  C          1.9400  -38.4580   -5.9170 C.2    68  MET68       0.2287
     65  O          1.9570  -38.4660   -7.1600 O.2    68  MET68      -0.2864
     66  CB         2.1070  -36.2730   -4.7860 C.3    68  MET68       0.0413
     67  CG         1.4030  -35.0350   -4.2560 C.3    68  MET68       0.0598
     68  SD         0.7720  -35.1450   -2.5380 S.3    68  MET68      -0.1393
     69  CE         2.2850  -34.8980   -1.5820 C.3    68  MET68       0.0692
     70  N          4.1410  -34.4380    1.3600 N.3   138  ALA138     -0.1245
     71  CA         3.0920  -34.7470    2.3250 C.3   138  ALA138      0.1562
     72  C          3.4440  -34.1150    3.6580 C.2   138  ALA138      0.2260
     73  O          4.5980  -34.1090    4.0940 O.2   138  ALA138     -0.2867
     74  CB         2.9260  -36.2480    2.4660 C.3   138  ALA138      0.0290
     75  N          0.6270  -37.9860    8.3270 N.3   160  LEU160     -0.1231
     76  CA         0.5200  -37.3170    7.0560 C.3   160  LEU160      0.1693
     77  C         -0.9650  -37.2490    6.6790 C.2   160  LEU160      0.2592
     78  O         -1.6480  -38.2790    6.6660 O.2   160  LEU160     -0.2718
     79  CB         1.3120  -38.0980    5.9920 C.3   160  LEU160      0.0284
     80  CG         2.8190  -38.1870    6.2430 C.3   160  LEU160      0.0019
     81  CD1        3.4660  -39.1130    5.2040 C.3   160  LEU160      0.0001
     82  CD2        3.4560  -36.8050    6.2480 C.3   160  LEU160      0.0001
     83  N         -1.4560  -36.0650    6.3790 N.am  161  ASP161     -0.1960
     84  CA        -2.8890  -35.8880    6.1070 C.3   161  ASP161      0.1840
     85  C         -3.1770  -34.8150    5.0820 C.2   161  ASP161      0.2622
     86  O         -4.3370  -34.4980    4.8790 O.2   161  ASP161     -0.2715
     87  CB        -3.6330  -35.6050    7.4080 C.3   161  ASP161      0.1450
     88  CG        -3.2790  -34.2750    8.0460 C.2   161  ASP161      0.3671
     89  OD1       -3.7170  -33.9930    9.2060 O.co2 161  ASP161     -0.2456
     90  OD2       -2.6080  -33.4470    7.4450 O.co2 161  ASP161     -0.2456
     91  N         -2.1440  -34.2930    4.3980 N.am  162  HIS162     -0.1959
     92  CA        -2.3170  -33.2060    3.4640 C.3   162  HIS162      0.1787
     93  C         -1.1030  -33.2620    2.4960 C.2   162  HIS162      0.2620
     94  O         -0.0680  -33.8550    2.8320 O.2   162  HIS162     -0.2715
     95  CB        -2.4460  -31.8920    4.2840 C.3   162  HIS162      0.0785
     96  CG        -2.9590  -30.6770    3.5580 C.ar  162  HIS162      0.0821
     97  ND1       -4.2500  -30.5630    3.0860 N.ar  162  HIS162     -0.2267
     98  CD2       -2.3350  -29.5060    3.3090 C.ar  162  HIS162      0.1154
     99  CE1       -4.3540  -29.3930    2.5030 C.ar  162  HIS162      0.1986
    100  NE2       -3.2110  -28.7280    2.5990 N.ar  162  HIS162     -0.2212
    101  N         -1.2440  -32.5910    1.3680 N.am  163  GLY163     -0.1954
    102  CA        -0.1600  -32.4330    0.3890 C.3   163  GLY163      0.1869
    103  C         -0.0410  -31.0160   -0.0410 C.2   163  GLY163      0.2309
    104  O         -1.0650  -30.3560   -0.2700 O.2   163  GLY163     -0.2863
    105  N          7.8320  -37.7250    2.6800 N.3   208  GLU208     -0.1245
    106  CA         7.2960  -38.1320    1.3810 C.3   208  GLU208      0.1567
    107  C          7.3830  -36.9680    0.4170 C.2   208  GLU208      0.2260
    108  O          6.3630  -36.3640    0.0140 O.2   208  GLU208     -0.2867
    109  CB         5.8520  -38.6290    1.5890 C.3   208  GLU208      0.0388
    110  CG         5.3240  -39.3960    0.3960 C.3   208  GLU208      0.1160
    111  CD         4.0330  -40.0910    0.6790 C.2   208  GLU208      0.3649
    112  OE1        3.3160  -40.4760   -0.2140 O.co2 208  GLU208     -0.2457
    113  OE2        3.7280  -40.3540    1.8810 O.co2 208  GLU208     -0.2457
@<TRIPOS>BOND
     1    65    64    2
     2    33    32   ar
     3    33    31   ar
     4    32    30   ar
     5    31    29   ar
     6    30    27   ar
     7    64    63    1
     8    23    22    2
     9    57    56    2
    10    63    66    1
    11    63    62    1
    12    29    27   ar
    13    29    28   ar
    14    27    25   ar
    15    66    67    1
    16    22    21    1
    17    39    38    1
    18    67    68    1
    19    56    62   am
    20    56    55    1
    21    34    35    1
    22    28    26   ar
    23    25    24    1
    24    25    26   ar
    25     2     1    1
    26     2     3    1
    27     2     5    1
    28     4     3    2
    29    21    24    1
    30    21    20    1
    31    17    16    2
    32    54    55    1
    33    54    52   am
    34    38    35    1
    35    35    36    1
    36    55    58    1
    37     5     6    1
    38    49    48    2
    39    20    16   am
    40    16    15    1
    41    68    69    1
    42    51    52    1
    43    51    50    1
    44    58    59    1
    45    52    53    2
    46    14    15    1
    47    15    18    1
    48    48    50   am
    49    48    47    1
    50    36    40   am
    51    36    37    2
    52    40    41    1
    53    13    12    2
    54    12    11    1
    55     6     7    1
    56    59    60    1
    57    59    61    1
    58    46    47    1
    59    46    42   am
    60    10    11    1
    61     7     8    2
    62     7     9   am
    63    45    44    1
    64    44    41    1
    65    41    42    1
    66    18    19    1
    67   104   103    2
    68   112   111   ar
    69    42    43    2
    70   103   102    1
    71   108   107    2
    72   102   101    1
    73   110   111    1
    74   110   109    1
    75   107   106    1
    76   111   113   ar
    77    70    71    1
    78   101    93   am
    79   106   109    1
    80   106   105    1
    81    71    74    1
    82    71    72    1
    83    93    94    2
    84    93    92    1
    85    99   100   ar
    86    99    97   ar
    87   100    98   ar
    88    97    96   ar
    89    98    96   ar
    90    92    95    1
    91    92    91    1
    92    96    95    1
    93    72    73    2
    94    91    85   am
    95    86    85    2
    96    85    84    1
    97    81    80    1
    98    79    80    1
    99    79    76    1
   100    84    83    1
   101    84    87    1
   102    80    82    1
   103    83    77   am
   104    78    77    2
   105    77    76    1
   106    76    75    1
   107    87    88    1
   108    90    88   ar
   109    88    89   ar
