@<TRIPOS>MOLECULE
tmp/3i09A00.pdb
 113 108 0 0 0
SMALL
GASTEIGER

@<TRIPOS>ATOM
      1  N          3.4160   29.3020   27.1070 N.3    16  TYR16      -0.1241
      2  CA         3.2400   28.0450   27.8670 C.3    16  TYR16       0.1605
      3  C          2.3390   27.0050   27.1760 C.2    16  TYR16       0.2264
      4  O          2.0600   25.9460   27.7530 O.2    16  TYR16      -0.2867
      5  CB         2.7000   28.3450   29.2780 C.3    16  TYR16       0.0534
      6  CG         3.5900   29.2580   30.0890 C.ar   16  TYR16      -0.0201
      7  CD1        4.9440   29.0970   30.0930 C.ar   16  TYR16      -0.0009
      8  CD2        3.0430   30.2880   30.8930 C.ar   16  TYR16      -0.0009
      9  CE1        5.7730   29.9180   30.8670 C.ar   16  TYR16       0.0417
     10  CE2        3.8500   31.1200   31.6500 C.ar   16  TYR16       0.0417
     11  CZ         5.2230   30.9240   31.6410 C.ar   16  TYR16       0.1957
     12  OH         6.0660   31.7200   32.3840 O.3    16  TYR16      -0.2866
     13  N          3.8690   23.2370   26.6080 N.3    19  ILE19      -0.1245
     14  CA         4.1460   22.4010   27.7870 C.3    19  ILE19       0.1561
     15  C          2.8410   21.9260   28.4850 C.2    19  ILE19       0.2260
     16  O          2.8510   21.0130   29.3090 O.2    19  ILE19      -0.2867
     17  CB         5.0660   23.1440   28.8160 C.3    19  ILE19       0.0252
     18  CG1        4.4320   24.4520   29.2840 C.3    19  ILE19       0.0019
     19  CG2        6.4630   23.4100   28.2480 C.3    19  ILE19       0.0019
     20  CD1        5.1640   25.0700   30.4610 C.3    19  ILE19       0.0001
     21  N         -1.2910   26.6330   33.5380 N.3    76  THR76      -0.1203
     22  CA        -0.0590   27.3940   33.6830 C.3    76  THR76       0.1994
     23  C         -0.3430   28.8450   34.1140 C.2    76  THR76       0.2618
     24  O         -1.4820   29.3140   34.0860 O.2    76  THR76      -0.2717
     25  CB         0.7450   27.3470   32.3680 C.3    76  THR76       0.1784
     26  OG1       -0.0970   27.7130   31.2770 O.3    76  THR76      -0.2211
     27  CG2        1.3050   25.9060   32.0980 C.3    76  THR76       0.0376
     28  N          0.7260   29.4960   34.5650 N.am   77  ASN77      -0.1960
     29  CA         0.7780   30.9110   34.9050 C.3    77  ASN77       0.1819
     30  C          0.3180   31.1610   36.3560 C.2    77  ASN77       0.2622
     31  O         -0.8710   31.0700   36.6660 O.2    77  ASN77      -0.2715
     32  CB         0.0170   31.7610   33.8940 C.3    77  ASN77       0.1195
     33  CG         0.1900   33.2650   34.1600 C.2    77  ASN77       0.2630
     34  OD1        0.1350   33.7080   35.3330 O.2    77  ASN77      -0.2716
     35  ND2        0.3930   34.0550   33.0890 N.am   77  ASN77      -0.0877
     36  N          1.2820   31.4390   37.2340 N.am   78  SER78      -0.1950
     37  CA         0.9890   31.5890   38.6550 C.3    78  SER78       0.1924
     38  C          0.0970   32.7940   38.9750 C.2    78  SER78       0.2314
     39  O         -0.5920   32.7570   39.9690 O.2    78  SER78      -0.2863
     40  CB         2.2640   31.6700   39.5030 C.3    78  SER78       0.2116
     41  OG         2.9230   30.4210   39.5810 O.3    78  SER78      -0.2180
     42  N         -0.3790   23.3320   36.4250 N.3    98  GLY98      -0.1210
     43  CA         0.6250   23.9650   35.5940 C.3    98  GLY98       0.1956
     44  C          1.4580   25.0520   36.2530 C.2    98  GLY98       0.2612
     45  O          2.5740   25.3220   35.7930 O.2    98  GLY98      -0.2717
     46  N          0.9330   25.6630   37.3170 N.am   99  ALA99      -0.1965
     47  CA         1.5600   26.8080   37.9540 C.3    99  ALA99       0.1728
     48  C          2.4540   26.3580   39.0900 C.2    99  ALA99       0.2616
     49  O          2.2160   25.3450   39.7240 O.2    99  ALA99      -0.2715
     50  CB         0.5020   27.8080   38.4660 C.3    99  ALA99       0.0334
     51  N          3.5250   27.1100   39.3120 N.am  100  GLY100     -0.1955
     52  CA         4.4980   26.7600   40.3090 C.3   100  GLY100      0.1869
     53  C          4.5390   27.4710   41.6240 C.2   100  GLY100      0.2309
     54  O          5.0880   26.9360   42.5630 O.2   100  GLY100     -0.2863
     55  N          4.1940   20.1760   41.0230 N.3   118  TYR118     -0.1241
     56  CA         5.4910   20.7360   41.4250 C.3   118  TYR118      0.1605
     57  C          5.2290   22.0940   42.0690 C.2   118  TYR118      0.2264
     58  O          4.1490   22.6260   41.9400 O.2   118  TYR118     -0.2867
     59  CB         6.4500   20.9200   40.2520 C.3   118  TYR118      0.0534
     60  CG         6.1000   22.0590   39.3590 C.ar  118  TYR118     -0.0201
     61  CD1        4.9670   22.0090   38.5510 C.ar  118  TYR118     -0.0009
     62  CD2        6.7970   23.2630   39.4220 C.ar  118  TYR118     -0.0009
     63  CE1        4.5930   23.1120   37.7480 C.ar  118  TYR118      0.0417
     64  CE2        6.4570   24.3510   38.5940 C.ar  118  TYR118      0.0417
     65  CZ         5.3490   24.2830   37.7930 C.ar  118  TYR118      0.1957
     66  OH         5.0080   25.3730   37.0090 O.3   118  TYR118     -0.2866
     67  N          6.5300   38.6620   37.4640 N.3   145  TYR145     -0.1241
     68  CA         5.1830   38.3380   37.9330 C.3   145  TYR145      0.1605
     69  C          5.3190   37.2940   39.0340 C.2   145  TYR145      0.2264
     70  O          6.4300   36.9510   39.4120 O.2   145  TYR145     -0.2867
     71  CB         4.2490   37.8620   36.8000 C.3   145  TYR145      0.0534
     72  CG         4.4860   36.4750   36.2790 C.ar  145  TYR145     -0.0201
     73  CD1        5.6760   36.1390   35.6460 C.ar  145  TYR145     -0.0009
     74  CD2        3.4750   35.5110   36.3350 C.ar  145  TYR145     -0.0009
     75  CE1        5.8810   34.8370   35.1260 C.ar  145  TYR145      0.0417
     76  CE2        3.6690   34.2400   35.8310 C.ar  145  TYR145      0.0417
     77  CZ         4.8540   33.9100   35.2060 C.ar  145  TYR145      0.1957
     78  OH         5.0190   32.6280   34.7000 O.3   145  TYR145     -0.2866
     79  N          5.1590   34.1400   39.5630 N.3   147  PHE147     -0.1241
     80  CA         6.0170   32.9710   39.4390 C.3   147  PHE147      0.1605
     81  C          7.4990   33.2890   39.5860 C.2   147  PHE147      0.2264
     82  O          8.1930   32.6380   40.3560 O.2   147  PHE147     -0.2867
     83  CB         5.7930   32.2480   38.0980 C.3   147  PHE147      0.0534
     84  CG         6.7850   31.1780   37.8350 C.ar  147  PHE147     -0.0203
     85  CD1        6.7510   29.9910   38.5660 C.ar  147  PHE147     -0.0042
     86  CD2        7.7890   31.3590   36.8840 C.ar  147  PHE147     -0.0042
     87  CE1        7.6740   28.9940   38.3320 C.ar  147  PHE147     -0.0003
     88  CE2        8.7410   30.3770   36.6660 C.ar  147  PHE147     -0.0003
     89  CZ         8.6780   29.1750   37.3820 C.ar  147  PHE147     -0.0000
     90  N         10.1940   30.6220   32.7580 N.3   199  ALA199     -0.1245
     91  CA         9.6860   29.3130   32.2900 C.3   199  ALA199      0.1562
     92  C          9.3190   29.3590   30.8200 C.2   199  ALA199      0.2260
     93  O          9.1800   30.4340   30.2130 O.2   199  ALA199     -0.2867
     94  CB         8.4710   28.9160   33.0960 C.3   199  ALA199      0.0290
     95  N         13.3520   26.1080   35.8980 N.3   224  LEU224     -0.1245
     96  CA        12.1680   25.3520   35.4530 C.3   224  LEU224      0.1561
     97  C         12.2690   25.0880   33.9490 C.2   224  LEU224      0.2260
     98  O         12.3100   26.0180   33.1370 O.2   224  LEU224     -0.2867
     99  CB        10.8570   26.0480   35.7810 C.3   224  LEU224      0.0270
    100  CG         9.6070   25.2490   35.4470 C.3   224  LEU224      0.0019
    101  CD1        9.6120   23.8040   36.0810 C.3   224  LEU224      0.0001
    102  CD2        8.3210   26.0750   35.8300 C.3   224  LEU224      0.0001
    103  N         10.8830   22.1050   30.9980 N.3   225  PHE225     -0.1241
    104  CA        10.0810   20.9520   30.6840 C.3   225  PHE225      0.1605
    105  C         10.6500   20.2850   29.4270 C.2   225  PHE225      0.2264
    106  O         11.4770   20.8570   28.7220 O.2   225  PHE225     -0.2867
    107  CB         8.6160   21.3840   30.4460 C.3   225  PHE225      0.0534
    108  CG         7.9570   21.9240   31.6660 C.ar  225  PHE225     -0.0203
    109  CD1        7.4300   21.0690   32.6180 C.ar  225  PHE225     -0.0042
    110  CD2        7.9390   23.2980   31.9020 C.ar  225  PHE225     -0.0042
    111  CE1        6.8190   21.5830   33.7820 C.ar  225  PHE225     -0.0003
    112  CE2        7.3280   23.8040   33.0610 C.ar  225  PHE225     -0.0003
    113  CZ         6.7990   22.9520   33.9910 C.ar  225  PHE225     -0.0000
@<TRIPOS>BOND
     1    13    14    1
     2     1     2    1
     3     3     4    2
     4     3     2    1
     5    14    15    1
     6    14    17    1
     7     2     5    1
     8    19    17    1
     9    15    16    2
    10   106   105    2
    11    17    18    1
    12     5     6    1
    13    18    20    1
    14   105   104    1
    15     6     7   ar
    16     6     8   ar
    17     7     9   ar
    18    93    92    2
    19   107   104    1
    20   107   108    1
    21   104   103    1
    22    92    91    1
    23     9    11   ar
    24     8    10   ar
    25    26    25    1
    26    11    10   ar
    27    11    12    1
    28   108   110   ar
    29   108   109   ar
    30   110   112   ar
    31    27    25    1
    32    91    90    1
    33    91    94    1
    34    25    22    1
    35   109   111   ar
    36   112   113   ar
    37    35    33   am
    38    98    97    2
    39    21    22    1
    40    22    23    1
    41   111   113   ar
    42    32    33    1
    43    32    29    1
    44    97    96    1
    45    24    23    2
    46    23    28   am
    47    33    34    2
    48    28    29    1
    49    78    77    1
    50    29    30    1
    51    75    77   ar
    52    75    73   ar
    53    77    76   ar
    54   100    99    1
    55   100   102    1
    56   100   101    1
    57    96    99    1
    58    96    95    1
    59    43    44    1
    60    43    42    1
    61    73    72   ar
    62    45    44    2
    63    76    74   ar
    64    44    46   am
    65    72    74   ar
    66    72    71    1
    67    30    31    2
    68    30    36   am
    69    88    86   ar
    70    88    89   ar
    71    71    68    1
    72    86    84   ar
    73    66    65    1
    74    36    37    1
    75    46    47    1
    76    89    87   ar
    77    67    68    1
    78    63    65   ar
    79    63    61   ar
    80    65    64   ar
    81    84    83    1
    82    84    85   ar
    83    68    69    1
    84    47    50    1
    85    47    48    1
    86    83    80    1
    87    87    85   ar
    88    61    60   ar
    89    64    62   ar
    90    37    38    1
    91    37    40    1
    92    38    39    2
    93    69    70    2
    94    48    51   am
    95    48    49    2
    96    51    52    1
    97    60    62   ar
    98    60    59    1
    99    80    79    1
   100    80    81    1
   101    40    41    1
   102    81    82    2
   103    59    56    1
   104    52    53    1
   105    55    56    1
   106    56    57    1
   107    53    54    2
   108    58    57    2
