@<TRIPOS>MOLECULE
tmp/3i0aA00.pdb
 139 132 0 0 0
SMALL
GASTEIGER

@<TRIPOS>ATOM
      1  N         36.7000   78.5910   54.9180 N.3    32  LEU32      -0.1245
      2  CA        35.6430   79.0780   55.8060 C.3    32  LEU32       0.1561
      3  C         35.3980   80.5730   55.6130 C.2    32  LEU32       0.2260
      4  O         36.3270   81.3810   55.7150 O.2    32  LEU32      -0.2867
      5  CB        36.0050   78.8000   57.2690 C.3    32  LEU32       0.0270
      6  CG        34.9220   79.0730   58.3180 C.3    32  LEU32       0.0019
      7  CD1       33.7370   78.1430   58.1320 C.3    32  LEU32       0.0001
      8  CD2       35.4900   78.9280   59.7170 C.3    32  LEU32       0.0001
      9  N         30.5520   86.7360   60.4060 N.3    36  ALA36      -0.1231
     10  CA        31.1690   86.7430   61.7310 C.3    36  ALA36       0.1694
     11  C         32.5920   86.1750   61.7170 C.2    36  ALA36       0.2591
     12  O         33.2420   86.1150   62.7590 O.2    36  ALA36      -0.2718
     13  CB        30.3020   85.9670   62.7100 C.3    36  ALA36       0.0304
     14  N         33.0720   85.7650   60.5440 N.am   37  ILE37      -0.1980
     15  CA        34.4240   85.2130   60.4040 C.3    37  ILE37       0.1595
     16  C         35.3950   86.3020   59.9550 C.2    37  ILE37       0.2287
     17  O         35.1160   87.0290   59.0040 O.2    37  ILE37      -0.2864
     18  CB        34.4820   84.0550   59.3780 C.3    37  ILE37       0.0276
     19  CG1       33.3170   83.0750   59.5700 C.3    37  ILE37       0.0022
     20  CG2       35.8050   83.3130   59.4980 C.3    37  ILE37       0.0022
     21  CD1       33.2110   82.5030   60.9650 C.3    37  ILE37       0.0001
     22  N         43.4600   80.6130   61.9010 N.3    45  GLN45      -0.1245
     23  CA        42.4700   79.5520   62.0760 C.3    45  GLN45       0.1566
     24  C         43.0460   78.1850   61.7020 C.2    45  GLN45       0.2260
     25  O         43.4930   77.9820   60.5750 O.2    45  GLN45      -0.2867
     26  CB        41.2410   79.8500   61.2060 C.3    45  GLN45       0.0367
     27  CG        40.2070   78.7330   61.1280 C.3    45  GLN45       0.0905
     28  CD        39.5200   78.4880   62.4470 C.2    45  GLN45       0.2608
     29  OE1       38.9880   79.4130   63.0570 O.2    45  GLN45      -0.2717
     30  NE2       39.5230   77.2380   62.8980 N.am   45  GLN45      -0.0878
     31  N         39.7910   72.1160   60.8960 N.3    48  TYR48      -0.1241
     32  CA        39.0380   71.1550   61.6870 C.3    48  TYR48       0.1605
     33  C         38.2600   70.2310   60.7560 C.2    48  TYR48       0.2264
     34  O         38.2430   70.4350   59.5420 O.2    48  TYR48      -0.2867
     35  CB        38.1160   71.8600   62.6950 C.3    48  TYR48       0.0534
     36  CG        37.0020   72.6950   62.1020 C.ar   48  TYR48      -0.0201
     37  CD1       37.1960   74.0380   61.8010 C.ar   48  TYR48      -0.0009
     38  CD2       35.7420   72.1470   61.8780 C.ar   48  TYR48      -0.0009
     39  CE1       36.1700   74.8110   61.2730 C.ar   48  TYR48       0.0417
     40  CE2       34.7110   72.9060   61.3500 C.ar   48  TYR48       0.0417
     41  CZ        34.9300   74.2370   61.0480 C.ar   48  TYR48       0.1957
     42  OH        33.9080   74.9920   60.5220 O.3    48  TYR48      -0.2866
     43  N         37.7290   69.5600   66.6450 N.3    66  LEU66      -0.1245
     44  CA        38.6280   70.7090   66.5300 C.3    66  LEU66       0.1561
     45  C         39.7770   70.6060   67.5220 C.2    66  LEU66       0.2260
     46  O         39.6030   70.0850   68.6210 O.2    66  LEU66      -0.2867
     47  CB        37.8620   72.0120   66.7800 C.3    66  LEU66       0.0270
     48  CG        36.5240   72.1530   66.0470 C.3    66  LEU66       0.0019
     49  CD1       35.3650   71.6910   66.9210 C.3    66  LEU66       0.0001
     50  CD2       36.3150   73.5800   65.6100 C.3    66  LEU66       0.0001
     51  N         41.8680   72.5710   69.9390 N.3    68  ARG68      -0.1245
     52  CA        41.8570   73.8200   70.6970 C.3    68  ARG68       0.1563
     53  C         42.4350   73.6380   72.0950 C.2    68  ARG68       0.2260
     54  O         42.0930   72.6880   72.7960 O.2    68  ARG68      -0.2867
     55  CB        40.4320   74.3610   70.7960 C.3    68  ARG68       0.0307
     56  CG        39.8760   74.8240   69.4620 C.3    68  ARG68       0.0489
     57  CD        38.6270   75.6710   69.6210 C.3    68  ARG68       0.2205
     58  NE        37.4580   74.8580   69.9410 N.pl3  68  ARG68      -0.0865
     59  CZ        36.1950   75.2690   69.8400 C.cat  68  ARG68       0.5346
     60  NH1       35.9090   76.5010   69.4320 N.pl3  68  ARG68       0.1354
     61  NH2       35.2070   74.4390   70.1560 N.pl3  68  ARG68       0.1354
     62  N         25.8180   68.1430   66.9190 N.3    77  ARG77      -0.1245
     63  CA        24.4450   68.5600   66.6440 C.3    77  ARG77       0.1563
     64  C         23.8140   67.7050   65.5490 C.2    77  ARG77       0.2260
     65  O         24.5060   66.9700   64.8380 O.2    77  ARG77      -0.2867
     66  CB        24.3660   70.0500   66.2820 C.3    77  ARG77       0.0307
     67  CG        24.9160   70.4410   64.9140 C.3    77  ARG77       0.0489
     68  CD        26.4220   70.3610   64.8810 C.3    77  ARG77       0.2205
     69  NE        26.9990   71.0970   63.7590 N.pl3  77  ARG77      -0.0865
     70  CZ        28.2830   71.0510   63.4110 C.cat  77  ARG77       0.5346
     71  NH1       29.1370   70.2960   64.0950 N.pl3  77  ARG77       0.1354
     72  NH2       28.7160   71.7540   62.3710 N.pl3  77  ARG77       0.1354
     73  N         17.8180   78.0770   62.2760 N.3   102  TYR102     -0.1241
     74  CA        19.0690   77.5230   61.7590 C.3   102  TYR102      0.1605
     75  C         18.8190   76.7790   60.4470 C.2   102  TYR102      0.2264
     76  O         17.9790   75.8820   60.3860 O.2   102  TYR102     -0.2867
     77  CB        19.7050   76.5820   62.7790 C.3   102  TYR102      0.0534
     78  CG        21.1650   76.2990   62.5100 C.ar  102  TYR102     -0.0201
     79  CD1       21.5470   75.3290   61.5890 C.ar  102  TYR102     -0.0009
     80  CD2       22.1620   77.0000   63.1770 C.ar  102  TYR102     -0.0009
     81  CE1       22.8850   75.0670   61.3360 C.ar  102  TYR102      0.0417
     82  CE2       23.5040   76.7460   62.9320 C.ar  102  TYR102      0.0417
     83  CZ        23.8570   75.7730   62.0080 C.ar  102  TYR102      0.1957
     84  OH        25.1770   75.5000   61.7500 O.3   102  TYR102     -0.2866
     85  N         25.3940   77.9940   55.5050 N.3   119  PHE119     -0.1241
     86  CA        24.7660   77.9790   56.8190 C.3   119  PHE119      0.1605
     87  C         24.1700   79.3490   57.1400 C.2   119  PHE119      0.2264
     88  O         24.7730   80.3770   56.8380 O.2   119  PHE119     -0.2867
     89  CB        25.7920   77.6220   57.8880 C.3   119  PHE119      0.0534
     90  CG        26.4630   76.2980   57.6740 C.ar  119  PHE119     -0.0203
     91  CD1       25.9580   75.1470   58.2640 C.ar  119  PHE119     -0.0042
     92  CD2       27.6060   76.2020   56.8910 C.ar  119  PHE119     -0.0042
     93  CE1       26.5760   73.9240   58.0740 C.ar  119  PHE119     -0.0003
     94  CE2       28.2260   74.9840   56.6950 C.ar  119  PHE119     -0.0003
     95  CZ        27.7100   73.8400   57.2900 C.ar  119  PHE119     -0.0000
     96  N         22.1300   81.1270   60.6140 N.3   121  LYS121     -0.1245
     97  CA        21.5230   81.0270   61.9400 C.3   121  LYS121      0.1561
     98  C         21.1060   82.3910   62.4750 C.2   121  LYS121      0.2260
     99  O         21.7790   83.3950   62.2380 O.2   121  LYS121     -0.2867
    100  CB        22.4650   80.3270   62.9280 C.3   121  LYS121      0.0271
    101  CG        23.6280   81.1600   63.4330 C.3   121  LYS121      0.0035
    102  CD        24.4350   80.4010   64.4720 C.3   121  LYS121      0.0206
    103  CE        25.5670   81.2520   65.0140 C.3   121  LYS121      0.1093
    104  NZ        26.5390   80.4470   65.8070 N.3   121  LYS121     -0.1314
    105  N         23.3990   85.5010   61.4960 N.3   128  TYR128     -0.1227
    106  CA        24.7180   85.0680   61.0290 C.3   128  TYR128      0.1736
    107  C         24.5900   84.1460   59.8220 C.2   128  TYR128      0.2595
    108  O         23.6110   83.4120   59.6870 O.2   128  TYR128     -0.2718
    109  CB        25.4720   84.3280   62.1310 C.3   128  TYR128      0.0548
    110  CG        25.7290   85.1410   63.3770 C.ar  128  TYR128     -0.0200
    111  CD1       24.8810   85.0540   64.4730 C.ar  128  TYR128     -0.0009
    112  CD2       26.8300   85.9840   63.4670 C.ar  128  TYR128     -0.0009
    113  CE1       25.1160   85.7910   65.6210 C.ar  128  TYR128      0.0417
    114  CE2       27.0750   86.7230   64.6110 C.ar  128  TYR128      0.0417
    115  CZ        26.2130   86.6240   65.6850 C.ar  128  TYR128      0.1957
    116  OH        26.4500   87.3590   66.8260 O.3   128  TYR128     -0.2866
    117  N         25.5820   84.1920   58.9410 N.am  129  PHE129     -0.1962
    118  CA        25.6620   83.2330   57.8450 C.3   129  PHE129      0.1771
    119  C         27.1050   82.8680   57.5430 C.2   129  PHE129      0.2619
    120  O         28.0390   83.5920   57.9040 O.2   129  PHE129     -0.2715
    121  CB        24.9380   83.7380   56.5870 C.3   129  PHE129      0.0574
    122  CG        25.7140   84.7440   55.7880 C.ar  129  PHE129     -0.0200
    123  CD1       25.6830   86.0880   56.1230 C.ar  129  PHE129     -0.0042
    124  CD2       26.4600   84.3490   54.6850 C.ar  129  PHE129     -0.0042
    125  CE1       26.3930   87.0270   55.3790 C.ar  129  PHE129     -0.0003
    126  CE2       27.1730   85.2790   53.9370 C.ar  129  PHE129     -0.0003
    127  CZ        27.1370   86.6220   54.2860 C.ar  129  PHE129     -0.0000
    128  N         27.2720   81.7330   56.8760 N.am  130  ALA130     -0.1977
    129  CA        28.5990   81.1920   56.6040 C.3   130  ALA130      0.1597
    130  C         28.5820   80.2120   55.4450 C.2   130  ALA130      0.2287
    131  O         27.5550   79.6070   55.1410 O.2   130  ALA130     -0.2864
    132  CB        29.1540   80.5160   57.8470 C.3   130  ALA130      0.0319
    133  N         31.1840   76.9860   54.0140 N.3   132  THR132     -0.1218
    134  CA        32.3820   76.1690   54.2120 C.3   132  THR132      0.1862
    135  C         32.7430   75.4680   52.9160 C.2   132  THR132      0.2287
    136  O         31.8660   74.9300   52.2400 O.2   132  THR132     -0.2866
    137  CB        32.1850   75.0860   55.2910 C.3   132  THR132      0.1770
    138  OG1       31.1870   74.1540   54.8640 O.3   132  THR132     -0.2211
    139  CG2       31.7680   75.6980   56.6060 C.3   132  THR132      0.0375
@<TRIPOS>BOND
     1   136   135    2
     2   135   134    1
     3   126   127   ar
     4   126   124   ar
     5   133   134    1
     6   134   137    1
     7   127   125   ar
     8   124   122   ar
     9   138   137    1
    10     1     2    1
    11   131   130    2
    12   137   139    1
    13   125   123   ar
    14   130   129    1
    15    85    86    1
    16     3     4    2
    17     3     2    1
    18   122   123   ar
    19   122   121    1
    20     2     5    1
    21   121   118    1
    22   129   128    1
    23   129   132    1
    24    94    92   ar
    25    94    95   ar
    26    86    87    1
    27    86    89    1
    28    88    87    2
    29   128   119   am
    30    92    90   ar
    31     5     6    1
    32    95    93   ar
    33   119   118    1
    34   119   120    2
    35    90    89    1
    36    90    91   ar
    37   118   117    1
    38    93    91   ar
    39     7     6    1
    40     6     8    1
    41   117   107   am
    42    17    16    2
    43    18    20    1
    44    18    19    1
    45    18    15    1
    46    34    33    2
    47    19    21    1
    48   108   107    2
    49   107   106    1
    50    16    15    1
    51    76    75    2
    52    15    14    1
    53     9    10    1
    54    75    74    1
    55    42    41    1
    56    14    11   am
    57    25    24    2
    58    96    97    1
    59    33    32    1
    60    31    32    1
    61   106   105    1
    62   106   109    1
    63    41    39   ar
    64    41    40   ar
    65    27    26    1
    66    27    28    1
    67    26    23    1
    68    39    37   ar
    69    81    79   ar
    70    81    83   ar
    71    40    38   ar
    72    79    78   ar
    73    32    35    1
    74    24    23    1
    75    11    10    1
    76    11    12    2
    77    10    13    1
    78    84    83    1
    79    74    73    1
    80    74    77    1
    81    37    36   ar
    82    38    36   ar
    83    22    23    1
    84    97    98    1
    85    97   100    1
    86    83    82   ar
    87    36    35    1
    88   109   110    1
    89    99    98    2
    90    72    70    1
    91    28    30   am
    92    28    29    2
    93    78    77    1
    94    78    80   ar
    95   100   101    1
    96    82    80   ar
    97   110   112   ar
    98   110   111   ar
    99    70    69    2
   100    70    71    1
   101   101   102    1
   102   112   114   ar
   103    69    68    1
   104   102   103    1
   105   111   113   ar
   106   114   115   ar
   107    65    64    2
   108    68    67    1
   109    67    66    1
   110   103   104    1
   111    64    63    1
   112    50    48    1
   113   113   115   ar
   114   115   116    1
   115    48    47    1
   116    48    49    1
   117    66    63    1
   118    44    43    1
   119    44    47    1
   120    44    45    1
   121    63    62    1
   122    45    46    2
   123    60    59    1
   124    56    57    1
   125    56    55    1
   126    57    58    1
   127    59    58    2
   128    59    61    1
   129    51    52    1
   130    52    55    1
   131    52    53    1
   132    53    54    2
