@<TRIPOS>MOLECULE
tmp/3i0aC00.pdb
 135 129 0 0 0
SMALL
GASTEIGER

@<TRIPOS>ATOM
      1  N         43.5640   43.5730   31.9230 N.3    50  TYR50      -0.1241
      2  CA        42.5440   42.8640   32.6770 C.3    50  TYR50       0.1605
      3  C         41.7950   43.8470   33.5610 C.2    50  TYR50       0.2264
      4  O         42.1780   45.0140   33.6760 O.2    50  TYR50      -0.2867
      5  CB        43.1460   41.7180   33.4950 C.3    50  TYR50       0.0534
      6  CG        44.1420   42.1120   34.5640 C.ar   50  TYR50      -0.0201
      7  CD1       45.4560   42.4250   34.2390 C.ar   50  TYR50      -0.0009
      8  CD2       43.7780   42.1250   35.9070 C.ar   50  TYR50      -0.0009
      9  CE1       46.3760   42.7690   35.2210 C.ar   50  TYR50       0.0417
     10  CE2       44.6910   42.4640   36.8970 C.ar   50  TYR50       0.0417
     11  CZ        45.9880   42.7860   36.5480 C.ar   50  TYR50       0.1957
     12  OH        46.8960   43.1250   37.5260 O.3    50  TYR50      -0.2866
     13  N         39.2970   39.5440   39.8130 N.3    66  SER66      -0.1217
     14  CA        40.0560   39.9480   38.6420 C.3    66  SER66       0.1889
     15  C         39.6830   39.0370   37.4830 C.2    66  SER66       0.2288
     16  O         39.6630   37.8120   37.6220 O.2    66  SER66      -0.2866
     17  CB        41.5600   39.9010   38.9100 C.3    66  SER66       0.2089
     18  OG        41.9680   41.0370   39.6510 O.3    66  SER66      -0.2183
     19  N         40.6560   38.1460   33.6140 N.3    68  LEU68      -0.1245
     20  CA        41.7090   38.2350   32.6050 C.3    68  LEU68       0.1561
     21  C         41.4150   37.2980   31.4320 C.2    68  LEU68       0.2260
     22  O         40.6580   36.3360   31.5710 O.2    68  LEU68      -0.2867
     23  CB        43.0710   37.8720   33.2130 C.3    68  LEU68       0.0270
     24  CG        43.3690   38.3010   34.6540 C.3    68  LEU68       0.0019
     25  CD1       42.6980   37.3660   35.6570 C.3    68  LEU68       0.0001
     26  CD2       44.8710   38.3360   34.8910 C.3    68  LEU68       0.0001
     27  N         43.1040   34.7280   29.2510 N.3    70  ARG70      -0.1245
     28  CA        44.2420   33.8290   29.1700 C.3    70  ARG70       0.1563
     29  C         43.8920   32.5600   28.4190 C.2    70  ARG70       0.2260
     30  O         43.0020   31.8090   28.8310 O.2    70  ARG70      -0.2867
     31  CB        44.6720   33.4280   30.5670 C.3    70  ARG70       0.0307
     32  CG        45.5260   34.4450   31.2570 C.3    70  ARG70       0.0489
     33  CD        46.4140   33.7670   32.2700 C.3    70  ARG70       0.2205
     34  NE        45.7770   33.7390   33.5780 N.pl3  70  ARG70      -0.0865
     35  CZ        45.9800   34.6390   34.5330 C.cat  70  ARG70       0.5346
     36  NH1       46.8240   35.6500   34.3470 N.pl3  70  ARG70       0.1354
     37  NH2       45.3420   34.5240   35.6900 N.pl3  70  ARG70       0.1354
     38  N         40.1780   35.3290   38.9650 N.3    77  TRP77      -0.1241
     39  CA        40.9500   35.2990   40.1960 C.3    77  TRP77       0.1605
     40  C         40.1370   36.0100   41.2730 C.2    77  TRP77       0.2264
     41  O         39.9940   37.2320   41.2490 O.2    77  TRP77      -0.2867
     42  CB        42.3000   35.9820   39.9690 C.3    77  TRP77       0.0550
     43  CG        43.2910   35.8260   41.0830 C.ar   77  TRP77       0.0003
     44  CD1       43.9020   36.8290   41.7800 C.ar   77  TRP77       0.0946
     45  CD2       43.8000   34.5990   41.6190 C.ar   77  TRP77       0.0152
     46  NE1       44.7540   36.3060   42.7190 N.ar   77  TRP77      -0.2442
     47  CE2       44.7130   34.9380   42.6430 C.ar   77  TRP77       0.0810
     48  CE3       43.5740   33.2450   41.3350 C.ar   77  TRP77       0.0012
     49  CZ2       45.3990   33.9710   43.3880 C.ar   77  TRP77       0.0191
     50  CZ3       44.2550   32.2820   42.0780 C.ar   77  TRP77       0.0001
     51  CH2       45.1560   32.6520   43.0920 C.ar   77  TRP77       0.0015
     52  N         39.3430   36.7100   45.3700 N.3    79  ARG79      -0.1245
     53  CA        39.8520   36.7140   46.7380 C.3    79  ARG79       0.1563
     54  C         39.1970   37.8260   47.5570 C.2    79  ARG79       0.2260
     55  O         38.4640   38.6580   47.0120 O.2    79  ARG79      -0.2867
     56  CB        41.3840   36.8170   46.7570 C.3    79  ARG79       0.0307
     57  CG        41.9860   38.1320   46.2480 C.3    79  ARG79       0.0489
     58  CD        41.6790   38.3860   44.7790 C.3    79  ARG79       0.2205
     59  NE        42.6700   39.2510   44.1430 N.pl3  79  ARG79      -0.0865
     60  CZ        42.4920   39.9000   42.9950 C.cat  79  ARG79       0.5346
     61  NH1       43.4640   40.6600   42.5070 N.pl3  79  ARG79       0.1354
     62  NH2       41.3450   39.8010   42.3320 N.pl3  79  ARG79       0.1354
     63  N         44.9670   40.1480   53.1110 N.3    92  LEU92      -0.1245
     64  CA        44.3060   39.0650   52.3830 C.3    92  LEU92       0.1561
     65  C         43.5550   38.1680   53.3600 C.2    92  LEU92       0.2260
     66  O         44.1280   37.6960   54.3410 O.2    92  LEU92      -0.2867
     67  CB        45.3260   38.2420   51.5900 C.3    92  LEU92       0.0270
     68  CG        44.7580   37.1820   50.6400 C.3    92  LEU92       0.0019
     69  CD1       43.8830   37.8000   49.5510 C.3    92  LEU92       0.0001
     70  CD2       45.8940   36.3680   50.0280 C.3    92  LEU92       0.0001
     71  N         46.1220   29.7880   50.8210 N.3    98  TYR98      -0.1228
     72  CA        47.0310   30.0430   49.7020 C.3    98  TYR98       0.1721
     73  C         48.3950   29.4290   50.0190 C.2    98  TYR98       0.2437
     74  O         49.0830   29.8930   50.9260 O.2    98  TYR98      -0.2733
     75  CB        47.1660   31.5440   49.4390 C.3    98  TYR98       0.0547
     76  CG        45.8540   32.2290   49.1260 C.ar   98  TYR98      -0.0200
     77  CD1       45.0760   32.7750   50.1420 C.ar   98  TYR98      -0.0009
     78  CD2       45.3900   32.3280   47.8190 C.ar   98  TYR98      -0.0009
     79  CE1       43.8720   33.4070   49.8680 C.ar   98  TYR98       0.0417
     80  CE2       44.1790   32.9600   47.5320 C.ar   98  TYR98       0.0417
     81  CZ        43.4280   33.4980   48.5620 C.ar   98  TYR98       0.1957
     82  OH        42.2340   34.1250   48.2940 O.3    98  TYR98      -0.2866
     83  N         48.7870   28.3720   49.2860 N.am   99  PRO99      -0.2729
     84  CA        50.0370   27.6770   49.6070 C.3    99  PRO99       0.1401
     85  C         51.2870   28.5510   49.4940 C.2    99  PRO99       0.2269
     86  O         51.4900   29.2190   48.4800 O.2    99  PRO99      -0.2865
     87  CB        50.0890   26.5410   48.5720 C.3    99  PRO99       0.0296
     88  CG        48.6890   26.3800   48.1010 C.3    99  PRO99       0.0237
     89  CD        48.1000   27.7480   48.1410 C.3    99  PRO99       0.0939
     90  N         52.0540   31.2720   50.9560 N.3   101  LEU101     -0.1245
     91  CA        51.8140   32.6980   51.1560 C.3   101  LEU101      0.1561
     92  C         51.7970   33.0310   52.6480 C.2   101  LEU101      0.2260
     93  O         50.8890   32.6250   53.3730 O.2   101  LEU101     -0.2867
     94  CB        50.4890   33.1030   50.4990 C.3   101  LEU101      0.0270
     95  CG        50.2220   34.6030   50.3340 C.3   101  LEU101      0.0019
     96  CD1       51.3180   35.2590   49.5180 C.3   101  LEU101      0.0001
     97  CD2       48.8680   34.8410   49.6830 C.3   101  LEU101      0.0001
     98  N         50.6750   39.4030   52.9420 N.3   104  TYR104     -0.1241
     99  CA        50.0050   40.0980   51.8410 C.3   104  TYR104      0.1605
    100  C         49.4840   41.4610   52.2970 C.2   104  TYR104      0.2264
    101  O         48.7830   41.5610   53.3050 O.2   104  TYR104     -0.2867
    102  CB        48.8420   39.2690   51.2820 C.3   104  TYR104      0.0534
    103  CG        48.4650   39.6710   49.8720 C.ar  104  TYR104     -0.0201
    104  CD1       47.5800   40.7160   49.6330 C.ar  104  TYR104     -0.0009
    105  CD2       49.0200   39.0190   48.7750 C.ar  104  TYR104     -0.0009
    106  CE1       47.2510   41.0960   48.3380 C.ar  104  TYR104      0.0417
    107  CE2       48.6950   39.3860   47.4810 C.ar  104  TYR104      0.0417
    108  CZ        47.8120   40.4270   47.2660 C.ar  104  TYR104      0.1957
    109  OH        47.4960   40.7980   45.9780 O.3   104  TYR104     -0.2866
    110  N         50.7840   46.8750   46.0130 N.3   121  PHE121     -0.1241
    111  CA        50.5830   45.5070   46.4890 C.3   121  PHE121      0.1605
    112  C         51.9230   44.9160   46.9190 C.2   121  PHE121      0.2264
    113  O         52.9330   45.1230   46.2450 O.2   121  PHE121     -0.2867
    114  CB        49.9990   44.6350   45.3810 C.3   121  PHE121      0.0534
    115  CG        48.6680   45.1000   44.8680 C.ar  121  PHE121     -0.0203
    116  CD1       47.4950   44.5060   45.3070 C.ar  121  PHE121     -0.0042
    117  CD2       48.5880   46.1170   43.9300 C.ar  121  PHE121     -0.0042
    118  CE1       46.2640   44.9220   44.8290 C.ar  121  PHE121     -0.0003
    119  CE2       47.3570   46.5400   43.4490 C.ar  121  PHE121     -0.0003
    120  CZ        46.1930   45.9370   43.8980 C.ar  121  PHE121     -0.0000
    121  N         53.4640   41.1020   48.6110 N.3   123  LYS123     -0.1245
    122  CA        53.2600   39.7510   49.1360 C.3   123  LYS123      0.1561
    123  C         54.5830   39.0290   49.3570 C.2   123  LYS123      0.2260
    124  O         55.5390   39.2260   48.6040 O.2   123  LYS123     -0.2867
    125  CB        52.3720   38.9260   48.1970 C.3   123  LYS123      0.0271
    126  CG        53.0810   38.3440   46.9810 C.3   123  LYS123      0.0035
    127  CD        52.1220   37.5810   46.0820 C.3   123  LYS123      0.0206
    128  CE        52.8160   37.1210   44.8090 C.3   123  LYS123      0.1093
    129  NZ        51.8560   36.5430   43.8210 N.3   123  LYS123     -0.1314
    130  N         55.7580   35.3240   49.2210 N.3   125  SER125     -0.1217
    131  CA        55.3660   33.9990   48.7650 C.3   125  SER125      0.1889
    132  C         56.6100   33.1360   48.6590 C.2   125  SER125      0.2288
    133  O         57.5740   33.5130   47.9830 O.2   125  SER125     -0.2866
    134  CB        54.6860   34.0840   47.4020 C.3   125  SER125      0.2089
    135  OG        54.4150   32.7920   46.8890 O.3   125  SER125     -0.2183
@<TRIPOS>BOND
     1    29    30    2
     2    29    28    1
     3    28    27    1
     4    28    31    1
     5    31    32    1
     6    32    33    1
     7    21    22    2
     8    21    20    1
     9     1     2    1
    10    33    34    1
    11    20    23    1
    12    20    19    1
    13     2     5    1
    14     2     3    1
    15    23    24    1
    16     5     6    1
    17     3     4    2
    18    34    35    2
    19     7     6   ar
    20     7     9   ar
    21    36    35    1
    22    35    37    1
    23     6     8   ar
    24    24    26    1
    25    24    25    1
    26     9    11   ar
    27     8    10   ar
    28    11    10   ar
    29    11    12    1
    30    15    16    2
    31    15    14    1
    32    14    17    1
    33    14    13    1
    34    17    18    1
    35    38    39    1
    36    42    39    1
    37    42    43    1
    38    39    40    1
    39    43    45   ar
    40    43    44   ar
    41    41    40    2
    42    48    45   ar
    43    48    50   ar
    44    45    47   ar
    45    44    46   ar
    46    50    51   ar
    47    62    60    1
    48    61    60    1
    49    47    46   ar
    50    47    49   ar
    51    60    59    2
    52    51    49   ar
    53   119   120   ar
    54   119   117   ar
    55   129   128    1
    56   120   118   ar
    57   117   115   ar
    58    59    58    1
    59    58    57    1
    60   128   127    1
    61   118   116   ar
    62   115   116   ar
    63   115   114    1
    64    52    53    1
    65   114   111    1
    66   109   108    1
    67   110   111    1
    68   127   126    1
    69   113   112    2
    70    57    56    1
    71   111   112    1
    72    53    56    1
    73    53    54    1
    74   135   134    1
    75   126   125    1
    76    55    54    2
    77   108   107   ar
    78   108   106   ar
    79   134   131    1
    80   107   105   ar
    81    80    78   ar
    82    80    81   ar
    83    78    76   ar
    84   133   132    2
    85    88    89    1
    86    88    87    1
    87    89    83    1
    88   125   122    1
    89    82    81    1
    90   106   104   ar
    91    86    85    2
    92    81    79   ar
    93    87    84    1
    94   124   123    2
    95   121   122    1
    96   132   131    1
    97   131   130    1
    98   105   103   ar
    99    76    75    1
   100    76    77   ar
   101   122   123    1
   102    83    84    1
   103    83    73   am
   104    75    72    1
   105    85    84    1
   106    96    95    1
   107    69    68    1
   108   104   103   ar
   109    97    95    1
   110    72    73    1
   111    72    71    1
   112    79    77   ar
   113   103   102    1
   114    73    74    2
   115    70    68    1
   116    95    94    1
   117    94    91    1
   118    68    67    1
   119    90    91    1
   120    91    92    1
   121   102    99    1
   122    67    64    1
   123    99   100    1
   124    99    98    1
   125   100   101    2
   126    64    63    1
   127    64    65    1
   128    92    93    2
   129    65    66    2
