@<TRIPOS>MOLECULE
tmp/3i0fA00.pdb
 90 90 0 0 0
SMALL
GASTEIGER

@<TRIPOS>ATOM
      1  N         13.3320    9.6740  -32.3550 N.3     2  PRO2       -0.2116
      2  CA        12.3860    8.6100  -32.6750 C.3     2  PRO2        0.1372
      3  C         10.9120    9.0800  -32.7850 C.2     2  PRO2        0.2244
      4  O         10.4760   10.0300  -32.0910 O.2     2  PRO2       -0.2868
      5  CB        12.5500    7.6110  -31.5140 C.3     2  PRO2        0.0268
      6  CG        13.8420    7.9330  -30.9000 C.3     2  PRO2        0.0207
      7  CD        14.0660    9.4040  -31.1050 C.3     2  PRO2        0.0892
      8  N          7.0790    9.0640  -31.9890 N.3     4  PRO4       -0.2102
      9  CA         6.2330    8.4720  -30.9370 C.3     4  PRO4        0.1504
     10  C          5.3470    7.3710  -31.5190 C.2     4  PRO4        0.2575
     11  O          5.0190    7.4470  -32.7200 O.2     4  PRO4       -0.2718
     12  CB         5.2660    9.6230  -30.5460 C.3     4  PRO4        0.0282
     13  CG         5.8080   10.8630  -31.2730 C.3     4  PRO4        0.0208
     14  CD         6.7220   10.4440  -32.3500 C.3     4  PRO4        0.0893
     15  N          4.9760    6.4210  -30.6690 N.am    5  LYS5       -0.1980
     16  CA         4.2970    5.1710  -31.0060 C.3     5  LYS5        0.1596
     17  C          2.9320    5.2520  -30.4010 C.2     5  LYS5        0.2287
     18  O          2.7650    4.9570  -29.2210 O.2     5  LYS5       -0.2864
     19  CB         5.1190    3.9720  -30.4170 C.3     5  LYS5        0.0298
     20  CG         6.4370    3.7140  -31.1540 C.3     5  LYS5        0.0038
     21  CD         6.1180    3.1470  -32.5840 C.3     5  LYS5        0.0206
     22  CE         5.6140    4.2400  -33.5990 C.3     5  LYS5        0.1093
     23  NZ         4.9470    3.7130  -34.8370 N.3     5  LYS5       -0.1314
     24  N          1.5670    2.2160  -28.3860 N.3     8  THR8       -0.1204
     25  CA         2.4190    1.6400  -27.3440 C.3     8  THR8        0.1979
     26  C          2.4440    2.5940  -26.1560 C.2     8  THR8        0.2460
     27  O          2.9320    3.7180  -26.3090 O.2     8  THR8       -0.2732
     28  CB         3.8680    1.5420  -27.8370 C.3     8  THR8        0.1783
     29  OG1        3.9630    0.7290  -29.0140 O.3     8  THR8       -0.2211
     30  CG2        4.7740    0.9910  -26.7710 C.3     8  THR8        0.0376
     31  N          1.9690    2.1500  -25.0160 N.am    9  PRO9       -0.2717
     32  CA         1.9540    2.9570  -23.7620 C.3     9  PRO9        0.1535
     33  C          3.3710    3.3200  -23.3630 C.2     9  PRO9        0.2599
     34  O          4.2960    2.5320  -23.5560 O.2     9  PRO9       -0.2715
     35  CB         1.3270    2.0460  -22.6930 C.3     9  PRO9        0.0310
     36  CG         1.4880    0.5630  -23.2980 C.3     9  PRO9        0.0237
     37  CD         1.2720    0.8640  -24.8200 C.3     9  PRO9        0.0939
     38  N          3.5330    4.5630  -22.8660 N.am   10  SER10      -0.1950
     39  CA         4.8630    5.0170  -22.4590 C.3    10  SER10       0.1924
     40  C          5.2430    4.1660  -21.2270 C.2    10  SER10       0.2314
     41  O          6.4180    3.8450  -21.0440 O.2    10  SER10      -0.2863
     42  CB         4.8170    6.6100  -22.2190 C.3    10  SER10       0.2116
     43  OG         4.0250    6.7230  -21.0580 O.3    10  SER10      -0.2180
     44  N         10.5550    8.4970  -15.8770 N.3    27  GLU27      -0.1231
     45  CA        11.4160    8.1380  -16.9430 C.3    27  GLU27       0.1699
     46  C         10.6910    7.2750  -18.0340 C.2    27  GLU27       0.2593
     47  O          9.9000    6.4380  -17.6490 O.2    27  GLU27      -0.2718
     48  CB        12.5620    7.2740  -16.4050 C.3    27  GLU27       0.0402
     49  CG        13.5940    6.9940  -17.4660 C.3    27  GLU27       0.1161
     50  CD        14.3180    8.1480  -18.0940 C.2    27  GLU27       0.3649
     51  OE1       15.1330    7.8840  -19.0090 O.co2  27  GLU27      -0.2457
     52  OE2       14.1890    9.3430  -17.6650 O.co2  27  GLU27      -0.2457
     53  N         10.9060    7.6300  -19.2870 N.am   28  GLY28      -0.1942
     54  CA        10.2110    6.9870  -20.4010 C.3    28  GLY28       0.2014
     55  C          9.0100    7.7670  -20.8740 C.2    28  GLY28       0.2640
     56  O          8.4300    7.4180  -21.8980 O.2    28  GLY28      -0.2714
     57  N          8.6240    8.8180  -20.1390 N.am   29  THR29      -0.1936
     58  CA         7.5300    9.6440  -20.6440 C.3    29  THR29       0.2028
     59  C          7.9610   10.8560  -21.4220 C.2    29  THR29       0.2642
     60  O          7.0880   11.5370  -21.9840 O.2    29  THR29      -0.2714
     61  CB         6.6180   10.1530  -19.5370 C.3    29  THR29       0.1808
     62  OG1        7.3150   11.0330  -18.6520 O.3    29  THR29      -0.2208
     63  CG2        5.9970    8.9730  -18.6830 C.3    29  THR29       0.0379
     64  N          9.2400   11.2150  -21.4540 N.am   30  PHE30      -0.1959
     65  CA         9.6650   12.4230  -22.1710 C.3    30  PHE30       0.1771
     66  C         10.9450   12.1960  -22.9490 C.2    30  PHE30       0.2620
     67  O         11.8210   11.3330  -22.5130 O.2    30  PHE30      -0.2715
     68  CB         9.8610   13.6300  -21.1610 C.3    30  PHE30       0.0574
     69  CG        10.8700   13.3700  -20.0800 C.ar   30  PHE30      -0.0200
     70  CD1       12.2570   13.7290  -20.2970 C.ar   30  PHE30      -0.0042
     71  CD2       10.4670   12.7740  -18.8860 C.ar   30  PHE30      -0.0042
     72  CE1       13.1770   13.4460  -19.2480 C.ar   30  PHE30      -0.0003
     73  CE2       11.4150   12.5270  -17.8550 C.ar   30  PHE30      -0.0003
     74  CZ        12.7330   12.8490  -18.0370 C.ar   30  PHE30      -0.0000
     75  N         11.0490   12.9090  -24.0640 N.am   31  ASN31      -0.1958
     76  CA        12.2710   13.0130  -24.8830 C.3    31  ASN31       0.1819
     77  C         12.8930   14.3380  -24.5110 C.2    31  ASN31       0.2621
     78  O         12.4340   15.4220  -24.8920 O.2    31  ASN31      -0.2715
     79  CB        12.0010   12.9570  -26.3710 C.3    31  ASN31       0.1195
     80  CG        13.2860   12.9760  -27.1510 C.2    31  ASN31       0.2630
     81  OD1       14.3070   13.4110  -26.6240 O.2    31  ASN31      -0.2716
     82  ND2       13.2520   12.5310  -28.4100 N.am   31  ASN31      -0.0877
     83  N         13.9620   14.2640  -23.7160 N.am   32  ILE32      -0.1977
     84  CA        14.6230   15.4960  -23.2490 C.3    32  ILE32       0.1596
     85  C         15.2210   16.3430  -24.3530 C.2    32  ILE32       0.2287
     86  O         15.3770   17.5330  -24.1530 O.2    32  ILE32      -0.2864
     87  CB        15.6900   15.1640  -22.1570 C.3    32  ILE32       0.0276
     88  CG1       16.0880   16.4220  -21.2980 C.3    32  ILE32       0.0022
     89  CG2       16.9550   14.5920  -22.8150 C.3    32  ILE32       0.0022
     90  CD1       14.8720   17.0890  -20.5600 C.3    32  ILE32       0.0001
@<TRIPOS>BOND
     1    23    22    1
     2    22    21    1
     3     3     2    1
     4     3     4    2
     5    11    10    2
     6     2     1    1
     7     2     5    1
     8    21    20    1
     9     1     7    1
    10    14     8    1
    11    14    13    1
    12     8     9    1
    13    10     9    1
    14    10    15   am
    15     5     6    1
    16    13    12    1
    17    20    19    1
    18     7     6    1
    19    16    15    1
    20    16    19    1
    21    16    17    1
    22     9    12    1
    23    17    18    2
    24    29    28    1
    25    82    80   am
    26    24    25    1
    27    28    25    1
    28    28    30    1
    29    25    26    1
    30    80    81    2
    31    80    79    1
    32    79    76    1
    33    27    26    2
    34    26    31   am
    35    31    37    1
    36    31    32    1
    37    78    77    2
    38    76    77    1
    39    76    75    1
    40    37    36    1
    41    77    83   am
    42    85    86    2
    43    85    84    1
    44    75    66   am
    45    32    33    1
    46    32    35    1
    47    83    84    1
    48    34    33    2
    49    33    38   am
    50    36    35    1
    51    84    87    1
    52    66    67    2
    53    66    65    1
    54    38    39    1
    55    89    87    1
    56    39    42    1
    57    39    40    1
    58    42    43    1
    59    65    64    1
    60    65    68    1
    61    87    88    1
    62    60    59    2
    63    56    55    2
    64    64    59   am
    65    59    58    1
    66    88    90    1
    67    40    41    2
    68    68    69    1
    69    55    54    1
    70    55    57   am
    71    58    57    1
    72    58    61    1
    73    54    53    1
    74    70    69   ar
    75    70    72   ar
    76    69    71   ar
    77    61    63    1
    78    61    62    1
    79    53    46   am
    80    72    74   ar
    81    51    50   ar
    82    71    73   ar
    83    50    52   ar
    84    50    49    1
    85    74    73   ar
    86    46    47    2
    87    46    45    1
    88    49    48    1
    89    45    48    1
    90    45    44    1
