@<TRIPOS>MOLECULE
tmp/3i0lA01.pdb
 90 90 0 0 0
SMALL
GASTEIGER

@<TRIPOS>ATOM
      1  N         12.9670   -9.6870  -32.4060 N.3     4  PRO4       -0.2116
      2  CA        13.9510   -8.6620  -32.6840 C.3     4  PRO4        0.1372
      3  C         15.3690   -9.2390  -32.7940 C.2     4  PRO4        0.2244
      4  O         15.7490  -10.2100  -32.1120 O.2     4  PRO4       -0.2868
      5  CB        13.8160   -7.6950  -31.4840 C.3     4  PRO4        0.0268
      6  CG        12.3710   -7.8610  -31.0660 C.3     4  PRO4        0.0207
      7  CD        12.2020   -9.3790  -31.1840 C.3     4  PRO4        0.0892
      8  N         19.1990   -9.2810  -32.0210 N.3     6  PRO6       -0.2102
      9  CA        20.0830   -8.6580  -31.0050 C.3     6  PRO6        0.1504
     10  C         20.9300   -7.5050  -31.5950 C.2     6  PRO6        0.2575
     11  O         21.2930   -7.5240  -32.8000 O.2     6  PRO6       -0.2718
     12  CB        21.0840   -9.8080  -30.6430 C.3     6  PRO6        0.0282
     13  CG        20.5480  -11.0180  -31.2400 C.3     6  PRO6        0.0208
     14  CD        19.6690  -10.6190  -32.4280 C.3     6  PRO6        0.0893
     15  N         21.2200   -6.5530  -30.7140 N.am    7  LYS7       -0.1980
     16  CA        21.9430   -5.3100  -31.0560 C.3     7  LYS7        0.1596
     17  C         23.3100   -5.4070  -30.4200 C.2     7  LYS7        0.2287
     18  O         23.5220   -5.1030  -29.2540 O.2     7  LYS7       -0.2864
     19  CB        21.1340   -4.0700  -30.5680 C.3     7  LYS7        0.0298
     20  CG        19.7550   -3.9640  -31.2450 C.3     7  LYS7        0.0038
     21  CD        19.0270   -2.7010  -30.7550 C.3     7  LYS7        0.0206
     22  CE        18.0420   -3.0860  -29.6860 C.3     7  LYS7        0.1093
     23  NZ        17.3730   -1.8830  -29.0360 N.3     7  LYS7       -0.1314
     24  N         24.6780   -2.3230  -28.4230 N.3    10  THR10      -0.1204
     25  CA        23.8360   -1.7490  -27.3710 C.3    10  THR10       0.1979
     26  C         23.8610   -2.6560  -26.1530 C.2    10  THR10       0.2460
     27  O         23.3380   -3.7630  -26.2470 O.2    10  THR10      -0.2732
     28  CB        22.4080   -1.6390  -27.8520 C.3    10  THR10       0.1783
     29  OG1       22.3360   -0.7920  -29.0030 O.3    10  THR10      -0.2211
     30  CG2       21.4060   -1.1140  -26.7760 C.3    10  THR10       0.0376
     31  N         24.3600   -2.1690  -25.0240 N.am   11  PRO11      -0.2717
     32  CA        24.3020   -2.9760  -23.8040 C.3    11  PRO11       0.1535
     33  C         22.8890   -3.3350  -23.3820 C.2    11  PRO11       0.2599
     34  O         21.9440   -2.5370  -23.5170 O.2    11  PRO11      -0.2715
     35  CB        24.9840   -2.1290  -22.7480 C.3    11  PRO11       0.0310
     36  CG        24.8940   -0.6980  -23.2610 C.3    11  PRO11       0.0237
     37  CD        25.0070   -0.8650  -24.7650 C.3    11  PRO11       0.0939
     38  N         22.7110   -4.5750  -22.8840 N.am   12  SER12      -0.1950
     39  CA        21.4280   -4.9340  -22.2650 C.3    12  SER12       0.1924
     40  C         21.0940   -4.0560  -21.0950 C.2    12  SER12       0.2314
     41  O         19.9570   -3.7120  -20.9440 O.2    12  SER12      -0.2863
     42  CB        21.3570   -6.3940  -21.7160 C.3    12  SER12       0.2116
     43  OG        21.6040   -7.2280  -22.8010 O.3    12  SER12      -0.2180
     44  N         15.7880   -8.4080  -15.8700 N.3    29  GLU29      -0.1231
     45  CA        14.9210   -8.0410  -16.9730 C.3    29  GLU29       0.1699
     46  C         15.6650   -7.2360  -18.0550 C.2    29  GLU29       0.2593
     47  O         16.5090   -6.4020  -17.7370 O.2    29  GLU29      -0.2718
     48  CB        13.7870   -7.1950  -16.4180 C.3    29  GLU29       0.0402
     49  CG        12.7660   -6.7910  -17.4220 C.3    29  GLU29       0.1161
     50  CD        11.9460   -7.9550  -18.0710 C.2    29  GLU29       0.3649
     51  OE1       11.1590   -7.6860  -19.0330 O.co2  29  GLU29      -0.2457
     52  OE2       12.0330   -9.1740  -17.6400 O.co2  29  GLU29      -0.2457
     53  N         15.4230   -7.6330  -19.3000 N.am   30  GLY30      -0.1942
     54  CA        16.0520   -6.9990  -20.4810 C.3    30  GLY30       0.2014
     55  C         17.2970   -7.7620  -20.9240 C.2    30  GLY30       0.2640
     56  O         17.9480   -7.3630  -21.8600 O.2    30  GLY30      -0.2714
     57  N         17.6030   -8.8760  -20.2340 N.am   31  THR31      -0.1936
     58  CA        18.7620   -9.6580  -20.6500 C.3    31  THR31       0.2028
     59  C         18.3650  -10.9040  -21.3760 C.2    31  THR31       0.2642
     60  O         19.2940  -11.6140  -21.8760 O.2    31  THR31      -0.2714
     61  CB        19.6830  -10.0940  -19.5110 C.3    31  THR31       0.1808
     62  OG1       19.0490  -10.9940  -18.6020 O.3    31  THR31      -0.2208
     63  CG2       20.2820   -8.8950  -18.7160 C.3    31  THR31       0.0379
     64  N         17.0660  -11.2510  -21.3680 N.am   32  PHE32      -0.1959
     65  CA        16.6190  -12.4380  -22.1140 C.3    32  PHE32       0.1771
     66  C         15.3610  -12.1540  -22.9230 C.2    32  PHE32       0.2620
     67  O         14.4930  -11.3540  -22.5150 O.2    32  PHE32      -0.2715
     68  CB        16.3920  -13.6450  -21.1370 C.3    32  PHE32       0.0574
     69  CG        15.3790  -13.3790  -20.0490 C.ar   32  PHE32      -0.0200
     70  CD1       14.0260  -13.7330  -20.2250 C.ar   32  PHE32      -0.0042
     71  CD2       15.8260  -12.7140  -18.8480 C.ar   32  PHE32      -0.0042
     72  CE1       13.0810  -13.4120  -19.1720 C.ar   32  PHE32      -0.0003
     73  CE2       14.9510  -12.4440  -17.7890 C.ar   32  PHE32      -0.0003
     74  CZ        13.5660  -12.7930  -17.9340 C.ar   32  PHE32      -0.0000
     75  N         15.2370  -12.9070  -24.0000 N.am   33  ASN33      -0.1958
     76  CA        14.0300  -12.9980  -24.7660 C.3    33  ASN33       0.1819
     77  C         13.3750  -14.3430  -24.4850 C.2    33  ASN33       0.2621
     78  O         13.8700  -15.4090  -24.8950 O.2    33  ASN33      -0.2715
     79  CB        14.2790  -12.8150  -26.2420 C.3    33  ASN33       0.1195
     80  CG        12.9260  -12.7760  -27.0510 C.2    33  ASN33       0.2630
     81  OD1       11.8790  -13.2590  -26.5830 O.2    33  ASN33      -0.2716
     82  ND2       12.9750  -12.2660  -28.2610 N.am   33  ASN33      -0.0877
     83  N         12.3350  -14.2590  -23.6920 N.am   34  ILE34      -0.1977
     84  CA        11.6810  -15.5230  -23.2170 C.3    34  ILE34       0.1596
     85  C         11.0980  -16.3230  -24.3300 C.2    34  ILE34       0.2287
     86  O         10.9690  -17.5500  -24.1800 O.2    34  ILE34      -0.2864
     87  CB        10.5960  -15.2380  -22.1140 C.3    34  ILE34       0.0276
     88  CG1       10.2830  -16.5170  -21.2610 C.3    34  ILE34       0.0022
     89  CG2        9.2430  -14.6300  -22.7740 C.3    34  ILE34       0.0022
     90  CD1       11.5480  -17.0880  -20.5470 C.3    34  ILE34       0.0001
@<TRIPOS>BOND
     1    11    10    2
     2     3     2    1
     3     3     4    2
     4     2     1    1
     5     2     5    1
     6    14     8    1
     7    14    13    1
     8     1     7    1
     9     8     9    1
    10    10     9    1
    11    10    15   am
    12     5     6    1
    13    20    21    1
    14    20    19    1
    15    13    12    1
    16     7     6    1
    17    16    15    1
    18    16    19    1
    19    16    17    1
    20     9    12    1
    21    21    22    1
    22    17    18    2
    23    22    23    1
    24    29    28    1
    25    24    25    1
    26    82    80   am
    27    28    25    1
    28    28    30    1
    29    25    26    1
    30    80    81    2
    31    80    79    1
    32    27    26    2
    33    79    76    1
    34    26    31   am
    35    31    37    1
    36    31    32    1
    37    78    77    2
    38    76    77    1
    39    76    75    1
    40    37    36    1
    41    77    83   am
    42    85    86    2
    43    85    84    1
    44    75    66   am
    45    32    33    1
    46    32    35    1
    47    83    84    1
    48    34    33    2
    49    33    38   am
    50    36    35    1
    51    84    87    1
    52    66    67    2
    53    66    65    1
    54    38    39    1
    55    43    42    1
    56    89    87    1
    57    39    42    1
    58    39    40    1
    59    65    64    1
    60    65    68    1
    61    87    88    1
    62    60    59    2
    63    56    55    2
    64    59    64   am
    65    59    58    1
    66    88    90    1
    67    68    69    1
    68    40    41    2
    69    55    54    1
    70    55    57   am
    71    58    57    1
    72    58    61    1
    73    54    53    1
    74    70    69   ar
    75    70    72   ar
    76    69    71   ar
    77    61    63    1
    78    61    62    1
    79    53    46   am
    80    72    74   ar
    81    51    50   ar
    82    71    73   ar
    83    50    52   ar
    84    50    49    1
    85    46    47    2
    86    46    45    1
    87    74    73   ar
    88    49    48    1
    89    45    48    1
    90    45    44    1
