@<TRIPOS>MOLECULE
tmp/3i0oA01.pdb
 146 137 0 0 0
SMALL
GASTEIGER

@<TRIPOS>ATOM
      1  N         34.0590  -15.8960   10.4210 N.3    30  ALA30      -0.1245
      2  CA        35.0900  -15.6420   11.4260 C.3    30  ALA30       0.1562
      3  C         36.4740  -15.9140   10.8390 C.2    30  ALA30       0.2260
      4  O         37.4230  -15.1610   11.0770 O.2    30  ALA30      -0.2867
      5  CB        34.8590  -16.5240   12.6500 C.3    30  ALA30       0.0290
      6  N         25.8330   -2.8060   14.7840 N.3   106  PHE106     -0.1241
      7  CA        26.7180   -1.8740   14.0770 C.3   106  PHE106      0.1605
      8  C         25.8970   -1.0600   13.0590 C.2   106  PHE106      0.2264
      9  O         26.3060    0.0200   12.6260 O.2   106  PHE106     -0.2867
     10  CB        27.8160   -2.6420   13.3160 C.3   106  PHE106      0.0534
     11  CG        28.8640   -3.2740   14.1970 C.ar  106  PHE106     -0.0203
     12  CD1       29.5260   -4.4270   13.7810 C.ar  106  PHE106     -0.0042
     13  CD2       29.2100   -2.7080   15.4310 C.ar  106  PHE106     -0.0042
     14  CE1       30.5110   -5.0090   14.5700 C.ar  106  PHE106     -0.0003
     15  CE2       30.1930   -3.2840   16.2270 C.ar  106  PHE106     -0.0003
     16  CZ        30.8490   -4.4390   15.7960 C.ar  106  PHE106     -0.0000
     17  N         32.2710  -11.1810   24.8840 N.3   209  ASP209     -0.1239
     18  CA        32.4310  -10.4500   23.6450 C.3   209  ASP209      0.1674
     19  C         31.0980   -9.8610   23.1780 C.2   209  ASP209      0.2266
     20  O         30.7780   -9.8870   21.9930 O.2   209  ASP209     -0.2867
     21  CB        33.0180  -11.4140   22.6110 C.3   209  ASP209      0.1410
     22  CG        33.4450  -10.7250   21.3260 C.2   209  ASP209      0.3668
     23  OD1       34.1330   -9.6770   21.3960 O.co2 209  ASP209     -0.2456
     24  OD2       33.1010  -11.2550   20.2440 O.co2 209  ASP209     -0.2456
     25  N         29.4870   -6.9720   22.2010 N.3   211  HIS211     -0.1241
     26  CA        29.4660   -5.6180   21.6770 C.3   211  HIS211      0.1621
     27  C         28.2910   -5.5950   20.7000 C.2   211  HIS211      0.2264
     28  O         27.5950   -6.6010   20.5460 O.2   211  HIS211     -0.2867
     29  CB        30.7830   -5.2980   20.9710 C.3   211  HIS211      0.0745
     30  CG        31.2120   -6.3330   19.9760 C.ar  211  HIS211      0.0817
     31  ND1       30.6610   -6.4340   18.7150 N.ar  211  HIS211     -0.2268
     32  CD2       32.1570   -7.3010   20.0510 C.ar  211  HIS211      0.1154
     33  CE1       31.2490   -7.4160   18.0570 C.ar  211  HIS211      0.1986
     34  NE2       32.1620   -7.9600   18.8440 N.ar  211  HIS211     -0.2212
     35  N         27.5120   -8.3470   18.0980 N.3   214  ASN214     -0.1240
     36  CA        26.9910   -9.6140   18.5700 C.3   214  ASN214      0.1653
     37  C         25.5950   -9.5000   19.1380 C.2   214  ASN214      0.2266
     38  O         25.1900  -10.2690   20.0060 O.2   214  ASN214     -0.2867
     39  CB        27.9550  -10.2470   19.5710 C.3   214  ASN214      0.1155
     40  CG        29.1880  -10.8170   18.8890 C.2   214  ASN214      0.2627
     41  OD1       29.0840  -11.3810   17.7990 O.2   214  ASN214     -0.2716
     42  ND2       30.3540  -10.6850   19.5220 N.am  214  ASN214     -0.0877
     43  N         26.8300  -15.2350   18.9690 N.3   227  ASP227     -0.1239
     44  CA        28.2570  -15.4770   19.1260 C.3   227  ASP227      0.1674
     45  C         28.5790  -16.0090   20.5220 C.2   227  ASP227      0.2266
     46  O         29.2640  -15.3500   21.3070 O.2   227  ASP227     -0.2867
     47  CB        29.0330  -14.1730   18.8830 C.3   227  ASP227      0.1410
     48  CG        30.3550  -14.3900   18.1570 C.2   227  ASP227      0.3668
     49  OD1       30.8390  -15.5430   18.1010 O.co2 227  ASP227     -0.2456
     50  OD2       30.9150  -13.3970   17.6440 O.co2 227  ASP227     -0.2456
     51  N         32.8270  -17.8270   23.1740 N.3   230  GLU230     -0.1245
     52  CA        33.7980  -17.5450   24.2250 C.3   230  GLU230      0.1567
     53  C         33.2150  -17.3860   25.6230 C.2   230  GLU230      0.2260
     54  O         33.7650  -16.6430   26.4230 O.2   230  GLU230     -0.2867
     55  CB        34.5810  -16.2710   23.8810 C.3   230  GLU230      0.0388
     56  CG        35.0820  -16.1990   22.4410 C.3   230  GLU230      0.1160
     57  CD        36.1730  -17.2100   22.1420 C.2   230  GLU230      0.3649
     58  OE1       36.0050  -18.4040   22.4760 O.co2 230  GLU230     -0.2457
     59  OE2       37.2010  -16.8080   21.5600 O.co2 230  GLU230     -0.2457
     60  N         32.8280   -0.0870   20.8850 N.3   247  VAL247     -0.1231
     61  CA        33.2330   -1.0230   19.8380 C.3   247  VAL247      0.1692
     62  C         32.4120   -0.7750   18.5680 C.2   247  VAL247      0.2592
     63  O         31.1750   -0.7180   18.6110 O.2   247  VAL247     -0.2718
     64  CB        33.0690   -2.5200   20.2850 C.3   247  VAL247      0.0266
     65  CG1       33.4070   -3.4590   19.1250 C.3   247  VAL247      0.0020
     66  CG2       33.9780   -2.8160   21.4590 C.3   247  VAL247      0.0020
     67  N         33.1060   -0.6160   17.4450 N.am  248  GLY248     -0.1957
     68  CA        32.4270   -0.3770   16.1790 C.3   248  GLY248      0.1869
     69  C         31.8900    1.0380   16.0060 C.2   248  GLY248      0.2309
     70  O         31.0640    1.2950   15.1190 O.2   248  GLY248     -0.2863
     71  N         41.3330   -5.6760   26.0890 N.3   281  ARG281     -0.1245
     72  CA        40.6520   -6.1200   24.8820 C.3   281  ARG281      0.1563
     73  C         41.2770   -5.4760   23.6450 C.2   281  ARG281      0.2260
     74  O         41.4220   -6.1340   22.6100 O.2   281  ARG281     -0.2867
     75  CB        39.1490   -5.8090   24.9360 C.3   281  ARG281      0.0307
     76  CG        38.4200   -6.2960   23.6970 C.3   281  ARG281      0.0489
     77  CD        36.9170   -6.1280   23.7770 C.3   281  ARG281      0.2205
     78  NE        36.2770   -6.8840   22.7060 N.pl3 281  ARG281     -0.0865
     79  CZ        36.1470   -6.4560   21.4550 C.cat 281  ARG281      0.5346
     80  NH1       36.5980   -5.2610   21.0960 N.pl3 281  ARG281      0.1354
     81  NH2       35.5890   -7.2440   20.5500 N.pl3 281  ARG281      0.1354
     82  N         44.5550   -7.1230   22.8970 N.3   284  GLU284     -0.1231
     83  CA        44.3440   -8.3920   22.2100 C.3   284  GLU284      0.1699
     84  C         44.1570   -8.1460   20.7110 C.2   284  GLU284      0.2592
     85  O         44.7660   -8.8330   19.8750 O.2   284  GLU284     -0.2718
     86  CB        43.1170   -9.1310   22.7800 C.3   284  GLU284      0.0402
     87  CG        42.9500  -10.5680   22.2430 C.3   284  GLU284      0.1161
     88  CD        41.8530  -11.3750   22.9500 C.2   284  GLU284      0.3649
     89  OE1       41.7800  -11.3410   24.1970 O.co2 284  GLU284     -0.2457
     90  OE2       41.0720  -12.0640   22.2590 O.co2 284  GLU284     -0.2457
     91  N         43.3200   -7.1720   20.3630 N.am  285  ASP285     -0.1974
     92  CA        43.0970   -6.8860   18.9570 C.3   285  ASP285      0.1709
     93  C         44.3870   -6.4380   18.2940 C.2   285  ASP285      0.2293
     94  O         44.6880   -6.8600   17.1800 O.2   285  ASP285     -0.2864
     95  CB        42.0000   -5.8390   18.7690 C.3   285  ASP285      0.1436
     96  CG        40.6020   -6.4540   18.7560 C.2   285  ASP285      0.3671
     97  OD1       40.4850   -7.7040   18.7500 O.co2 285  ASP285     -0.2456
     98  OD2       39.6180   -5.6860   18.7430 O.co2 285  ASP285     -0.2456
     99  N         46.3550   -9.6090   17.6710 N.3   288  VAL288     -0.1231
    100  CA        45.8490  -10.4640   16.6050 C.3   288  VAL288      0.1692
    101  C         46.0350   -9.8150   15.2310 C.2   288  VAL288      0.2592
    102  O         46.4850  -10.4660   14.2940 O.2   288  VAL288     -0.2718
    103  CB        44.3570  -10.8110   16.8170 C.3   288  VAL288      0.0266
    104  CG1       43.7920  -11.4790   15.5600 C.3   288  VAL288      0.0020
    105  CG2       44.2080  -11.7430   18.0290 C.3   288  VAL288      0.0020
    106  N         45.6860   -8.5370   15.1090 N.am  289  TYR289     -0.1976
    107  CA        45.8460   -7.8360   13.8380 C.3   289  TYR289      0.1639
    108  C         47.3270   -7.6690   13.5290 C.2   289  TYR289      0.2290
    109  O         47.7500   -7.8010   12.3820 O.2   289  TYR289     -0.2864
    110  CB        45.1610   -6.4740   13.8980 C.3   289  TYR289      0.0560
    111  CG        43.6610   -6.5800   14.0340 C.ar  289  TYR289     -0.0198
    112  CD1       42.9340   -5.6140   14.7260 C.ar  289  TYR289     -0.0009
    113  CD2       42.9710   -7.6690   13.4980 C.ar  289  TYR289     -0.0009
    114  CE1       41.5640   -5.7300   14.8920 C.ar  289  TYR289      0.0417
    115  CE2       41.5980   -7.7970   13.6510 C.ar  289  TYR289      0.0417
    116  CZ        40.9030   -6.8230   14.3540 C.ar  289  TYR289      0.1957
    117  OH        39.5530   -6.9520   14.5270 O.3   289  TYR289     -0.2866
    118  N         40.5870   -2.6610   10.5190 N.3   309  TYR309     -0.1241
    119  CA        40.1020   -2.7600   11.8940 C.3   309  TYR309      0.1605
    120  C         41.1020   -2.2080   12.8900 C.2   309  TYR309      0.2264
    121  O         40.7360   -1.5430   13.8540 O.2   309  TYR309     -0.2867
    122  CB        39.7890   -4.2170   12.2220 C.3   309  TYR309      0.0534
    123  CG        38.5270   -4.7070   11.5620 C.ar  309  TYR309     -0.0201
    124  CD1       38.3600   -6.0520   11.2530 C.ar  309  TYR309     -0.0009
    125  CD2       37.4790   -3.8290   11.2820 C.ar  309  TYR309     -0.0009
    126  CE1       37.1750   -6.5210   10.6820 C.ar  309  TYR309      0.0417
    127  CE2       36.2910   -4.2810   10.7140 C.ar  309  TYR309      0.0417
    128  CZ        36.1470   -5.6320   10.4160 C.ar  309  TYR309      0.1957
    129  OH        34.9770   -6.0990    9.8600 O.3   309  TYR309     -0.2866
    130  N         40.9130    1.4910   12.7130 N.3   312  GLU312     -0.1231
    131  CA        39.5630    1.8600   13.1360 C.3   312  GLU312      0.1699
    132  C         39.5240    2.1130   14.6490 C.2   312  GLU312      0.2592
    133  O         38.8090    2.9900   15.1290 O.2   312  GLU312     -0.2718
    134  CB        38.5990    0.7310   12.7550 C.3   312  GLU312      0.0402
    135  CG        37.1250    1.1000   12.6830 C.3   312  GLU312      0.1161
    136  CD        36.2950    0.4580   13.7940 C.2   312  GLU312      0.3649
    137  OE1       36.5880   -0.7080   14.1610 O.co2 312  GLU312     -0.2457
    138  OE2       35.3400    1.1130   14.2870 O.co2 312  GLU312     -0.2457
    139  N         40.3150    1.3540   15.3950 N.am  313  MET313     -0.1979
    140  CA        40.3520    1.4920   16.8420 C.3   313  MET313      0.1605
    141  C         40.8210    2.8540   17.3690 C.2   313  MET313      0.2287
    142  O         40.4490    3.2570   18.4770 O.2   313  MET313     -0.2864
    143  CB        41.2490    0.4090   17.4410 C.3   313  MET313      0.0413
    144  CG        40.9400   -0.9960   16.9710 C.3   313  MET313      0.0598
    145  SD        41.7920   -2.2060   17.9720 S.3   313  MET313     -0.1393
    146  CE        43.4940   -1.9210   17.5550 C.3   313  MET313      0.0692
@<TRIPOS>BOND
     1   129   128    1
     2   128   126   ar
     3   128   127   ar
     4     1     2    1
     5   118   119    1
     6   126   124   ar
     7   127   125   ar
     8     3     4    2
     9     3     2    1
    10   124   123   ar
    11   125   123   ar
    12     2     5    1
    13   123   122    1
    14   119   122    1
    15   119   120    1
    16   109   108    2
    17     9     8    2
    18   135   134    1
    19   135   136    1
    20   130   131    1
    21   134   131    1
    22   120   121    2
    23     8     7    1
    24   131   132    1
    25    10     7    1
    26    10    11    1
    27   113   115   ar
    28   113   111   ar
    29   108   107    1
    30   115   116   ar
    31    12    11   ar
    32    12    14   ar
    33   136   137   ar
    34   136   138   ar
    35   107   110    1
    36   107   106    1
    37   110   111    1
    38   111   112   ar
    39     7     6    1
    40    11    13   ar
    41   102   101    2
    42   116   117    1
    43   116   114   ar
    44    14    16   ar
    45   132   133    2
    46   132   139   am
    47   112   114   ar
    48   106   101   am
    49    70    69    2
    50   101   100    1
    51   139   140    1
    52    13    15   ar
    53   104   103    1
    54    16    15   ar
    55    69    68    1
    56    68    67    1
    57   100   103    1
    58   100    99    1
    59   103   105    1
    60   140   141    1
    61   140   143    1
    62   144   143    1
    63   144   145    1
    64    94    93    2
    65   141   142    2
    66    67    62   am
    67   146   145    1
    68    50    48   ar
    69    41    40    2
    70    33    31   ar
    71    33    34   ar
    72    35    36    1
    73    49    48   ar
    74    48    47    1
    75    93    92    1
    76    62    63    2
    77    62    61    1
    78    36    37    1
    79    36    39    1
    80    31    30   ar
    81    98    96   ar
    82    97    96   ar
    83    96    95    1
    84    95    92    1
    85    34    32   ar
    86    47    44    1
    87    40    42   am
    88    40    39    1
    89    92    91    1
    90    43    44    1
    91    65    64    1
    92    44    45    1
    93    37    38    2
    94    61    64    1
    95    61    60    1
    96    85    84    2
    97    30    32   ar
    98    30    29    1
    99    24    22   ar
   100    64    66    1
   101    91    84   am
   102    45    46    2
   103    28    27    2
   104    81    79    1
   105    27    26    1
   106    84    83    1
   107    29    26    1
   108    80    79    1
   109    22    23   ar
   110    22    21    1
   111    79    78    2
   112    59    57   ar
   113    26    25    1
   114    20    19    2
   115    57    56    1
   116    57    58   ar
   117    83    86    1
   118    83    82    1
   119    87    86    1
   120    87    88    1
   121    90    88   ar
   122    56    55    1
   123    74    73    2
   124    21    18    1
   125    78    77    1
   126    88    89   ar
   127    51    52    1
   128    19    18    1
   129    73    72    1
   130    18    17    1
   131    76    77    1
   132    76    75    1
   133    55    52    1
   134    52    53    1
   135    72    75    1
   136    72    71    1
   137    53    54    2
