@<TRIPOS>MOLECULE
tmp/3i0oA00.pdb
 137 129 0 0 0
SMALL
GASTEIGER

@<TRIPOS>ATOM
      1  N         32.2850  -14.4940    7.6180 N.3    29  GLY29      -0.1210
      2  CA        32.9070  -15.6160    8.3050 C.3    29  GLY29       0.1956
      3  C         34.0300  -15.2450    9.2580 C.2    29  GLY29       0.2611
      4  O         34.8580  -14.3860    8.9480 O.2    29  GLY29      -0.2717
      5  N         34.0590  -15.8960   10.4210 N.am   30  ALA30      -0.1979
      6  CA        35.0900  -15.6420   11.4260 C.3    30  ALA30       0.1597
      7  C         36.4740  -15.9140   10.8390 C.2    30  ALA30       0.2287
      8  O         37.4230  -15.1610   11.0770 O.2    30  ALA30      -0.2864
      9  CB        34.8590  -16.5240   12.6500 C.3    30  ALA30       0.0319
     10  N         34.9110  -21.9660   10.2660 N.3    34  ALA34      -0.1245
     11  CA        33.6480  -21.2610   10.4260 C.3    34  ALA34       0.1562
     12  C         32.9660  -20.8720    9.1200 C.2    34  ALA34       0.2260
     13  O         33.2150  -19.7980    8.5640 O.2    34  ALA34      -0.2867
     14  CB        33.8350  -19.9730   11.2580 C.3    34  ALA34       0.0290
     15  N         19.7700  -20.8650    9.2890 N.3    47  PHE47      -0.1241
     16  CA        21.1300  -20.3470    9.2630 C.3    47  PHE47       0.1605
     17  C         21.9800  -21.5300    9.7060 C.2    47  PHE47       0.2264
     18  O         21.8720  -21.9920   10.8390 O.2    47  PHE47      -0.2867
     19  CB        21.2540  -19.1670   10.2200 C.3    47  PHE47       0.0534
     20  CG        22.6440  -18.6110   10.3330 C.ar   47  PHE47      -0.0203
     21  CD1       23.4990  -19.0430   11.3410 C.ar   47  PHE47      -0.0042
     22  CD2       23.0940  -17.6400    9.4390 C.ar   47  PHE47      -0.0042
     23  CE1       24.7840  -18.5140   11.4580 C.ar   47  PHE47      -0.0003
     24  CE2       24.3770  -17.1030    9.5450 C.ar   47  PHE47      -0.0003
     25  CZ        25.2240  -17.5390   10.5560 C.ar   47  PHE47      -0.0000
     26  N         25.6420  -23.4000   10.3450 N.3    49  LYS49      -0.1245
     27  CA        27.0430  -23.2140   10.6690 C.3    49  LYS49       0.1561
     28  C         27.7850  -24.5350   10.5860 C.2    49  LYS49       0.2260
     29  O         27.3590  -25.5330   11.1630 O.2    49  LYS49      -0.2867
     30  CB        27.2010  -22.6560   12.0840 C.3    49  LYS49       0.0271
     31  CG        26.8600  -21.1900   12.2520 C.3    49  LYS49       0.0035
     32  CD        27.2320  -20.7020   13.6560 C.3    49  LYS49       0.0206
     33  CE        26.9710  -19.2050   13.8230 C.3    49  LYS49       0.1093
     34  NZ        27.4000  -18.6830   15.1490 N.3    49  LYS49      -0.1314
     35  N         19.3910  -17.5090   20.2140 N.3    75  ILE75      -0.1245
     36  CA        18.8600  -18.3090   19.1270 C.3    75  ILE75       0.1561
     37  C         19.1220  -19.7770   19.4140 C.2    75  ILE75       0.2260
     38  O         20.2510  -20.2450   19.2980 O.2    75  ILE75      -0.2867
     39  CB        19.5120  -17.9170   17.7840 C.3    75  ILE75       0.0252
     40  CG1       19.4840  -16.3850   17.6260 C.3    75  ILE75       0.0019
     41  CG2       18.7770  -18.5930   16.6420 C.3    75  ILE75       0.0019
     42  CD1       20.1420  -15.8590   16.3630 C.3    75  ILE75       0.0001
     43  N         20.2010  -23.2460   12.8360 N.3    97  TYR97      -0.1228
     44  CA        19.4060  -22.3600   13.6650 C.3    97  TYR97       0.1721
     45  C         18.3540  -21.7830   12.7550 C.2    97  TYR97       0.2437
     46  O         18.4730  -21.8580   11.5460 O.2    97  TYR97      -0.2733
     47  CB        20.2100  -21.1620   14.1860 C.3    97  TYR97       0.0547
     48  CG        21.4170  -21.4600   15.0300 C.ar   97  TYR97      -0.0200
     49  CD1       22.6470  -21.7650   14.4450 C.ar   97  TYR97      -0.0009
     50  CD2       21.3480  -21.3870   16.4210 C.ar   97  TYR97      -0.0009
     51  CE1       23.7740  -21.9810   15.2230 C.ar   97  TYR97       0.0417
     52  CE2       22.4770  -21.6030   17.2100 C.ar   97  TYR97       0.0417
     53  CZ        23.6850  -21.8970   16.6080 C.ar   97  TYR97       0.1957
     54  OH        24.8040  -22.0980   17.3870 O.3    97  TYR97      -0.2866
     55  N         17.2800  -21.2370   13.3250 N.am   98  PRO98      -0.2718
     56  CA        16.3070  -20.6590   12.3990 C.3    98  PRO98       0.1535
     57  C         17.0170  -19.3920   11.8930 C.2    98  PRO98       0.2599
     58  O         17.9370  -18.8930   12.5500 O.2    98  PRO98      -0.2715
     59  CB        15.1200  -20.3410   13.2990 C.3    98  PRO98       0.0310
     60  CG        15.7540  -20.1120   14.6500 C.3    98  PRO98       0.0237
     61  CD        16.8010  -21.1940   14.7180 C.3    98  PRO98       0.0939
     62  N         16.6160  -18.8700   10.7410 N.am   99  PHE99      -0.1960
     63  CA        17.2560  -17.6780   10.2200 C.3    99  PHE99       0.1771
     64  C         16.5690  -16.4400   10.7680 C.2    99  PHE99       0.2619
     65  O         15.3430  -16.3300   10.7070 O.2    99  PHE99      -0.2715
     66  CB        17.1940  -17.6600    8.6930 C.3    99  PHE99       0.0574
     67  CG        18.1540  -16.6910    8.0580 C.ar   99  PHE99      -0.0200
     68  CD1       19.3910  -17.1200    7.6080 C.ar   99  PHE99      -0.0042
     69  CD2       17.8200  -15.3450    7.9200 C.ar   99  PHE99      -0.0042
     70  CE1       20.2950  -16.2210    7.0220 C.ar   99  PHE99      -0.0003
     71  CE2       18.7120  -14.4400    7.3390 C.ar   99  PHE99      -0.0003
     72  CZ        19.9540  -14.8820    6.8870 C.ar   99  PHE99      -0.0000
     73  N         17.3670  -15.5190   11.3070 N.am  100  ILE100     -0.1977
     74  CA        16.8730  -14.2570   11.8680 C.3   100  ILE100      0.1596
     75  C         17.3420  -13.1240   10.9330 C.2   100  ILE100      0.2287
     76  O         18.5400  -12.9270   10.7370 O.2   100  ILE100     -0.2864
     77  CB        17.4520  -14.0280   13.2960 C.3   100  ILE100      0.0276
     78  CG1       17.0920  -15.2030   14.2080 C.3   100  ILE100      0.0022
     79  CG2       16.9400  -12.7060   13.8760 C.3   100  ILE100      0.0022
     80  CD1       15.6220  -15.3370   14.4970 C.3   100  ILE100      0.0001
     81  N         17.0390   -9.7940   11.3320 N.3   102  ALA102     -0.1245
     82  CA        17.4540   -8.5590   11.9850 C.3   102  ALA102      0.1562
     83  C         18.9180   -8.2090   11.7310 C.2   102  ALA102      0.2260
     84  O         19.7700   -9.0880   11.6250 O.2   102  ALA102     -0.2867
     85  CB        17.2050   -8.6580   13.4790 C.3   102  ALA102      0.0290
     86  N         22.6440   -6.3900   12.7500 N.3   104  ASN104     -0.1240
     87  CA        23.3430   -6.3440   14.0230 C.3   104  ASN104      0.1653
     88  C         23.3850   -4.9110   14.5610 C.2   104  ASN104      0.2266
     89  O         22.8840   -3.9870   13.9240 O.2   104  ASN104     -0.2867
     90  CB        24.7550   -6.9220   13.8900 C.3   104  ASN104      0.1155
     91  CG        25.6380   -6.1140   12.9680 C.2   104  ASN104      0.2627
     92  OD1       25.6050   -4.8800   12.9720 O.2   104  ASN104     -0.2716
     93  ND2       26.4570   -6.8070   12.1840 N.am  104  ASN104     -0.0877
     94  N         28.1070   -5.8000   17.5010 N.3   213  GLY213     -0.1210
     95  CA        28.1350   -6.7390   16.4010 C.3   213  GLY213      0.1956
     96  C         27.5680   -8.0870   16.7990 C.2   213  GLY213      0.2611
     97  O         27.1820   -8.8890   15.9460 O.2   213  GLY213     -0.2717
     98  N         27.5120   -8.3470   18.0980 N.am  214  ASN214     -0.1974
     99  CA        26.9910   -9.6140   18.5700 C.3   214  ASN214      0.1688
    100  C         25.5950   -9.5000   19.1380 C.2   214  ASN214      0.2292
    101  O         25.1900  -10.2690   20.0060 O.2   214  ASN214     -0.2864
    102  CB        27.9550  -10.2470   19.5710 C.3   214  ASN214      0.1181
    103  CG        29.1880  -10.8170   18.8890 C.2   214  ASN214      0.2629
    104  OD1       29.0840  -11.3810   17.7990 O.2   214  ASN214     -0.2716
    105  ND2       30.3540  -10.6850   19.5220 N.am  214  ASN214     -0.0877
    106  N         21.6410   -8.9030   17.5570 N.3   216  LEU216     -0.1245
    107  CA        20.7660   -8.7770   16.4060 C.3   216  LEU216      0.1561
    108  C         19.5730   -7.9870   16.9160 C.2   216  LEU216      0.2260
    109  O         18.8890   -8.4090   17.8460 O.2   216  LEU216     -0.2867
    110  CB        20.3400  -10.1510   15.8920 C.3   216  LEU216      0.0270
    111  CG        21.4800  -10.9340   15.2330 C.3   216  LEU216      0.0019
    112  CD1       20.9150  -12.1850   14.5430 C.3   216  LEU216      0.0001
    113  CD2       22.2000  -10.0320   14.2250 C.3   216  LEU216      0.0001
    114  N         24.0930  -13.1070   20.1460 N.3   226  ILE226     -0.1231
    115  CA        24.6970  -14.2100   19.4120 C.3   226  ILE226      0.1692
    116  C         26.1690  -14.3640   19.7270 C.2   226  ILE226      0.2592
    117  O         26.6940  -13.7090   20.6340 O.2   226  ILE226     -0.2718
    118  CB        24.5570  -13.9930   17.9010 C.3   226  ILE226      0.0266
    119  CG1       25.1780  -12.6410   17.5190 C.3   226  ILE226      0.0019
    120  CG2       23.0860  -14.0370   17.5100 C.3   226  ILE226      0.0020
    121  CD1       25.2130  -12.3790   16.0210 C.3   226  ILE226      0.0001
    122  N         26.8300  -15.2350   18.9690 N.am  227  ASP227     -0.1974
    123  CA        28.2570  -15.4770   19.1260 C.3   227  ASP227      0.1709
    124  C         28.5790  -16.0090   20.5220 C.2   227  ASP227      0.2293
    125  O         29.2640  -15.3500   21.3070 O.2   227  ASP227     -0.2864
    126  CB        29.0330  -14.1730   18.8830 C.3   227  ASP227      0.1436
    127  CG        30.3550  -14.3900   18.1570 C.2   227  ASP227      0.3671
    128  OD1       30.8390  -15.5430   18.1010 O.co2 227  ASP227     -0.2456
    129  OD2       30.9150  -13.3970   17.6440 O.co2 227  ASP227     -0.2456
    130  N         30.6640  -18.2910   21.5870 N.3   229  ASP229     -0.1239
    131  CA        31.8280  -19.1430   21.4050 C.3   229  ASP229      0.1674
    132  C         32.8630  -18.9680   22.4990 C.2   229  ASP229      0.2266
    133  O         33.6730  -19.8560   22.7320 O.2   229  ASP229     -0.2867
    134  CB        32.4890  -18.8730   20.0470 C.3   229  ASP229      0.1410
    135  CG        31.5980  -19.2510   18.8730 C.2   229  ASP229      0.3668
    136  OD1       31.0860  -20.3950   18.8420 O.co2 229  ASP229     -0.2456
    137  OD2       31.4220  -18.4000   17.9770 O.co2 229  ASP229     -0.2456
@<TRIPOS>BOND
     1    72    70   ar
     2    72    71   ar
     3    70    68   ar
     4    71    69   ar
     5    68    67   ar
     6     1     2    1
     7    69    67   ar
     8    67    66    1
     9     2     3    1
    10    13    12    2
    11    66    63    1
    12     4     3    2
    13    12    11    1
    14     3     5   am
    15    16    15    1
    16    16    17    1
    17    16    19    1
    18    22    24   ar
    19    22    20   ar
    20    24    25   ar
    21    17    18    2
    22    19    20    1
    23    63    62    1
    24    63    64    1
    25    10    11    1
    26    20    21   ar
    27    26    27    1
    28     5     6    1
    29    11    14    1
    30    25    23   ar
    31    28    27    1
    32    28    29    2
    33    27    30    1
    34    65    64    2
    35    76    75    2
    36    62    57   am
    37    64    73   am
    38     7     8    2
    39     7     6    1
    40    75    74    1
    41    73    74    1
    42    81    82    1
    43    21    23   ar
    44     6     9    1
    45    46    45    2
    46    84    83    2
    47    83    82    1
    48    74    77    1
    49    57    56    1
    50    57    58    2
    51    82    85    1
    52    30    31    1
    53    93    91   am
    54    31    32    1
    55    56    59    1
    56    56    55    1
    57    86    87    1
    58    45    55   am
    59    45    44    1
    60    43    44    1
    61    91    92    2
    62    91    90    1
    63    77    79    1
    64    77    78    1
    65    59    60    1
    66    55    61    1
    67    32    33    1
    68    44    47    1
    69    33    34    1
    70    90    87    1
    71    89    88    2
    72    87    88    1
    73    47    48    1
    74    78    80    1
    75   113   111    1
    76    49    48   ar
    77    49    51   ar
    78   112   111    1
    79    60    61    1
    80    48    50   ar
    81    51    53   ar
    82   111   110    1
    83   110   107    1
    84    97    96    2
    85   121   119    1
    86    42    40    1
    87    95    96    1
    88    95    94    1
    89   107   108    1
    90   107   106    1
    91    50    52   ar
    92    53    52   ar
    93    53    54    1
    94    41    39    1
    95    96    98   am
    96   108   109    2
    97   120   118    1
    98   119   118    1
    99    40    39    1
   100   129   127   ar
   101    39    36    1
   102   104   103    2
   103   118   115    1
   104   137   135   ar
   105    98    99    1
   106   128   127   ar
   107   127   126    1
   108    99   100    1
   109    99   102    1
   110   136   135   ar
   111   135   134    1
   112   126   123    1
   113   103   105   am
   114   103   102    1
   115   122   123    1
   116   122   116   am
   117   123   124    1
   118    36    37    1
   119    36    35    1
   120   100   101    2
   121    38    37    2
   122   115   116    1
   123   115   114    1
   124   116   117    2
   125   134   131    1
   126   124   125    2
   127   131   130    1
   128   131   132    1
   129   132   133    2
