@<TRIPOS>MOLECULE
tmp/3i0pA00.pdb
 221 216 0 0 0
SMALL
GASTEIGER

@<TRIPOS>ATOM
      1  N         32.5990   25.6370   22.5570 N.3    43  MET43      -0.1245
      2  CA        31.2910   26.1100   22.1110 C.3    43  MET43       0.1570
      3  C         31.1890   25.8170   20.6230 C.2    43  MET43       0.2261
      4  O         31.2830   26.7140   19.7930 O.2    43  MET43      -0.2867
      5  CB        31.1280   27.6190   22.3660 C.3    43  MET43       0.0387
      6  CG        31.3380   28.0740   23.7970 C.3    43  MET43       0.0595
      7  SD        30.1970   27.2280   24.8930 S.3    43  MET43      -0.1393
      8  CE        30.5760   28.0310   26.4700 C.3    43  MET43       0.0692
      9  N         29.6340   27.9080   17.6480 N.3    46  HIS46      -0.1241
     10  CA        29.9110   29.3410   17.4900 C.3    46  HIS46       0.1621
     11  C         31.2540   29.7300   16.8690 C.2    46  HIS46       0.2264
     12  O         31.6080   30.9150   16.8520 O.2    46  HIS46      -0.2867
     13  CB        29.6720   30.0780   18.8130 C.3    46  HIS46       0.0745
     14  CG        28.2250   30.2500   19.1400 C.ar   46  HIS46       0.0817
     15  ND1       27.5520   29.4180   20.0090 N.ar   46  HIS46      -0.2268
     16  CD2       27.3090   31.1390   18.6860 C.ar   46  HIS46       0.1154
     17  CE1       26.2890   29.7990   20.0920 C.ar   46  HIS46       0.1986
     18  NE2       26.1140   30.8380   19.2950 N.ar   46  HIS46      -0.2212
     19  N         25.5980   39.3230   14.5600 N.3   119  HIS119     -0.1226
     20  CA        25.9670   38.2240   15.4470 C.3   119  HIS119      0.1752
     21  C         27.4000   38.3630   15.9590 C.2   119  HIS119      0.2596
     22  O         28.3350   38.6170   15.1860 O.2   119  HIS119     -0.2718
     23  CB        25.7900   36.8920   14.7280 C.3   119  HIS119      0.0759
     24  CG        25.6090   35.7310   15.6530 C.ar  119  HIS119      0.0818
     25  ND1       26.6490   34.9140   16.0340 N.ar  119  HIS119     -0.2268
     26  CD2       24.5060   35.2520   16.2770 C.ar  119  HIS119      0.1154
     27  CE1       26.1970   33.9790   16.8520 C.ar  119  HIS119      0.1986
     28  NE2       24.9000   34.1660   17.0220 N.ar  119  HIS119     -0.2212
     29  N         27.5710   38.2130   17.2680 N.am  120  PHE120     -0.1962
     30  CA        28.8670   38.4780   17.8770 C.3   120  PHE120      0.1771
     31  C         29.5150   37.2480   18.5090 C.2   120  PHE120      0.2620
     32  O         30.4410   37.3680   19.3120 O.2   120  PHE120     -0.2715
     33  CB        28.8010   39.7210   18.8040 C.3   120  PHE120      0.0574
     34  CG        28.3210   39.4590   20.2160 C.ar  120  PHE120     -0.0200
     35  CD1       28.3560   40.4860   21.1460 C.ar  120  PHE120     -0.0042
     36  CD2       27.8590   38.2090   20.6240 C.ar  120  PHE120     -0.0042
     37  CE1       27.9350   40.2850   22.4630 C.ar  120  PHE120     -0.0003
     38  CE2       27.4530   37.9880   21.9430 C.ar  120  PHE120     -0.0003
     39  CZ        27.4830   39.0330   22.8650 C.ar  120  PHE120     -0.0000
     40  N         29.0390   36.0680   18.1170 N.am  121  GLY121     -0.1940
     41  CA        29.6050   34.8070   18.5770 C.3   121  GLY121      0.2014
     42  C         29.3670   34.5890   20.0540 C.2   121  GLY121      0.2639
     43  O         28.2810   34.8580   20.5620 O.2   121  GLY121     -0.2714
     44  N         30.3830   34.1080   20.7580 N.am  122  ILE122     -0.1963
     45  CA        30.2200   33.8140   22.1800 C.3   122  ILE122      0.1727
     46  C         30.2720   35.0490   23.0830 C.2   122  ILE122      0.2616
     47  O         31.2010   35.8610   22.9950 O.2   122  ILE122     -0.2715
     48  CB        31.1960   32.7150   22.6760 C.3   122  ILE122      0.0290
     49  CG1       32.6490   33.0330   22.2970 C.3   122  ILE122      0.0022
     50  CG2       30.7680   31.3750   22.1420 C.3   122  ILE122      0.0023
     51  CD1       33.6550   32.3120   23.1800 C.3   122  ILE122      0.0001
     52  N         29.2740   35.1960   23.9500 N.am  123  ALA123     -0.1977
     53  CA        29.2400   36.3600   24.8380 C.3   123  ALA123      0.1597
     54  C         30.4770   36.3620   25.7310 C.2   123  ALA123      0.2287
     55  O         31.0800   37.4130   25.9810 O.2   123  ALA123     -0.2864
     56  CB        27.9610   36.3850   25.6670 C.3   123  ALA123      0.0319
     57  N         23.7960   40.3060   24.5430 N.3   141  THR141     -0.1203
     58  CA        23.3000   40.6750   23.2270 C.3   141  THR141      0.1994
     59  C         21.8520   40.2430   23.1530 C.2   141  THR141      0.2618
     60  O         21.4690   39.2960   23.8280 O.2   141  THR141     -0.2717
     61  CB        24.1240   39.9840   22.0810 C.3   141  THR141      0.1784
     62  OG1       23.6960   40.4760   20.8060 O.3   141  THR141     -0.2211
     63  CG2       23.9720   38.4690   22.1010 C.3   141  THR141      0.0376
     64  N         21.0340   40.9390   22.3710 N.am  142  ASN142     -0.1960
     65  CA        19.7430   40.3660   22.0160 C.3   142  ASN142      0.1819
     66  C         19.8730   39.5400   20.7380 C.2   142  ASN142      0.2621
     67  O         20.9360   39.5300   20.1120 O.2   142  ASN142     -0.2715
     68  CB        18.6010   41.4000   21.9720 C.3   142  ASN142      0.1195
     69  CG        18.8440   42.5620   21.0010 C.2   142  ASN142      0.2630
     70  OD1       19.8440   42.6200   20.2680 O.2   142  ASN142     -0.2716
     71  ND2       17.9000   43.5050   21.0000 N.am  142  ASN142     -0.0877
     72  N         18.8160   38.8190   20.3810 N.am  143  ALA143     -0.1977
     73  CA        18.8130   37.9540   19.2100 C.3   143  ALA143      0.1597
     74  C         17.3790   37.8130   18.7150 C.2   143  ALA143      0.2287
     75  O         16.4510   38.2440   19.4010 O.2   143  ALA143     -0.2864
     76  CB        19.4030   36.5930   19.5580 C.3   143  ALA143      0.0319
     77  N         17.4500   34.2990   22.6950 N.3   159  THR159     -0.1218
     78  CA        18.0570   33.4600   23.7110 C.3   159  THR159      0.1862
     79  C         18.8960   34.3320   24.6510 C.2   159  THR159      0.2287
     80  O         19.3120   33.8890   25.7260 O.2   159  THR159     -0.2866
     81  CB        18.9120   32.3620   23.0830 C.3   159  THR159      0.1770
     82  OG1       19.6760   32.9170   22.0020 O.3   159  THR159     -0.2211
     83  CG2       18.0250   31.2570   22.5320 C.3   159  THR159      0.0375
     84  N         21.9180   35.8750   25.6360 N.3   161  PRO161     -0.2116
     85  CA        22.9160   35.4000   26.5810 C.3   161  PRO161      0.1372
     86  C         23.4840   36.5200   27.4360 C.2   161  PRO161      0.2244
     87  O         23.4550   37.6960   27.0540 O.2   161  PRO161     -0.2868
     88  CB        24.0000   34.7970   25.6790 C.3   161  PRO161      0.0268
     89  CG        23.9300   35.5900   24.4420 C.3   161  PRO161      0.0207
     90  CD        22.4640   35.9610   24.2670 C.3   161  PRO161      0.0892
     91  N         34.2120   32.5190   34.5020 N.3   175  CYS175     -0.1221
     92  CA        33.5110   32.9970   33.3300 C.3   175  CYS175      0.1808
     93  C         32.1950   32.2970   33.1480 C.2   175  CYS175      0.2601
     94  O         32.1400   31.1970   32.5800 O.2   175  CYS175     -0.2717
     95  CB        34.3460   32.8250   32.0640 C.3   175  CYS175      0.0970
     96  SG        33.6010   33.6610   30.6480 S.3   175  CYS175     -0.0800
     97  N         31.1250   32.9290   33.6210 N.am  176  PHE176     -0.1962
     98  CA        29.8100   32.4510   33.2450 C.3   176  PHE176      0.1771
     99  C         29.4830   32.9780   31.8520 C.2   176  PHE176      0.2620
    100  O         29.7470   34.1410   31.5370 O.2   176  PHE176     -0.2715
    101  CB        28.7190   32.8350   34.2360 C.3   176  PHE176      0.0574
    102  CG        27.3520   32.4470   33.7640 C.ar  176  PHE176     -0.0200
    103  CD1       26.9990   31.1090   33.6620 C.ar  176  PHE176     -0.0042
    104  CD2       26.4450   33.4110   33.3450 C.ar  176  PHE176     -0.0042
    105  CE1       25.7550   30.7400   33.1930 C.ar  176  PHE176     -0.0003
    106  CE2       25.1790   33.0430   32.8780 C.ar  176  PHE176     -0.0003
    107  CZ        24.8400   31.7080   32.8020 C.ar  176  PHE176     -0.0000
    108  N         28.9300   32.1040   31.0220 N.am  177  ASP177     -0.1957
    109  CA        28.6140   32.4520   29.6530 C.3   177  ASP177      0.1843
    110  C         27.5040   31.5560   29.1470 C.2   177  ASP177      0.2662
    111  O         27.7190   30.3770   28.9050 O.2   177  ASP177     -0.2711
    112  CB        29.8550   32.3100   28.7710 C.3   177  ASP177      0.1450
    113  CG        29.5710   32.6150   27.3170 C.2   177  ASP177      0.3671
    114  OD1       28.5810   33.3320   27.0290 O.co2 177  ASP177     -0.2456
    115  OD2       30.3510   32.1400   26.4620 O.co2 177  ASP177     -0.2456
    116  N         26.3110   32.1130   28.9950 N.am  178  GLY178     -0.1716
    117  CA        25.1770   31.2970   28.6040 C.2   178  GLY178      0.1480
    118  C         23.8990   32.0530   28.3220 C.2   178  GLY178      0.2820
    119  O         23.7270   33.2080   28.7590 O.2   178  GLY178     -0.2669
    120  N         23.0040   31.3850   27.5920 N.am  179  ALA179     -0.1943
    121  CA        21.6970   31.9310   27.2590 C.3   179  ALA179      0.1600
    122  C         20.8430   32.1070   28.5020 C.2   179  ALA179      0.2287
    123  O         21.0290   31.4040   29.4940 O.2   179  ALA179     -0.2864
    124  CB        21.0030   31.0260   26.2820 C.3   179  ALA179      0.0319
    125  N         16.9650   28.0690   28.8180 N.3   182  ILE182     -0.1245
    126  CA        17.6680   26.8410   29.2060 C.3   182  ILE182      0.1561
    127  C         18.6460   26.4170   28.1010 C.2   182  ILE182      0.2260
    128  O         19.8190   26.1590   28.3660 O.2   182  ILE182     -0.2867
    129  CB        16.6970   25.6680   29.5620 C.3   182  ILE182      0.0252
    130  CG1       15.7550   26.0760   30.7080 C.3   182  ILE182      0.0019
    131  CG2       17.4950   24.4010   29.9130 C.3   182  ILE182      0.0019
    132  CD1       14.7260   25.0230   31.1150 C.3   182  ILE182      0.0001
    133  N         20.0780   27.3080   23.9370 N.3   184  PRO184     -0.2116
    134  CA        20.1260   28.1020   22.6990 C.3   184  PRO184      0.1372
    135  C         19.6590   27.2940   21.4730 C.2   184  PRO184      0.2244
    136  O         19.5340   26.0690   21.5470 O.2   184  PRO184     -0.2868
    137  CB        21.6100   28.4720   22.5800 C.3   184  PRO184      0.0268
    138  CG        22.3240   27.3910   23.3010 C.3   184  PRO184      0.0207
    139  CD        21.4320   26.9700   24.4220 C.3   184  PRO184      0.0892
    140  N         22.2220   24.5280   19.9640 N.3   187  ARG187     -0.1245
    141  CA        22.2410   23.1940   20.5630 C.3   187  ARG187      0.1563
    142  C         21.2540   22.2690   19.8330 C.2   187  ARG187      0.2260
    143  O         21.4840   21.0630   19.7150 O.2   187  ARG187     -0.2867
    144  CB        21.9220   23.2660   22.0590 C.3   187  ARG187      0.0307
    145  CG        22.4120   22.0750   22.8680 C.3   187  ARG187      0.0489
    146  CD        21.8980   22.1150   24.2980 C.3   187  ARG187      0.2205
    147  NE        22.3240   23.3150   25.0180 N.pl3 187  ARG187     -0.0865
    148  CZ        22.0030   23.6010   26.2800 C.cat 187  ARG187      0.5346
    149  NH1       21.2390   22.7750   26.9920 N.pl3 187  ARG187      0.1354
    150  NH2       22.4500   24.7210   26.8370 N.pl3 187  ARG187      0.1354
    151  N         21.1140   44.0850   15.3300 N.3   278  LEU278     -0.1245
    152  CA        21.0430   43.6920   16.7540 C.3   278  LEU278      0.1561
    153  C         21.7150   44.7140   17.6680 C.2   278  LEU278      0.2260
    154  O         22.4640   45.5780   17.2050 O.2   278  LEU278     -0.2867
    155  CB        21.7820   42.3670   16.9680 C.3   278  LEU278      0.0270
    156  CG        21.3330   41.0670   16.3190 C.3   278  LEU278      0.0019
    157  CD1       22.4110   40.0320   16.5100 C.3   278  LEU278      0.0001
    158  CD2       20.0590   40.5730   16.9180 C.3   278  LEU278      0.0001
    159  N         32.6240   18.8370   41.2450 N.3   319  ILE319     -0.1231
    160  CA        31.8720   20.0690   41.1210 C.3   319  ILE319      0.1692
    161  C         32.7290   21.0280   40.2880 C.2   319  ILE319      0.2592
    162  O         33.9410   21.1040   40.4740 O.2   319  ILE319     -0.2718
    163  CB        31.5390   20.6510   42.5270 C.3   319  ILE319      0.0266
    164  CG1       30.5680   19.7140   43.2620 C.3   319  ILE319      0.0019
    165  CG2       30.9810   22.0820   42.4370 C.3   319  ILE319      0.0020
    166  CD1       30.4280   19.9620   44.7620 C.3   319  ILE319      0.0001
    167  N         32.0980   21.7280   39.3500 N.am  320  TYR320     -0.1962
    168  CA        32.8010   22.6990   38.5130 C.3   320  TYR320      0.1771
    169  C         32.4600   24.1370   38.9240 C.2   320  TYR320      0.2620
    170  O         31.5160   24.3840   39.6810 O.2   320  TYR320     -0.2715
    171  CB        32.4600   22.4900   37.0310 C.3   320  TYR320      0.0574
    172  CG        32.7060   21.0920   36.5040 C.ar  320  TYR320     -0.0198
    173  CD1       33.7860   20.8210   35.6650 C.ar  320  TYR320     -0.0009
    174  CD2       31.8510   20.0350   36.8350 C.ar  320  TYR320     -0.0009
    175  CE1       34.0170   19.5360   35.1800 C.ar  320  TYR320      0.0417
    176  CE2       32.0710   18.7470   36.3460 C.ar  320  TYR320      0.0417
    177  CZ        33.1550   18.5080   35.5200 C.ar  320  TYR320      0.1957
    178  OH        33.3760   17.2380   35.0390 O.3   320  TYR320     -0.2866
    179  N         33.2460   25.0830   38.4320 N.am  321  THR321     -0.1937
    180  CA        32.8860   26.4850   38.5330 C.3   321  THR321      0.2028
    181  C         32.8890   27.1130   37.1260 C.2   321  THR321      0.2642
    182  O         33.4430   26.5410   36.1760 O.2   321  THR321     -0.2714
    183  CB        33.8120   27.2640   39.4960 C.3   321  THR321      0.1808
    184  OG1       35.1440   27.2390   38.9920 O.3   321  THR321     -0.2208
    185  CG2       33.7930   26.6600   40.8960 C.3   321  THR321      0.0379
    186  N         32.2530   28.2770   36.9970 N.am  322  ALA322     -0.1963
    187  CA        32.1280   28.9590   35.7180 C.3   322  ALA322      0.1728
    188  C         33.4660   29.0210   34.9950 C.2   322  ALA322      0.2617
    189  O         34.4470   29.5460   35.5280 O.2   322  ALA322     -0.2715
    190  CB        31.5670   30.3520   35.9220 C.3   322  ALA322      0.0334
    191  N         33.5060   28.4580   33.7930 N.am  323  GLY323     -0.1940
    192  CA        34.6870   28.5500   32.9430 C.3   323  GLY323      0.2014
    193  C         35.7140   27.4380   33.0840 C.2   323  GLY323      0.2639
    194  O         36.7240   27.4450   32.3820 O.2   323  GLY323     -0.2714
    195  N         35.4560   26.4880   33.9840 N.am  324  GLU324     -0.1963
    196  CA        36.3870   25.3770   34.2600 C.3   324  GLU324      0.1733
    197  C         36.3790   24.3770   33.1100 C.2   324  GLU324      0.2616
    198  O         37.4350   24.0530   32.5600 O.2   324  GLU324     -0.2715
    199  CB        36.0350   24.6840   35.5890 C.3   324  GLU324      0.0429
    200  CG        37.0470   23.6690   36.0870 C.3   324  GLU324      0.1163
    201  CD        36.7730   23.2140   37.5250 C.2   324  GLU324      0.3649
    202  OE1       35.6860   23.5630   38.0540 O.co2 324  GLU324     -0.2457
    203  OE2       37.6440   22.5200   38.1310 O.co2 324  GLU324     -0.2457
    204  N         35.1790   23.9040   32.7630 N.am  325  LYS325     -0.1963
    205  CA        34.9500   23.0530   31.6000 C.3   325  LYS325      0.1728
    206  C         35.5470   23.6380   30.3120 C.2   325  LYS325      0.2616
    207  O         36.0620   22.8930   29.4670 O.2   325  LYS325     -0.2715
    208  CB        33.4470   22.7690   31.4280 C.3   325  LYS325      0.0311
    209  CG        33.0000   21.4670   32.0630 C.3   325  LYS325      0.0038
    210  CD        31.6140   21.5460   32.6670 C.3   325  LYS325      0.0206
    211  CE        30.5340   21.0060   31.7520 C.3   325  LYS325      0.1093
    212  NZ        29.4610   20.3860   32.5760 N.3   325  LYS325     -0.1314
    213  N         35.4980   24.9640   30.1690 N.am  326  GLU326     -0.1977
    214  CA        36.0180   25.5990   28.9730 C.3   326  GLU326      0.1602
    215  C         37.5300   25.6000   28.9550 C.2   326  GLU326      0.2287
    216  O         38.1340   25.4510   27.8960 O.2   326  GLU326     -0.2864
    217  CB        35.4770   27.0110   28.8080 C.3   326  GLU326      0.0415
    218  CG        34.0220   27.0690   28.3210 C.3   326  GLU326      0.1163
    219  CD        33.0010   26.8240   29.4210 C.2   326  GLU326      0.3649
    220  OE1       33.3210   27.0340   30.6080 O.co2 326  GLU326     -0.2457
    221  OE2       31.8680   26.4170   29.0950 O.co2 326  GLU326     -0.2457
@<TRIPOS>BOND
     1    19    20    1
     2    23    20    1
     3    23    24    1
     4    22    21    2
     5   151   152    1
     6    20    21    1
     7    24    25   ar
     8    24    26   ar
     9    21    29   am
    10    25    27   ar
    11    26    28   ar
    12   156   157    1
    13   156   158    1
    14   156   155    1
    15   152   155    1
    16   152   153    1
    17    12    11    2
    18    27    28   ar
    19    11    10    1
    20   154   153    2
    21    29    30    1
    22    10     9    1
    23    10    13    1
    24    30    31    1
    25    30    33    1
    26    40    31   am
    27    40    41    1
    28    31    32    2
    29    41    42    1
    30    16    14   ar
    31    16    18   ar
    32    74    73    1
    33    74    75    2
    34    33    34    1
    35    13    14    1
    36    14    15   ar
    37    73    76    1
    38    73    72    1
    39    18    17   ar
    40   143   142    2
    41     4     3    2
    42   142   141    1
    43   140   141    1
    44    15    17   ar
    45    42    43    2
    46    42    44   am
    47    67    66    2
    48    34    36   ar
    49    34    35   ar
    50    70    69    2
    51    72    66   am
    52   141   144    1
    53     3     2    1
    54    36    38   ar
    55    66    65    1
    56    44    45    1
    57    62    61    1
    58    71    69   am
    59    69    68    1
    60    35    37   ar
    61   135   136    2
    62   135   134    1
    63    38    39   ar
    64    68    65    1
    65    82    81    1
    66    65    64    1
    67   144   145    1
    68    61    63    1
    69    61    58    1
    70     2     5    1
    71     2     1    1
    72    50    48    1
    73    45    48    1
    74    45    46    1
    75    49    48    1
    76    49    51    1
    77     5     6    1
    78    64    59   am
    79    37    39   ar
    80    83    81    1
    81   137   134    1
    82   137   138    1
    83    77    78    1
    84   134   133    1
    85   145   146    1
    86    47    46    2
    87    81    78    1
    88    46    52   am
    89    59    58    1
    90    59    60    2
    91    58    57    1
    92   138   139    1
    93    78    79    1
    94     6     7    1
    95   133   139    1
    96    52    53    1
    97    90    89    1
    98    90    84    1
    99   146   147    1
   100    89    88    1
   101    79    80    2
   102    53    56    1
   103    53    54    1
   104     7     8    1
   105   147   148    2
   106    84    85    1
   107    88    85    1
   108    54    55    2
   109   148   150    1
   110   148   149    1
   111   124   121    1
   112   115   113   ar
   113    85    86    1
   114   114   113   ar
   115    87    86    2
   116   121   120    1
   117   121   122    1
   118   113   112    1
   119   120   118   am
   120   216   215    2
   121   127   128    2
   122   127   126    1
   123   218   217    1
   124   218   219    1
   125   118   117    1
   126   118   119    2
   127   122   123    2
   128   117   116    2
   129   112   109    1
   130   217   214    1
   131   125   126    1
   132   111   110    2
   133   215   214    1
   134   214   213    1
   135   116   110    1
   136   221   219   ar
   137   110   109    1
   138   126   129    1
   139   219   220   ar
   140   207   206    2
   141   129   131    1
   142   129   130    1
   143   109   108    1
   144   213   206   am
   145   206   205    1
   146    96    95    1
   147   130   132    1
   148   108    99   am
   149   208   205    1
   150   208   209    1
   151   100    99    2
   152   205   204    1
   153   211   212    1
   154   211   210    1
   155    99    98    1
   156   209   210    1
   157    95    92    1
   158   194   193    2
   159   198   197    2
   160    94    93    2
   161   204   197   am
   162   107   106   ar
   163   107   105   ar
   164   106   104   ar
   165   192   193    1
   166   192   191    1
   167   193   195   am
   168   197   196    1
   169    93    92    1
   170    93    97   am
   171   105   103   ar
   172    98    97    1
   173    98   101    1
   174    92    91    1
   175   104   102   ar
   176   103   102   ar
   177   102   101    1
   178   191   188   am
   179   195   196    1
   180   196   199    1
   181   188   189    2
   182   188   187    1
   183   178   177    1
   184   175   177   ar
   185   175   173   ar
   186   177   176   ar
   187   199   200    1
   188   173   172   ar
   189   187   190    1
   190   187   186    1
   191   200   201    1
   192   182   181    2
   193   176   174   ar
   194   172   174   ar
   195   172   171    1
   196   186   181   am
   197   171   168    1
   198   181   180    1
   199   201   202   ar
   200   201   203   ar
   201   179   180    1
   202   179   169   am
   203   168   169    1
   204   168   167    1
   205   180   183    1
   206   169   170    2
   207   184   183    1
   208   167   161   am
   209   183   185    1
   210   161   162    2
   211   161   160    1
   212   160   159    1
   213   160   163    1
   214   165   163    1
   215   163   164    1
   216   164   166    1
