@<TRIPOS>MOLECULE
tmp/3i0qA00.pdb
 115 110 0 0 0
SMALL
GASTEIGER

@<TRIPOS>ATOM
      1  N         19.6910  -20.4240    8.5720 N.3    40  PHE40      -0.1241
      2  CA        21.0500  -19.9270    8.6170 C.3    40  PHE40       0.1605
      3  C         21.8290  -21.1250    9.1530 C.2    40  PHE40       0.2264
      4  O         21.6060  -21.5520   10.2850 O.2    40  PHE40      -0.2867
      5  CB        21.1040  -18.7230    9.5580 C.3    40  PHE40       0.0534
      6  CG        22.4870  -18.2150    9.8440 C.ar   40  PHE40      -0.0203
      7  CD1       23.2690  -18.8020   10.8290 C.ar   40  PHE40      -0.0042
      8  CD2       23.0150  -17.1590    9.1210 C.ar   40  PHE40      -0.0042
      9  CE1       24.5650  -18.3430   11.0860 C.ar   40  PHE40      -0.0003
     10  CE2       24.3200  -16.6960    9.3760 C.ar   40  PHE40      -0.0003
     11  CZ        25.0900  -17.2920   10.3590 C.ar   40  PHE40      -0.0000
     12  N         25.6510  -23.3840    9.7550 N.3    42  LYS42      -0.1245
     13  CA        27.0570  -23.1100   10.0690 C.3    42  LYS42       0.1561
     14  C         27.9210  -24.3610    9.9650 C.2    42  LYS42       0.2260
     15  O         27.8380  -25.2410   10.8130 O.2    42  LYS42      -0.2867
     16  CB        27.2290  -22.5580   11.4860 C.3    42  LYS42       0.0271
     17  CG        26.6770  -21.1790   11.7600 C.3    42  LYS42       0.0035
     18  CD        26.9100  -20.8170   13.2350 C.3    42  LYS42       0.0206
     19  CE        26.3250  -19.4570   13.6090 C.3    42  LYS42       0.1093
     20  NZ        26.6250  -19.0720   15.0180 N.3    42  LYS42      -0.1314
     21  N         19.0090  -16.6460   19.8200 N.3    68  ILE68      -0.1245
     22  CA        18.5880  -17.4760   18.7000 C.3    68  ILE68       0.1561
     23  C         18.8970  -18.9490   19.0120 C.2    68  ILE68       0.2260
     24  O         20.0510  -19.2990   19.2370 O.2    68  ILE68      -0.2867
     25  CB        19.3050  -17.0310   17.4020 C.3    68  ILE68       0.0252
     26  CG1       19.1250  -15.5190   17.2070 C.3    68  ILE68       0.0019
     27  CG2       18.7080  -17.7570   16.1970 C.3    68  ILE68       0.0019
     28  CD1       19.8860  -14.9240   16.0620 C.3    68  ILE68       0.0001
     29  N         20.0890  -22.7490   12.1780 N.3    90  TYR90      -0.1228
     30  CA        19.4010  -21.7440   12.9810 C.3    90  TYR90       0.1721
     31  C         18.4000  -21.1620   12.0380 C.2    90  TYR90       0.2437
     32  O         18.6340  -21.1270   10.8330 O.2    90  TYR90      -0.2733
     33  CB        20.3040  -20.5840   13.4060 C.3    90  TYR90       0.0547
     34  CG        21.4230  -20.9000   14.3690 C.ar   90  TYR90      -0.0200
     35  CD1       22.6870  -21.2320   13.9010 C.ar   90  TYR90      -0.0009
     36  CD2       21.2280  -20.8360   15.7520 C.ar   90  TYR90      -0.0009
     37  CE1       23.7340  -21.4900   14.7830 C.ar   90  TYR90       0.0417
     38  CE2       22.2670  -21.0940   16.6400 C.ar   90  TYR90       0.0417
     39  CZ        23.5180  -21.4250   16.1460 C.ar   90  TYR90       0.1957
     40  OH        24.5590  -21.7410   16.9910 O.3    90  TYR90      -0.2866
     41  N         17.2600  -20.7060   12.5570 N.am   91  PRO91      -0.2718
     42  CA        16.2770  -20.1140   11.6460 C.3    91  PRO91       0.1535
     43  C         16.9450  -18.8180   11.1440 C.2    91  PRO91       0.2599
     44  O         17.8800  -18.3300   11.7800 O.2    91  PRO91      -0.2715
     45  CB        15.0840  -19.8650   12.5610 C.3    91  PRO91       0.0310
     46  CG        15.7530  -19.5630   13.9010 C.3    91  PRO91       0.0237
     47  CD        16.8250  -20.6180   13.9620 C.3    91  PRO91       0.0939
     48  N         16.4940  -18.2510   10.0300 N.am   92  PHE92      -0.1960
     49  CA        17.1650  -17.0500    9.5440 C.3    92  PHE92       0.1771
     50  C         16.5520  -15.7480   10.0070 C.2    92  PHE92       0.2619
     51  O         15.4040  -15.4640    9.7010 O.2    92  PHE92      -0.2715
     52  CB        17.2480  -17.0360    8.0140 C.3    92  PHE92       0.0574
     53  CG        18.3140  -16.1110    7.4840 C.ar   92  PHE92      -0.0200
     54  CD1       19.5930  -16.5790    7.2200 C.ar   92  PHE92      -0.0042
     55  CD2       18.0610  -14.7510    7.3140 C.ar   92  PHE92      -0.0042
     56  CE1       20.6010  -15.7060    6.7970 C.ar   92  PHE92      -0.0003
     57  CE2       19.0690  -13.8810    6.8940 C.ar   92  PHE92      -0.0003
     58  CZ        20.3350  -14.3660    6.6370 C.ar   92  PHE92      -0.0000
     59  N         17.3360  -14.9480   10.7250 N.am   93  ILE93      -0.1977
     60  CA        16.8600  -13.6630   11.2200 C.3    93  ILE93       0.1596
     61  C         17.2640  -12.5100   10.3220 C.2    93  ILE93       0.2287
     62  O         18.4030  -12.0540   10.3520 O.2    93  ILE93      -0.2864
     63  CB        17.3710  -13.3750   12.6460 C.3    93  ILE93       0.0276
     64  CG1       16.5200  -14.1340   13.6580 C.3    93  ILE93       0.0022
     65  CG2       17.2750  -11.8880   12.9560 C.3    93  ILE93       0.0022
     66  CD1       16.2580  -15.5700   13.2710 C.3    93  ILE93       0.0001
     67  N         17.7680   -9.3360    9.8830 N.3    95  ALA95      -0.1245
     68  CA        17.9050   -8.1580   10.7120 C.3    95  ALA95       0.1562
     69  C         19.3430   -7.7100   10.7770 C.2    95  ALA95       0.2260
     70  O         20.2680   -8.5160   10.8970 O.2    95  ALA95      -0.2867
     71  CB        17.3840   -8.4360   12.1100 C.3    95  ALA95       0.0290
     72  N         22.6340   -5.4520   12.3860 N.3    97  ASN97      -0.1240
     73  CA        23.1830   -5.3720   13.7380 C.3    97  ASN97       0.1653
     74  C         23.3330   -3.9330   14.2010 C.2    97  ASN97       0.2266
     75  O         22.9800   -3.0040   13.4880 O.2    97  ASN97      -0.2867
     76  CB        24.5360   -6.0890   13.8340 C.3    97  ASN97       0.1155
     77  CG        25.5460   -5.5890   12.8240 C.2    97  ASN97       0.2627
     78  OD1       25.5740   -4.4000   12.4780 O.2    97  ASN97      -0.2716
     79  ND2       26.4010   -6.4930   12.3570 N.am   97  ASN97      -0.0877
     80  N         28.1140   -5.0330   17.2390 N.3   206  GLY206     -0.1210
     81  CA        28.2420   -6.0670   16.2260 C.3   206  GLY206      0.1956
     82  C         27.5510   -7.3720   16.5570 C.2   206  GLY206      0.2611
     83  O         27.1940   -8.1310   15.6650 O.2   206  GLY206     -0.2717
     84  N         27.3390   -7.6460   17.8400 N.am  207  ASN207     -0.1974
     85  CA        26.6820   -8.8950   18.1990 C.3   207  ASN207      0.1688
     86  C         25.2560   -8.8430   18.6790 C.2   207  ASN207      0.2292
     87  O         24.7780   -9.7880   19.3110 O.2   207  ASN207     -0.2864
     88  CB        27.5350   -9.6750   19.1680 C.3   207  ASN207      0.1181
     89  CG        28.7520  -10.2030   18.5050 C.2   207  ASN207      0.2629
     90  OD1       28.6750  -10.6950   17.3790 O.2   207  ASN207     -0.2716
     91  ND2       29.8900  -10.1010   19.1710 N.am  207  ASN207     -0.0877
     92  N         21.6880   -8.3700   16.9200 N.3   209  LEU209     -0.1245
     93  CA        20.9040   -8.2200   15.7120 C.3   209  LEU209      0.1561
     94  C         19.7290   -7.3940   16.1790 C.2   209  LEU209      0.2260
     95  O         18.9390   -7.8630   17.0010 O.2   209  LEU209     -0.2867
     96  CB        20.3800   -9.5600   15.2100 C.3   209  LEU209      0.0270
     97  CG        21.3740  -10.6230   14.7750 C.3   209  LEU209      0.0019
     98  CD1       20.6070  -11.6930   14.0320 C.3   209  LEU209      0.0001
     99  CD2       22.4480  -10.0250   13.8690 C.3   209  LEU209      0.0001
    100  N         24.0660  -12.3890   19.9570 N.3   219  ILE219     -0.1231
    101  CA        24.6940  -13.5380   19.3190 C.3   219  ILE219      0.1692
    102  C         26.1560  -13.8120   19.6140 C.2   219  ILE219      0.2592
    103  O         26.7380  -13.2210   20.5040 O.2   219  ILE219     -0.2718
    104  CB        24.5010  -13.4790   17.8020 C.3   219  ILE219      0.0266
    105  CG1       25.3710  -12.3830   17.1920 C.3   219  ILE219      0.0019
    106  CG2       23.0180  -13.2600   17.4890 C.3   219  ILE219      0.0020
    107  CD1       25.2320  -12.3200   15.7090 C.3   219  ILE219      0.0001
    108  N         26.7440  -14.7230   18.8500 N.am  220  ASP220     -0.1974
    109  CA        28.1370  -15.1130   19.0300 C.3   220  ASP220      0.1709
    110  C         28.4090  -15.4710   20.4880 C.2   220  ASP220      0.2293
    111  O         28.8580  -14.6390   21.2750 O.2   220  ASP220     -0.2864
    112  CB        29.1160  -14.0010   18.5900 C.3   220  ASP220      0.1436
    113  CG        30.3580  -14.5560   17.8350 C.2   220  ASP220      0.3671
    114  OD1       31.4030  -13.8500   17.7160 O.co2 220  ASP220     -0.2456
    115  OD2       30.2740  -15.7110   17.3350 O.co2 220  ASP220     -0.2456
@<TRIPOS>BOND
     1    58    56   ar
     2    58    57   ar
     3    56    54   ar
     4    57    55   ar
     5    54    53   ar
     6    55    53   ar
     7    53    52    1
     8    52    49    1
     9     1     2    1
    10     2     3    1
    11     2     5    1
    12     8    10   ar
    13     8     6   ar
    14     3     4    2
    15    10    11   ar
    16    49    50    1
    17    49    48    1
    18     5     6    1
    19    51    50    2
    20    12    13    1
    21     6     7   ar
    22    67    68    1
    23    14    13    1
    24    14    15    2
    25    50    59   am
    26    48    43   am
    27    13    16    1
    28    61    62    2
    29    61    60    1
    30    11     9   ar
    31    68    69    1
    32    68    71    1
    33    59    60    1
    34    69    70    2
    35     7     9   ar
    36    32    31    2
    37    43    42    1
    38    43    44    2
    39    60    63    1
    40    16    17    1
    41    42    41    1
    42    42    45    1
    43    17    18    1
    44    31    41   am
    45    31    30    1
    46    29    30    1
    47    79    77   am
    48    72    73    1
    49    78    77    2
    50    41    47    1
    51    45    46    1
    52    63    65    1
    53    63    64    1
    54    77    76    1
    55    30    33    1
    56    18    19    1
    57    66    64    1
    58    33    34    1
    59    75    74    2
    60    19    20    1
    61    73    76    1
    62    73    74    1
    63    99    97    1
    64    46    47    1
    65    35    34   ar
    66    35    37   ar
    67    98    97    1
    68    34    36   ar
    69    97    96    1
    70    37    39   ar
    71    96    93    1
    72    83    82    2
    73   107   105    1
    74    93    94    1
    75    93    92    1
    76    36    38   ar
    77    28    26    1
    78    39    38   ar
    79    39    40    1
    80    94    95    2
    81    27    25    1
    82    81    82    1
    83    81    80    1
    84    82    84   am
    85   105   104    1
    86    26    25    1
    87   115   113   ar
    88    90    89    2
    89    25    22    1
    90   106   104    1
    91   114   113   ar
    92   104   101    1
    93   113   112    1
    94    84    85    1
    95    85    86    1
    96    85    88    1
    97    89    88    1
    98    89    91   am
    99   112   109    1
   100    86    87    2
   101    22    23    1
   102    22    21    1
   103   108   109    1
   104   108   102   am
   105    23    24    2
   106   109   110    1
   107   101   102    1
   108   101   100    1
   109   102   103    2
   110   110   111    2
