@<TRIPOS>MOLECULE
tmp/3i0rA00.pdb
 168 167 0 0 0
SMALL
GASTEIGER

@<TRIPOS>ATOM
      1  N         11.6990   21.7800   20.9230 N.3    96  PRO96      -0.2116
      2  CA        10.9070   21.6620   19.7040 C.3    96  PRO96       0.1372
      3  C          9.4480   21.7240   20.0630 C.2    96  PRO96       0.2244
      4  O          9.1010   21.3800   21.1720 O.2    96  PRO96      -0.2868
      5  CB        11.2770   20.2770   19.1990 C.3    96  PRO96       0.0268
      6  CG        12.6510   20.0960   19.6940 C.3    96  PRO96       0.0207
      7  CD        12.6280   20.6530   21.0690 C.3    96  PRO96       0.0892
      8  N          7.5510   19.4780   14.0970 N.3   101  LEU101     -0.1231
      9  CA         8.3050   18.3170   13.6430 C.3   101  LEU101      0.1693
     10  C          7.8250   17.9010   12.2660 C.2   101  LEU101      0.2592
     11  O          6.6170   17.8080   12.0470 O.2   101  LEU101     -0.2718
     12  CB         8.1570   17.1590   14.6230 C.3   101  LEU101      0.0284
     13  CG         8.6090   17.5110   16.0320 C.3   101  LEU101      0.0019
     14  CD1        8.2550   16.4050   16.9530 C.3   101  LEU101      0.0001
     15  CD2       10.1000   17.7800   16.0630 C.3   101  LEU101      0.0001
     16  N          8.7500   17.6590   11.3380 N.am  102  LYS102     -0.1966
     17  CA         8.3710   17.0890   10.0450 C.3   102  LYS102      0.1728
     18  C          8.0550   15.6390   10.2080 C.2   102  LYS102      0.2616
     19  O          8.8380   14.9000   10.7800 O.2   102  LYS102     -0.2715
     20  CB         9.4790   17.2360    9.0420 C.3   102  LYS102      0.0311
     21  CG         9.9840   18.6270    9.0220 C.3   102  LYS102      0.0038
     22  CD        10.3110   19.0970    7.6370 C.3   102  LYS102      0.0206
     23  CE        11.3630   20.1450    7.7750 C.3   102  LYS102      0.1093
     24  NZ        12.1770   19.6970    8.9650 N.3   102  LYS102     -0.1314
     25  N          6.9050   15.2140    9.7100 N.am  103  LYS103     -0.1963
     26  CA         6.5040   13.8330    9.9030 C.3   103  LYS103      0.1728
     27  C          7.5000   12.8330    9.3190 C.2   103  LYS103      0.2616
     28  O          8.1480   13.0990    8.2940 O.2   103  LYS103     -0.2715
     29  CB         5.1400   13.5750    9.3060 C.3   103  LYS103      0.0311
     30  CG         4.7040   12.1950    9.6390 C.3   103  LYS103      0.0038
     31  CD         3.2990   11.9780    9.2460 C.3   103  LYS103      0.0206
     32  CE         3.1710   11.9800    7.7470 C.3   103  LYS103      0.1093
     33  NZ         1.8840   11.3270    7.4090 N.3   103  LYS103     -0.1314
     34  N          7.6220   11.6740    9.9710 N.am  104  LYS104     -0.1963
     35  CA         8.5420   10.6330    9.4680 C.3   104  LYS104      0.1728
     36  C          7.9330    9.2430    9.4330 C.2   104  LYS104      0.2616
     37  O          7.0570    8.9240   10.2370 O.2   104  LYS104     -0.2715
     38  CB         9.8500   10.6200   10.2530 C.3   104  LYS104      0.0311
     39  CG        10.4030   12.0020   10.4850 C.3   104  LYS104      0.0038
     40  CD        11.9010   11.9930   10.3780 C.3   104  LYS104      0.0206
     41  CE        12.3370   11.5990    8.9850 C.3   104  LYS104      0.1093
     42  NZ        12.0530   12.6760    7.9950 N.3   104  LYS104     -0.1314
     43  N          8.3980    8.4280    8.4860 N.am  105  LYS105     -0.1963
     44  CA         7.9010    7.0610    8.3400 C.3   105  LYS105      0.1728
     45  C          8.0450    6.3140    9.6420 C.2   105  LYS105      0.2617
     46  O          7.0780    5.7880   10.1870 O.2   105  LYS105     -0.2715
     47  CB         8.6790    6.3040    7.2720 C.3   105  LYS105      0.0311
     48  CG         8.3400    6.6980    5.8500 C.3   105  LYS105      0.0038
     49  CD         8.6830    5.5620    4.8740 C.3   105  LYS105      0.0206
     50  CE         7.5740    4.4980    4.8340 C.3   105  LYS105      0.1093
     51  NZ         6.4000    4.9630    4.0180 N.3   105  LYS105     -0.1314
     52  N          9.2650    6.2610   10.1480 N.am  106  SER106     -0.1936
     53  CA         9.5030    5.4900   11.3440 C.3   106  SER106      0.2055
     54  C         10.5360    6.1790   12.2400 C.2   106  SER106      0.2642
     55  O         11.5080    6.7670   11.7410 O.2   106  SER106     -0.2714
     56  CB         9.8680    4.0460   10.9510 C.3   106  SER106      0.2130
     57  OG        10.9940    3.5530   11.6540 O.3   106  SER106     -0.2179
     58  N         10.2760    6.1520   13.5510 N.am  107  VAL107     -0.1977
     59  CA        11.1240    6.7990   14.5730 C.3   107  VAL107      0.1596
     60  C         11.1830    5.9410   15.8320 C.2   107  VAL107      0.2287
     61  O         10.1520    5.4330   16.2940 O.2   107  VAL107     -0.2864
     62  CB        10.5880    8.2080   15.0140 C.3   107  VAL107      0.0276
     63  CG1        9.0630    8.2480   15.0130 C.3   107  VAL107      0.0022
     64  CG2       11.1020    8.5760   16.4030 C.3   107  VAL107      0.0022
     65  N         17.3780   11.7600   11.1670 N.3   180  VAL180     -0.1245
     66  CA        17.3140   12.8550   12.1150 C.3   180  VAL180      0.1561
     67  C         17.3920   12.3750   13.5620 C.2   180  VAL180      0.2260
     68  O         16.6930   11.4370   13.9730 O.2   180  VAL180     -0.2867
     69  CB        16.0640   13.7240   11.8660 C.3   180  VAL180      0.0252
     70  CG1       15.0080   12.9070   11.1730 C.3   180  VAL180      0.0019
     71  CG2       15.5350   14.3140   13.1690 C.3   180  VAL180      0.0019
     72  N         17.1000   13.6540   17.4730 N.3   182  TYR182     -0.1241
     73  CA        16.8970   14.6880   18.4670 C.3   182  TYR182      0.1605
     74  C         17.4720   14.3150   19.8310 C.2   182  TYR182      0.2264
     75  O         17.0010   13.3850   20.4710 O.2   182  TYR182     -0.2867
     76  CB        15.4200   15.0960   18.5950 C.3   182  TYR182      0.0534
     77  CG        15.2210   16.0910   19.7160 C.ar  182  TYR182     -0.0201
     78  CD1       15.8710   17.3200   19.6970 C.ar  182  TYR182     -0.0009
     79  CD2       14.4320   15.7880   20.8120 C.ar  182  TYR182     -0.0009
     80  CE1       15.7240   18.2150   20.7150 C.ar  182  TYR182      0.0417
     81  CE2       14.2770   16.6970   21.8480 C.ar  182  TYR182      0.0417
     82  CZ        14.9350   17.9020   21.7890 C.ar  182  TYR182      0.1957
     83  OH        14.7880   18.8100   22.8060 O.3   182  TYR182     -0.2866
     84  N         15.9360   10.5760   20.1440 N.3   189  TYR189     -0.1241
     85  CA        14.8900   10.3290   19.1920 C.3   189  TYR189      0.1605
     86  C         15.5170   10.2790   17.8110 C.2   189  TYR189      0.2264
     87  O         16.2240   11.1980   17.4020 O.2   189  TYR189     -0.2867
     88  CB        13.8300   11.4070   19.3070 C.3   189  TYR189      0.0534
     89  CG        13.0720   11.3110   20.6040 C.ar  189  TYR189     -0.0201
     90  CD1       13.5220   11.9690   21.7410 C.ar  189  TYR189     -0.0009
     91  CD2       11.9120   10.5450   20.6970 C.ar  189  TYR189     -0.0009
     92  CE1       12.8350   11.8770   22.9370 C.ar  189  TYR189      0.0417
     93  CE2       11.2100   10.4420   21.8890 C.ar  189  TYR189      0.0417
     94  CZ        11.6790   11.1140   23.0000 C.ar  189  TYR189      0.1957
     95  OH        10.9970   11.0220   24.1790 O.3   189  TYR189     -0.2866
     96  N         14.7110    9.2020   13.6690 N.3   191  GLY191     -0.1225
     97  CA        13.6500    8.9220   12.7400 C.3   191  GLY191      0.1811
     98  C         14.1390    9.0130   11.3290 C.2   191  GLY191      0.2280
     99  O         15.1080    9.7140   11.0240 O.2   191  GLY191     -0.2866
    100  N          5.5500    3.7570   20.2890 N.3   226  PRO226     -0.2116
    101  CA         4.5910    4.8470   20.0770 C.3   226  PRO226      0.1372
    102  C          3.2780    4.6100   20.8290 C.2   226  PRO226      0.2244
    103  O          2.8290    3.4740   20.8790 O.2   226  PRO226     -0.2868
    104  CB         4.3480    4.7680   18.5720 C.3   226  PRO226      0.0268
    105  CG         5.6670    4.3640   18.0260 C.3   226  PRO226      0.0207
    106  CD         6.2570    3.4120   19.0400 C.3   226  PRO226      0.0892
    107  N          5.0820    8.1070   22.1950 N.3   228  PHE228     -0.1241
    108  CA         6.0730    8.5450   23.1490 C.3   228  PHE228      0.1605
    109  C          5.5610    9.7130   23.9580 C.2   228  PHE228      0.2264
    110  O          5.1750   10.7290   23.3970 O.2   228  PHE228     -0.2867
    111  CB         7.3420    8.9520   22.4140 C.3   228  PHE228      0.0534
    112  CG         7.8380    7.9080   21.4630 C.ar  228  PHE228     -0.0203
    113  CD1        8.0350    6.6040   21.8920 C.ar  228  PHE228     -0.0042
    114  CD2        8.1020    8.2180   20.1470 C.ar  228  PHE228     -0.0042
    115  CE1        8.4770    5.6370   21.0200 C.ar  228  PHE228     -0.0003
    116  CE2        8.5480    7.2550   19.2700 C.ar  228  PHE228     -0.0003
    117  CZ         8.7280    5.9620   19.7050 C.ar  228  PHE228     -0.0000
    118  N          6.4540   12.8430   26.0630 N.3   230  TRP230     -0.1241
    119  CA         7.6280   13.7020   26.0630 C.3   230  TRP230      0.1605
    120  C          7.2770   15.1270   26.3470 C.2   230  TRP230      0.2264
    121  O          6.5620   15.7560   25.5900 O.2   230  TRP230     -0.2867
    122  CB         8.3460   13.6550   24.7240 C.3   230  TRP230      0.0550
    123  CG         9.4190   14.6980   24.6450 C.ar  230  TRP230      0.0003
    124  CD1       10.6670   14.6150   25.1720 C.ar  230  TRP230      0.0946
    125  CD2        9.3340   15.9880   24.0150 C.ar  230  TRP230      0.0152
    126  NE1       11.3740   15.7580   24.9010 N.ar  230  TRP230     -0.2442
    127  CE2       10.5820   16.6190   24.1910 C.ar  230  TRP230      0.0810
    128  CE3        8.3310   16.6620   23.3040 C.ar  230  TRP230      0.0012
    129  CZ2       10.8580   17.9000   23.6890 C.ar  230  TRP230      0.0191
    130  CZ3        8.6040   17.9320   22.8080 C.ar  230  TRP230      0.0001
    131  CH2        9.8600   18.5390   23.0070 C.ar  230  TRP230      0.0015
    132  N          3.0540   11.6590   21.4220 N.3   235  LEU235     -0.1231
    133  CA         3.4870   11.7270   20.0230 C.3   235  LEU235      0.1693
    134  C          3.2220   10.4450   19.2570 C.2   235  LEU235      0.2592
    135  O          3.9370    9.4610   19.4450 O.2   235  LEU235     -0.2718
    136  CB         4.9600   12.0480   19.9530 C.3   235  LEU235      0.0284
    137  CG         5.2520   13.2140   20.8700 C.3   235  LEU235      0.0019
    138  CD1        6.5810   13.8760   20.5140 C.3   235  LEU235      0.0001
    139  CD2        4.0900   14.1890   20.7640 C.3   235  LEU235      0.0001
    140  N          2.2050   10.4500   18.3910 N.am  236  HIS236     -0.1962
    141  CA         1.8700    9.2600   17.6180 C.3   236  HIS236      0.1772
    142  C          2.5340    9.2890   16.2590 C.2   236  HIS236      0.2462
    143  O          3.0940   10.2970   15.8520 O.2   236  HIS236     -0.2730
    144  CB         0.3670    9.1430   17.4520 C.3   236  HIS236      0.0785
    145  CG        -0.3710    9.1300   18.7490 C.ar  236  HIS236      0.0821
    146  ND1       -0.4340   10.2290   19.5790 N.ar  236  HIS236     -0.2267
    147  CD2       -1.0730    8.1520   19.3680 C.ar  236  HIS236      0.1154
    148  CE1       -1.1450    9.9300   20.6520 C.ar  236  HIS236      0.1986
    149  NE2       -1.5440    8.6750   20.5480 N.ar  236  HIS236     -0.2212
    150  N          2.4720    8.1620   15.5470 N.am  237  PRO237     -0.2727
    151  CA         2.9960    8.1210   14.1820 C.3   237  PRO237      0.1402
    152  C          2.3830    9.2410   13.3230 C.2   237  PRO237      0.2269
    153  O          3.0990    9.9400   12.5850 O.2   237  PRO237     -0.2865
    154  CB         2.5640    6.7340   13.6750 C.3   237  PRO237      0.0296
    155  CG         1.5480    6.2240   14.6760 C.3   237  PRO237      0.0237
    156  CD         1.9010    6.8700   15.9710 C.3   237  PRO237      0.0939
    157  N          1.4390   16.9440   11.9130 N.3   319  TYR319     -0.1241
    158  CA         2.8290   17.3220   11.8450 C.3   319  TYR319      0.1605
    159  C          2.9890   18.3100   10.7130 C.2   319  TYR319      0.2264
    160  O          2.0030   18.7350   10.1180 O.2   319  TYR319     -0.2867
    161  CB         3.7090   16.0820   11.6520 C.3   319  TYR319      0.0534
    162  CG         3.7790   15.2510   12.9030 C.ar  319  TYR319     -0.0201
    163  CD1        4.2800   15.8080   14.0710 C.ar  319  TYR319     -0.0009
    164  CD2        3.3230   13.9230   12.9350 C.ar  319  TYR319     -0.0009
    165  CE1        4.3400   15.0920   15.2380 C.ar  319  TYR319      0.0417
    166  CE2        3.3900   13.1770   14.1160 C.ar  319  TYR319      0.0417
    167  CZ         3.9090   13.7860   15.2670 C.ar  319  TYR319      0.1957
    168  OH         4.0060   13.1280   16.4730 O.3   319  TYR319     -0.2866
@<TRIPOS>BOND
     1    51    50    1
     2    50    49    1
     3    49    48    1
     4    48    47    1
     5    47    44    1
     6    33    32    1
     7    22    23    1
     8    22    21    1
     9    32    31    1
    10    23    24    1
    11    42    41    1
    12    28    27    2
    13    44    43    1
    14    44    45    1
    15    43    36   am
    16    41    40    1
    17    21    20    1
    18    20    17    1
    19    31    30    1
    20    29    30    1
    21    29    26    1
    22    27    26    1
    23    27    34   am
    24    36    35    1
    25    36    37    2
    26    35    34    1
    27    35    38    1
    28    45    52   am
    29    45    46    2
    30    25    26    1
    31    25    18   am
    32    17    18    1
    33    17    16    1
    34   160   159    2
    35    52    53    1
    36    18    19    2
    37    38    39    1
    38    40    39    1
    39   159   158    1
    40    56    53    1
    41    56    57    1
    42    99    98    2
    43    65    66    1
    44    70    69    1
    45    98    97    1
    46    16    10   am
    47    53    54    1
    48   161   158    1
    49   161   162    1
    50    55    54    2
    51   158   157    1
    52    69    66    1
    53    69    71    1
    54    11    10    2
    55    66    67    1
    56    54    58   am
    57    10     9    1
    58   153   152    2
    59    97    96    1
    60   162   164   ar
    61   162   163   ar
    62   164   166   ar
    63   152   151    1
    64    58    59    1
    65    67    68    2
    66     9     8    1
    67     9    12    1
    68   154   151    1
    69   154   155    1
    70   163   165   ar
    71   166   167   ar
    72   151   150    1
    73    59    62    1
    74    59    60    1
    75    12    13    1
    76   155   156    1
    77    63    62    1
    78    62    64    1
    79   165   167   ar
    80   167   168    1
    81   150   156    1
    82   150   142   am
    83    60    61    2
    84   143   142    2
    85    13    15    1
    86    13    14    1
    87   142   141    1
    88    87    86    2
    89   144   141    1
    90   144   145    1
    91    72    73    1
    92   141   140    1
    93    86    85    1
    94   105   104    1
    95   105   106    1
    96   140   134   am
    97    73    76    1
    98    73    74    1
    99   104   101    1
   100    76    77    1
   101   145   147   ar
   102   145   146   ar
   103   106   100    1
   104    85    88    1
   105    85    84    1
   106     5     6    1
   107     5     2    1
   108   134   135    2
   109   134   133    1
   110   116   117   ar
   111   116   114   ar
   112    88    89    1
   113   147   149   ar
   114   146   148   ar
   115     6     7    1
   116    78    77   ar
   117    78    80   ar
   118     2     3    1
   119     2     1    1
   120   117   115   ar
   121    77    79   ar
   122    74    75    2
   123   136   133    1
   124   136   137    1
   125   133   132    1
   126     3     4    2
   127   101   100    1
   128   101   102    1
   129   114   112   ar
   130   138   137    1
   131   149   148   ar
   132    89    91   ar
   133    89    90   ar
   134    91    93   ar
   135    80    82   ar
   136   139   137    1
   137    79    81   ar
   138   102   103    2
   139     1     7    1
   140   115   113   ar
   141   112   113   ar
   142   112   111    1
   143    90    92   ar
   144    82    81   ar
   145    82    83    1
   146    93    94   ar
   147   107   108    1
   148   111   108    1
   149   130   131   ar
   150   130   128   ar
   151    92    94   ar
   152    94    95    1
   153   131   129   ar
   154   108   109    1
   155   128   125   ar
   156   110   109    2
   157   129   127   ar
   158   125   127   ar
   159   125   123   ar
   160   127   126   ar
   161   123   122    1
   162   123   124   ar
   163   122   119    1
   164   126   124   ar
   165   121   120    2
   166   118   119    1
   167   119   120    1
