@<TRIPOS>MOLECULE
tmp/3i10A00.pdb
 107 100 0 0 0
SMALL
GASTEIGER

@<TRIPOS>ATOM
      1  N         12.0960   19.3920   14.9830 N.3    23  HIS23      -0.1241
      2  CA        11.6470   19.9290   13.7030 C.3    23  HIS23       0.1621
      3  C         11.3700   18.8300   12.6890 C.2    23  HIS23       0.2264
      4  O         12.2800   18.1380   12.2710 O.2    23  HIS23      -0.2867
      5  CB        12.7610   20.8390   13.1990 C.3    23  HIS23       0.0745
      6  CG        12.4640   21.5430   11.9170 C.ar   23  HIS23       0.0817
      7  ND1       13.3110   21.4560   10.8210 N.ar   23  HIS23      -0.2268
      8  CD2       11.3910   22.2750   11.5190 C.ar   23  HIS23       0.1154
      9  CE1       12.7770   22.1540    9.8270 C.ar   23  HIS23       0.1986
     10  NE2       11.6110   22.6490   10.2140 N.ar   23  HIS23      -0.2212
     11  N          2.7770   23.6360   11.8400 N.3   120  ASP120     -0.1225
     12  CA         3.1260   24.8220   11.0470 C.3   120  ASP120      0.1805
     13  C          2.3640   24.7520    9.7350 C.2   120  ASP120      0.2597
     14  O          1.9340   23.6640    9.2800 O.2   120  ASP120     -0.2718
     15  CB         4.6380   24.9040   10.8050 C.3   120  ASP120      0.1424
     16  CG         5.1190   26.2920   10.4500 C.2   120  ASP120      0.3668
     17  OD1        4.3270   27.2580   10.5120 O.co2 120  ASP120     -0.2456
     18  OD2        6.3370   26.4240   10.2130 O.co2 120  ASP120     -0.2456
     19  N          2.1820   25.9350    9.1640 N.am  121  LYS121     -0.1979
     20  CA         1.4470   26.1300    7.9070 C.3   121  LYS121      0.1596
     21  C         -0.0390   25.7750    8.0890 C.2   121  LYS121      0.2287
     22  O         -0.7330   25.4630    7.1300 O.2   121  LYS121     -0.2864
     23  CB         2.1200   25.3570    6.7580 C.3   121  LYS121      0.0298
     24  CG         3.6360   25.5670    6.7390 C.3   121  LYS121      0.0038
     25  CD         4.3220   24.9920    5.5460 C.3   121  LYS121      0.0206
     26  CE         5.7640   25.4910    5.5240 C.3   121  LYS121      0.1093
     27  NZ         6.3700   25.3800    6.8830 N.3   121  LYS121     -0.1314
     28  N          0.1540   27.9380   15.7120 N.3   144  LYS144     -0.1245
     29  CA         0.9990   29.1380   15.6860 C.3   144  LYS144      0.1561
     30  C          0.8290   29.8690   14.3800 C.2   144  LYS144      0.2260
     31  O          0.3620   29.2940   13.3880 O.2   144  LYS144     -0.2867
     32  CB         2.4890   28.8190   15.9070 C.3   144  LYS144      0.0271
     33  CG         3.1930   28.0680   14.7680 C.3   144  LYS144      0.0035
     34  CD         4.6410   27.8230   15.1660 C.3   144  LYS144      0.0206
     35  CE         5.4700   27.0610   14.1360 C.3   144  LYS144      0.1093
     36  NZ         6.8150   26.7140   14.7160 N.3   144  LYS144     -0.1314
     37  N          4.3130   33.8170   16.5890 N.3   167  VAL167     -0.1245
     38  CA         5.6410   33.7790   15.9790 C.3   167  VAL167      0.1561
     39  C          5.9690   35.2190   15.6090 C.2   167  VAL167      0.2260
     40  O          5.1990   35.8570   14.8880 O.2   167  VAL167     -0.2867
     41  CB         5.6670   32.9010   14.7430 C.3   167  VAL167      0.0252
     42  CG1        7.0960   32.8450   14.1660 C.3   167  VAL167      0.0019
     43  CG2        5.1700   31.4940   15.0450 C.3   167  VAL167      0.0019
     44  N          7.2530   32.2140   20.0180 N.3   192  GLU192     -0.1245
     45  CA         8.3580   31.8180   19.1450 C.3   192  GLU192      0.1567
     46  C          8.9940   33.1190   18.6140 C.2   192  GLU192      0.2260
     47  O          8.3290   33.9170   17.9400 O.2   192  GLU192     -0.2867
     48  CB         7.8770   30.9240   18.0210 C.3   192  GLU192      0.0388
     49  CG         8.9530   30.6400   16.9840 C.3   192  GLU192      0.1160
     50  CD         8.6270   29.5990   15.9490 C.2   192  GLU192      0.3649
     51  OE1        7.5790   28.9450   15.9860 O.co2 192  GLU192     -0.2457
     52  OE2        9.4690   29.4560   15.0380 O.co2 192  GLU192     -0.2457
     53  N         12.0690   34.9110   16.4470 N.3   194  ILE194     -0.1245
     54  CA        12.9910   34.7320   15.3090 C.3   194  ILE194      0.1561
     55  C         13.7490   36.0300   15.0930 C.2   194  ILE194      0.2260
     56  O         13.1940   37.1190   15.1650 O.2   194  ILE194     -0.2867
     57  CB        12.1990   34.3950   14.0380 C.3   194  ILE194      0.0252
     58  CG1       11.5880   32.9860   14.1460 C.3   194  ILE194      0.0019
     59  CG2       13.0590   34.5640   12.7700 C.3   194  ILE194      0.0019
     60  CD1       10.6040   32.5900   13.0480 C.3   194  ILE194      0.0001
     61  N         14.6630   28.9530   17.6730 N.3   219  ASN219     -0.1240
     62  CA        14.9900   27.9120   16.6880 C.3   219  ASN219      0.1653
     63  C         16.4780   27.9240   16.3880 C.2   219  ASN219      0.2266
     64  O         17.0640   28.9740   16.1720 O.2   219  ASN219     -0.2867
     65  CB        14.2730   28.1910   15.3910 C.3   219  ASN219      0.1155
     66  CG        12.7950   28.3040   15.5610 C.2   219  ASN219      0.2627
     67  OD1       12.1050   27.3020   15.7790 O.2   219  ASN219     -0.2716
     68  ND2       12.2490   29.5190   15.3780 N.am  219  ASN219     -0.0877
     69  N         17.7170   25.9550   13.7780 N.3   221  LEU221     -0.1231
     70  CA        17.7480   25.1590   12.5370 C.3   221  LEU221      0.1693
     71  C         18.7520   25.6520   11.4940 C.2   221  LEU221      0.2592
     72  O         19.2970   24.8690   10.7120 O.2   221  LEU221     -0.2718
     73  CB        16.3400   25.1170   11.9090 C.3   221  LEU221      0.0284
     74  CG        15.1780   24.7990   12.8270 C.3   221  LEU221      0.0019
     75  CD1       13.9090   24.8930   12.0590 C.3   221  LEU221      0.0001
     76  CD2       15.3930   23.4120   13.4320 C.3   221  LEU221      0.0001
     77  N         18.9210   26.9520   11.4210 N.am  222  TRP222     -0.1976
     78  CA        19.8300   27.6100   10.5040 C.3   222  TRP222      0.1640
     79  C         20.1220   29.0130   11.0050 C.2   222  TRP222      0.2290
     80  O         19.5040   29.4580   11.9710 O.2   222  TRP222     -0.2864
     81  CB        19.3690   27.5640    9.0510 C.3   222  TRP222      0.0576
     82  CG        17.9720   27.9460    8.7980 C.ar  222  TRP222      0.0006
     83  CD1       17.4820   29.1980    8.6930 C.ar  222  TRP222      0.0946
     84  CD2       16.8620   27.0530    8.6030 C.ar  222  TRP222      0.0152
     85  NE1       16.1190   29.1480    8.4370 N.ar  222  TRP222     -0.2442
     86  CE2       15.7320   27.8370    8.3800 C.ar  222  TRP222      0.0810
     87  CE3       16.7310   25.6570    8.5830 C.ar  222  TRP222      0.0012
     88  CZ2       14.4470   27.2620    8.1480 C.ar  222  TRP222      0.0191
     89  CZ3       15.4540   25.1040    8.3490 C.ar  222  TRP222      0.0001
     90  CH2       14.3630   25.8990    8.1380 C.ar  222  TRP222      0.0015
     91  N         17.6070   32.2430   11.8530 N.3   225  LEU225     -0.1245
     92  CA        16.5520   32.1810   12.8270 C.3   225  LEU225      0.1561
     93  C         16.8720   32.6830   14.2070 C.2   225  LEU225      0.2260
     94  O         15.9550   33.1090   14.9120 O.2   225  LEU225     -0.2867
     95  CB        16.0370   30.7420   12.9390 C.3   225  LEU225      0.0270
     96  CG        15.4530   30.1390   11.6770 C.3   225  LEU225      0.0019
     97  CD1       15.1630   28.6380   11.8740 C.3   225  LEU225      0.0001
     98  CD2       14.2150   30.9200   11.2110 C.3   225  LEU225      0.0001
     99  N         13.8290   24.6110   19.2510 N.3   255  GLN255     -0.1245
    100  CA        13.4900   23.7580   18.1130 C.3   255  GLN255      0.1566
    101  C         14.7760   23.5020   17.3170 C.2   255  GLN255      0.2260
    102  O         15.3960   24.4600   16.8360 O.2   255  GLN255     -0.2867
    103  CB        12.3930   24.3430   17.2290 C.3   255  GLN255      0.0367
    104  CG        12.1420   23.4160   16.0370 C.3   255  GLN255      0.0905
    105  CD        11.0020   23.7170   15.0990 C.2   255  GLN255      0.2608
    106  OE1       10.4150   22.7950   14.5480 O.2   255  GLN255     -0.2717
    107  NE2       10.7320   24.9890   14.8350 N.am  255  GLN255     -0.0878
@<TRIPOS>BOND
     1    26    25    1
     2    26    27    1
     3    25    24    1
     4    24    23    1
     5    23    20    1
     6    22    21    2
     7    20    21    1
     8    20    19    1
     9    90    88   ar
    10    90    89   ar
    11    88    86   ar
    12    89    87   ar
    13    86    85   ar
    14    86    84   ar
    15    85    83   ar
    16    87    84   ar
    17    84    82   ar
    18    83    82   ar
    19    82    81    1
    20    81    78    1
    21    19    13   am
    22    14    13    2
    23    13    12    1
    24     9    10   ar
    25     9     7   ar
    26    18    16   ar
    27    10     8   ar
    28    16    17   ar
    29    16    15    1
    30    78    79    1
    31    78    77    1
    32    72    71    2
    33    15    12    1
    34     7     6   ar
    35    79    80    2
    36    12    11    1
    37    98    96    1
    38    77    71   am
    39    71    70    1
    40     8     6   ar
    41    96    97    1
    42    96    95    1
    43    91    92    1
    44    73    70    1
    45    73    74    1
    46     6     5    1
    47    75    74    1
    48     4     3    2
    49    70    69    1
    50     3     2    1
    51    59    57    1
    52    74    76    1
    53    92    95    1
    54    92    93    1
    55    60    58    1
    56     5     2    1
    57    31    30    2
    58     2     1    1
    59    57    58    1
    60    57    54    1
    61    35    36    1
    62    35    34    1
    63    42    41    1
    64    93    94    2
    65    30    29    1
    66   106   105    2
    67    41    43    1
    68    41    38    1
    69    33    34    1
    70    33    32    1
    71   107   105   am
    72    40    39    2
    73    52    50   ar
    74    55    56    2
    75    55    54    1
    76   105   104    1
    77    54    53    1
    78    68    66   am
    79    65    66    1
    80    65    62    1
    81    66    67    2
    82    39    38    1
    83    29    28    1
    84    29    32    1
    85    50    51   ar
    86    50    49    1
    87    38    37    1
    88   104   103    1
    89    64    63    2
    90    63    62    1
    91    62    61    1
    92   102   101    2
    93    49    48    1
    94   103   100    1
    95   101   100    1
    96    47    46    2
    97    48    45    1
    98   100    99    1
    99    46    45    1
   100    45    44    1
