@<TRIPOS>MOLECULE
tmp/3i12A00.pdb
 137 127 0 0 0
SMALL
GASTEIGER

@<TRIPOS>ATOM
      1  N         55.8780   24.2710   47.9230 N.3   140  LYS140     -0.1245
      2  CA        56.1630   23.7330   49.2280 C.3   140  LYS140      0.1561
      3  C         57.6230   24.0280   49.6100 C.2   140  LYS140      0.2260
      4  O         57.9300   24.1880   50.7620 O.2   140  LYS140     -0.2867
      5  CB        55.9810   22.2350   49.2340 C.3   140  LYS140      0.0271
      6  CG        54.6570   21.7820   49.7410 C.3   140  LYS140      0.0035
      7  CD        54.5650   20.2530   49.4470 C.3   140  LYS140      0.0206
      8  CE        53.2460   19.7250   49.8380 C.3   140  LYS140      0.1093
      9  NZ        52.2330   20.3660   49.0190 N.3   140  LYS140     -0.1314
     10  N         59.2340   19.9780   58.9950 N.3   155  ALA155     -0.1245
     11  CA        59.9250   18.7180   58.7430 C.3   155  ALA155      0.1562
     12  C         61.2730   19.0300   58.0490 C.2   155  ALA155      0.2260
     13  O         61.3260   19.7890   57.0900 O.2   155  ALA155     -0.2867
     14  CB        59.0850   17.7880   57.8930 C.3   155  ALA155      0.0290
     15  N         58.9160   11.1990   53.1760 N.3   182  PHE182     -0.1241
     16  CA        57.8930   11.4740   52.1690 C.3   182  PHE182      0.1605
     17  C         58.4780   12.2950   51.0460 C.2   182  PHE182      0.2264
     18  O         59.2920   13.1830   51.2630 O.2   182  PHE182     -0.2867
     19  CB        56.6990   12.2260   52.7630 C.3   182  PHE182      0.0534
     20  CG        55.9550   11.4300   53.7760 C.ar  182  PHE182     -0.0203
     21  CD1       54.7680   10.8170   53.4500 C.ar  182  PHE182     -0.0042
     22  CD2       56.4970   11.2430   55.0480 C.ar  182  PHE182     -0.0042
     23  CE1       54.0870   10.0720   54.3910 C.ar  182  PHE182     -0.0003
     24  CE2       55.8570   10.4940   55.9750 C.ar  182  PHE182     -0.0003
     25  CZ        54.6300    9.9110   55.6680 C.ar  182  PHE182     -0.0000
     26  N         57.4150   14.3710   47.5490 N.3   184  LYS184     -0.1245
     27  CA        56.3000   15.0750   46.8600 C.3   184  LYS184      0.1561
     28  C         56.7980   16.1030   45.8650 C.2   184  LYS184      0.2260
     29  O         57.8730   16.6750   46.0430 O.2   184  LYS184     -0.2867
     30  CB        55.3270   15.7540   47.8260 C.3   184  LYS184      0.0271
     31  CG        55.9250   16.3070   49.1190 C.3   184  LYS184      0.0035
     32  CD        54.9610   16.0880   50.3650 C.3   184  LYS184      0.0206
     33  CE        55.6330   16.4610   51.7190 C.3   184  LYS184      0.1093
     34  NZ        54.7030   16.7310   52.8080 N.3   184  LYS184     -0.1314
     35  N         51.9930   20.6840   44.1420 N.3   188  GLN188     -0.1231
     36  CA        50.7900   19.9660   43.7730 C.3   188  GLN188      0.1698
     37  C         49.6560   20.2300   44.7120 C.2   188  GLN188      0.2593
     38  O         49.3050   21.3630   44.9570 O.2   188  GLN188     -0.2718
     39  CB        51.0050   18.4590   43.6710 C.3   188  GLN188      0.0381
     40  CG        51.1940   17.9180   42.2640 C.3   188  GLN188      0.0905
     41  CD        50.0340   18.1600   41.3550 C.2   188  GLN188      0.2608
     42  OE1       48.9120   17.8560   41.6880 O.2   188  GLN188     -0.2717
     43  NE2       50.2970   18.7200   40.2040 N.am  188  GLN188     -0.0878
     44  N         49.0650   19.1520   45.1980 N.am  189  GLY189     -0.1942
     45  CA        47.7790   19.1980   45.8350 C.3   189  GLY189      0.2014
     46  C         47.1250   17.8350   45.9480 C.2   189  GLY189      0.2640
     47  O         47.1990   17.0000   45.0580 O.2   189  GLY189     -0.2714
     48  N         46.4720   17.6430   47.0780 N.am  190  SER190     -0.1935
     49  CA        45.6450   16.4890   47.3510 C.3   190  SER190      0.2055
     50  C         46.4270   15.2040   47.3860 C.2   190  SER190      0.2643
     51  O         45.9850   14.2130   46.8590 O.2   190  SER190     -0.2714
     52  CB        44.5070   16.3870   46.3390 C.3   190  SER190      0.2130
     53  OG        44.8390   15.4730   45.3220 O.3   190  SER190     -0.2179
     54  N         47.5910   15.2150   48.0150 N.am  191  SER191     -0.1949
     55  CA        48.4340   14.0060   47.9620 C.3   191  SER191      0.1924
     56  C         48.8400   13.4400   46.5610 C.2   191  SER191      0.2314
     57  O         49.6980   12.5450   46.5180 O.2   191  SER191     -0.2863
     58  CB        47.8580   12.8980   48.8480 C.3   191  SER191      0.2116
     59  OG        47.9450   13.2580   50.2210 O.3   191  SER191     -0.2180
     60  N         52.4540   12.2280   46.0860 N.3   194  VAL194     -0.1245
     61  CA        53.1030   12.0630   47.3890 C.3   194  VAL194      0.1561
     62  C         53.2840   10.5450   47.6830 C.2   194  VAL194      0.2260
     63  O         52.3350    9.7710   47.5780 O.2   194  VAL194     -0.2867
     64  CB        52.2840   12.7080   48.4930 C.3   194  VAL194      0.0252
     65  CG1       52.9250   12.4840   49.8530 C.3   194  VAL194      0.0019
     66  CG2       52.1210   14.2270   48.1990 C.3   194  VAL194      0.0019
     67  N         61.1900   14.8860   52.4530 N.3   220  GLU220     -0.1231
     68  CA        61.2370   15.2610   53.8800 C.3   220  GLU220      0.1699
     69  C         61.1130   14.1220   54.8830 C.2   220  GLU220      0.2592
     70  O         60.4730   13.0960   54.6080 O.2   220  GLU220     -0.2718
     71  CB        60.1710   16.2980   54.2160 C.3   220  GLU220      0.0402
     72  CG        58.7840   15.9260   53.7630 C.3   220  GLU220      0.1161
     73  CD        57.7070   17.0500   53.9550 C.2   220  GLU220      0.3649
     74  OE1       56.7300   16.7530   54.6710 O.co2 220  GLU220     -0.2457
     75  OE2       57.8120   18.1670   53.3810 O.co2 220  GLU220     -0.2457
     76  N         61.7480   14.3420   56.0400 N.am  221  GLN221     -0.1979
     77  CA        61.6190   13.4660   57.1960 C.3   221  GLN221      0.1601
     78  C         60.1480   13.2050   57.6020 C.2   221  GLN221      0.2287
     79  O         59.3420   14.1240   57.6630 O.2   221  GLN221     -0.2864
     80  CB        62.3910   14.0780   58.3680 C.3   221  GLN221      0.0394
     81  CG        62.3470   13.2950   59.6850 C.3   221  GLN221      0.0908
     82  CD        63.0160   14.0690   60.7970 C.2   221  GLN221      0.2608
     83  OE1       62.3620   14.7790   61.5540 O.2   221  GLN221     -0.2717
     84  NE2       64.3240   13.9930   60.8640 N.am  221  GLN221     -0.0878
     85  N         57.1180   12.6470   60.0130 N.3   223  ILE223     -0.1245
     86  CA        56.8170   13.1250   61.3490 C.3   223  ILE223      0.1561
     87  C         55.7140   12.2500   61.8670 C.2   223  ILE223      0.2260
     88  O         54.7680   12.0010   61.1540 O.2   223  ILE223     -0.2867
     89  CB        56.2730   14.5990   61.3560 C.3   223  ILE223      0.0252
     90  CG1       57.2140   15.5120   60.5960 C.3   223  ILE223      0.0019
     91  CG2       56.0200   15.0910   62.7700 C.3   223  ILE223      0.0019
     92  CD1       58.6330   15.5150   61.1190 C.3   223  ILE223      0.0001
     93  N         47.2650   15.0310   63.0130 N.3   227  GLU227     -0.1245
     94  CA        47.1620   16.0710   62.0170 C.3   227  GLU227      0.1567
     95  C         46.0670   16.9900   62.4800 C.2   227  GLU227      0.2260
     96  O         44.9260   16.5820   62.6420 O.2   227  GLU227     -0.2867
     97  CB        46.8200   15.5090   60.6570 C.3   227  GLU227      0.0388
     98  CG        47.8590   14.5770   60.0910 C.3   227  GLU227      0.1160
     99  CD        47.8660   14.5080   58.5270 C.2   227  GLU227      0.3649
    100  OE1       47.9570   13.4130   57.9580 O.co2 227  GLU227     -0.2457
    101  OE2       47.8200   15.5600   57.8630 O.co2 227  GLU227     -0.2457
    102  N         44.1090   10.6740   58.3740 N.3   248  LEU248     -0.1245
    103  CA        44.3930   10.0640   57.0600 C.3   248  LEU248      0.1561
    104  C         45.0760    8.7630   57.3400 C.2   248  LEU248      0.2260
    105  O         45.9860    8.7040   58.1730 O.2   248  LEU248     -0.2867
    106  CB        45.3640   10.8990   56.2330 C.3   248  LEU248      0.0270
    107  CG        44.8180   12.2350   55.7650 C.3   248  LEU248      0.0019
    108  CD1       45.9440   12.9280   55.0230 C.3   248  LEU248      0.0001
    109  CD2       43.5980   11.9480   54.8900 C.3   248  LEU248      0.0001
    110  N         51.4020   18.9310   62.2030 N.3   301  PHE301     -0.1241
    111  CA        51.5420   17.6970   62.9450 C.3   301  PHE301      0.1605
    112  C         51.7710   18.0480   64.4590 C.2   301  PHE301      0.2264
    113  O         52.5680   18.9600   64.7970 O.2   301  PHE301     -0.2867
    114  CB        52.7320   16.9340   62.4340 C.3   301  PHE301      0.0534
    115  CG        52.6460   16.5540   61.0100 C.ar  301  PHE301     -0.0203
    116  CD1       51.5790   15.8460   60.5430 C.ar  301  PHE301     -0.0042
    117  CD2       53.6290   16.9140   60.1320 C.ar  301  PHE301     -0.0042
    118  CE1       51.4860   15.4970   59.2120 C.ar  301  PHE301     -0.0003
    119  CE2       53.5420   16.5670   58.7640 C.ar  301  PHE301     -0.0003
    120  CZ        52.4710   15.8670   58.3180 C.ar  301  PHE301     -0.0000
    121  N         52.9210   21.6950   58.4310 N.3   311  ASN311     -0.1225
    122  CA        52.9520   20.8820   57.2180 C.3   311  ASN311      0.1785
    123  C         52.5100   21.6680   55.9730 C.2   311  ASN311      0.2597
    124  O         53.2340   21.7190   54.9840 O.2   311  ASN311     -0.2718
    125  CB        52.0450   19.6610   57.3940 C.3   311  ASN311      0.1169
    126  CG        52.0770   18.7170   56.1960 C.2   311  ASN311      0.2627
    127  OD1       53.1370   18.4430   55.5960 O.2   311  ASN311     -0.2716
    128  ND2       50.9110   18.1920   55.8590 N.am  311  ASN311     -0.0877
    129  N         51.3120   22.2060   55.9410 N.am  312  GLU312     -0.1979
    130  CA        50.8810   22.9760   54.7820 C.3   312  GLU312      0.1602
    131  C         50.1570   24.2500   55.1760 C.2   312  GLU312      0.2287
    132  O         49.6410   24.3350   56.2420 O.2   312  GLU312     -0.2864
    133  CB        50.0980   22.1720   53.6850 C.3   312  GLU312      0.0415
    134  CG        49.1200   21.0040   54.0310 C.3   312  GLU312      0.1163
    135  CD        48.6600   20.1570   52.7660 C.2   312  GLU312      0.3649
    136  OE1       48.9890   20.6750   51.6800 O.co2 312  GLU312     -0.2457
    137  OE2       48.0280   19.0200   52.8390 O.co2 312  GLU312     -0.2457
@<TRIPOS>BOND
     1    43    41   am
     2    41    42    2
     3    41    40    1
     4    40    39    1
     5    39    36    1
     6    36    35    1
     7    36    37    1
     8    37    38    2
     9    37    44   am
    10    47    46    2
    11    44    45    1
    12    53    52    1
    13    45    46    1
    14    28    29    2
    15    28    27    1
    16    46    48   am
    17    60    61    1
    18    52    49    1
    19    57    56    2
    20    56    55    1
    21    51    50    2
    22    27    26    1
    23    27    30    1
    24    48    49    1
    25    49    50    1
    26    50    54   am
    27    61    62    1
    28    61    64    1
    29    63    62    2
    30    30    31    1
    31     1     2    1
    32    55    54    1
    33    55    58    1
    34    66    64    1
    35    64    65    1
    36    58    59    1
    37     9     8    1
    38    31    32    1
    39     2     5    1
    40     2     3    1
    41     5     6    1
    42     7     6    1
    43     7     8    1
    44     3     4    2
    45    32    33    1
    46    17    18    2
    47    17    16    1
    48   136   135   ar
    49    33    34    1
    50    16    19    1
    51    16    15    1
    52    67    68    1
    53    19    20    1
    54   135   137   ar
    55   135   134    1
    56    75    73   ar
    57    21    20   ar
    58    21    23   ar
    59   133   134    1
    60   133   130    1
    61    72    73    1
    62    72    71    1
    63    20    22   ar
    64    68    71    1
    65    68    69    1
    66    73    74   ar
    67    23    25   ar
    68    70    69    2
    69   130   131    1
    70   130   129    1
    71    69    76   am
    72   109   107    1
    73   124   123    2
    74   108   107    1
    75    22    24   ar
    76   131   132    2
    77   127   126    2
    78    25    24   ar
    79   107   106    1
    80   128   126   am
    81   129   123   am
    82   123   122    1
    83    76    77    1
    84   126   125    1
    85   106   103    1
    86   103   104    1
    87   103   102    1
    88    13    12    2
    89    77    78    1
    90    77    80    1
    91   122   125    1
    92   122   121    1
    93   104   105    2
    94    78    79    2
    95   101    99   ar
    96    14    11    1
    97   100    99   ar
    98    12    11    1
    99   120   119   ar
   100   120   118   ar
   101    80    81    1
   102    99    98    1
   103    11    10    1
   104   119   117   ar
   105   118   116   ar
   106    81    82    1
   107    85    86    1
   108    98    97    1
   109   117   115   ar
   110   116   115   ar
   111    90    92    1
   112    90    89    1
   113    97    94    1
   114    82    84   am
   115    82    83    2
   116   115   114    1
   117    88    87    2
   118    86    89    1
   119    86    87    1
   120    89    91    1
   121    94    95    1
   122    94    93    1
   123   110   111    1
   124   114   111    1
   125    95    96    2
   126   111   112    1
   127   112   113    2
