@<TRIPOS>MOLECULE
tmp/3i16C00.pdb
 89 83 0 0 0
SMALL
GASTEIGER

@<TRIPOS>ATOM
      1  N         25.0840   56.8570   77.5580 N.3    97  ASN97      -0.1225
      2  CA        25.2750   57.6390   78.7660 C.3    97  ASN97       0.1785
      3  C         25.7170   59.0480   78.3780 C.2    97  ASN97       0.2598
      4  O         25.8290   59.3680   77.1920 O.2    97  ASN97      -0.2718
      5  CB        26.2600   56.9580   79.7400 C.3    97  ASN97       0.1169
      6  CG        27.6620   56.8190   79.1680 C.2    97  ASN97       0.2627
      7  OD1       28.0670   57.5690   78.2790 O.2    97  ASN97      -0.2716
      8  ND2       28.4190   55.8640   79.6950 N.am   97  ASN97      -0.0877
      9  N         25.9390   59.9060   79.3650 N.am   98  GLY98      -0.1942
     10  CA        26.3550   61.2830   79.1000 C.3    98  GLY98       0.2014
     11  C         27.7250   61.3900   78.4640 C.2    98  GLY98       0.2639
     12  O         27.9580   62.2520   77.6190 O.2    98  GLY98      -0.2714
     13  N         28.6380   60.5150   78.8590 N.am   99  THR99      -0.1950
     14  CA        29.9680   60.5370   78.2840 C.3    99  THR99       0.1897
     15  C         29.8900   60.2990   76.7770 C.2    99  THR99       0.2313
     16  O         30.6370   60.9090   76.0250 O.2    99  THR99      -0.2863
     17  CB        30.9000   59.5140   78.9180 C.3    99  THR99       0.1794
     18  OG1       31.0660   59.8180   80.3040 O.3    99  THR99      -0.2208
     19  CG2       32.2500   59.5290   78.2350 C.3    99  THR99       0.0378
     20  N         35.9720   65.5830   84.2060 N.3   123  TYR123     -0.1241
     21  CA        35.7100   64.3820   85.0050 C.3   123  TYR123      0.1605
     22  C         36.3950   63.1640   84.3940 C.2   123  TYR123      0.2264
     23  O         36.6610   63.1120   83.1970 O.2   123  TYR123     -0.2867
     24  CB        34.2140   64.1390   85.1800 C.3   123  TYR123      0.0534
     25  CG        33.5020   63.6520   83.9380 C.ar  123  TYR123     -0.0201
     26  CD1       33.2140   64.5230   82.8860 C.ar  123  TYR123     -0.0009
     27  CD2       33.0730   62.3320   83.8330 C.ar  123  TYR123     -0.0009
     28  CE1       32.5560   64.0800   81.7350 C.ar  123  TYR123      0.0417
     29  CE2       32.4050   61.8870   82.6820 C.ar  123  TYR123      0.0417
     30  CZ        32.1560   62.7550   81.6420 C.ar  123  TYR123      0.1957
     31  OH        31.4750   62.3220   80.5260 O.3   123  TYR123     -0.2866
     32  N         35.8580   59.8990   83.3940 N.3   125  THR125     -0.1218
     33  CA        35.4970   59.0270   82.2690 C.3   125  THR125      0.1862
     34  C         35.8280   59.6580   80.9110 C.2   125  THR125      0.2287
     35  O         36.0000   58.9600   79.9190 O.2   125  THR125     -0.2866
     36  CB        34.0010   58.6310   82.3210 C.3   125  THR125      0.1770
     37  OG1       33.6000   58.4390   83.6840 O.3   125  THR125     -0.2211
     38  CG2       33.7380   57.3420   81.4970 C.3   125  THR125      0.0375
     39  N         25.6150   68.4990   81.9510 N.3   216  CYS216     -0.1221
     40  CA        25.1400   67.4980   82.8970 C.3   216  CYS216      0.1808
     41  C         24.9610   68.0570   84.3000 C.2   216  CYS216      0.2601
     42  O         25.8400   68.7630   84.8140 O.2   216  CYS216     -0.2717
     43  CB        26.1040   66.3190   82.9930 C.3   216  CYS216      0.0970
     44  SG        26.0700   65.2180   81.5700 S.3   216  CYS216     -0.0800
     45  N         23.8130   67.7330   84.8790 N.am  217  TYR217     -0.1976
     46  CA        23.4130   68.1100   86.2310 C.3   217  TYR217      0.1639
     47  C         22.9730   69.5550   86.3530 C.2   217  TYR217      0.2290
     48  O         22.5420   69.9660   87.4280 O.2   217  TYR217     -0.2864
     49  CB        24.5150   67.8260   87.2810 C.3   217  TYR217      0.0560
     50  CG        25.0870   66.4110   87.3650 C.ar  217  TYR217     -0.0198
     51  CD1       24.5000   65.4570   88.1490 C.ar  217  TYR217     -0.0009
     52  CD2       26.2700   66.0740   86.7060 C.ar  217  TYR217     -0.0009
     53  CE1       25.0450   64.1810   88.2610 C.ar  217  TYR217      0.0417
     54  CE2       26.8140   64.8060   86.7960 C.ar  217  TYR217      0.0417
     55  CZ        26.1910   63.8630   87.5770 C.ar  217  TYR217      0.1957
     56  OH        26.7140   62.5990   87.6730 O.3   217  TYR217     -0.2866
     57  N         22.8240   64.0150   79.5450 N.3   236  SER236     -0.1217
     58  CA        22.2690   62.6810   79.7060 C.3   236  SER236      0.1889
     59  C         20.8100   62.7440   80.1030 C.2   236  SER236      0.2288
     60  O         20.4390   63.5350   80.9640 O.2   236  SER236     -0.2866
     61  CB        23.0070   61.9440   80.8120 C.3   236  SER236      0.2089
     62  OG        22.3750   60.7050   81.0860 O.3   236  SER236     -0.2183
     63  N         19.2720   60.4620   81.7730 N.3   238  ILE238     -0.1231
     64  CA        18.9590   59.8620   83.0780 C.3   238  ILE238      0.1692
     65  C         19.4230   60.7810   84.2140 C.2   238  ILE238      0.2591
     66  O         19.5230   60.3650   85.3570 O.2   238  ILE238     -0.2718
     67  CB        19.4100   58.3990   83.2000 C.3   238  ILE238      0.0266
     68  CG1       20.9340   58.2680   83.2870 C.3   238  ILE238      0.0019
     69  CG2       18.8300   57.6010   82.0130 C.3   238  ILE238      0.0020
     70  CD1       21.4360   56.7880   83.4640 C.3   238  ILE238      0.0001
     71  N         19.7210   62.0460   83.8780 N.am  239  LYS239     -0.1980
     72  CA        20.0250   63.0470   84.8690 C.3   239  LYS239      0.1596
     73  C         18.8070   63.9750   84.8850 C.2   239  LYS239      0.2287
     74  O         17.7010   63.5230   84.5790 O.2   239  LYS239     -0.2864
     75  CB        21.3750   63.7540   84.6170 C.3   239  LYS239      0.0298
     76  CG        22.5880   62.8300   84.6200 C.3   239  LYS239      0.0038
     77  CD        23.8760   63.5970   84.5750 C.3   239  LYS239      0.0206
     78  CE        25.0710   62.7140   84.2210 C.3   239  LYS239      0.1093
     79  NZ        25.1910   61.5140   85.0770 N.3   239  LYS239     -0.1314
     80  N         21.4540   53.6220   87.2400 N.3   375  GLY375     -0.1225
     81  CA        22.4870   54.6370   87.1150 C.3   375  GLY375      0.1811
     82  C         21.9740   56.0660   87.1130 C.2   375  GLY375      0.2280
     83  O         22.7680   56.9820   87.0320 O.2   375  GLY375     -0.2866
     84  N         21.1300   59.6870   87.9510 N.3   377  SER377     -0.1217
     85  CA        21.6760   60.6450   88.9400 C.3   377  SER377      0.1889
     86  C         20.5770   61.5340   89.5600 C.2   377  SER377      0.2288
     87  O         20.8490   62.2930   90.4970 O.2   377  SER377     -0.2866
     88  CB        22.7010   61.5840   88.2880 C.3   377  SER377      0.2089
     89  OG        23.7120   60.8970   87.5870 O.3   377  SER377     -0.2183
@<TRIPOS>BOND
     1    16    15    2
     2    15    14    1
     3     4     3    2
     4     1     2    1
     5    12    11    2
     6    19    17    1
     7     7     6    2
     8    14    13    1
     9    14    17    1
    10     3     2    1
    11     3     9   am
    12    11    13   am
    13    11    10    1
    14     2     5    1
    15    17    18    1
    16    10     9    1
    17     6     8   am
    18     6     5    1
    19    57    58    1
    20    58    59    1
    21    58    61    1
    22    35    34    2
    23    59    60    2
    24    31    30    1
    25    61    62    1
    26    34    33    1
    27    38    36    1
    28    44    43    1
    29    30    28   ar
    30    30    29   ar
    31    28    26   ar
    32    63    64    1
    33    39    40    1
    34    69    67    1
    35    33    36    1
    36    33    32    1
    37    36    37    1
    38    29    27   ar
    39    26    25   ar
    40    40    43    1
    41    40    41    1
    42    64    67    1
    43    64    65    1
    44    23    22    2
    45    67    68    1
    46    68    70    1
    47    27    25   ar
    48    71    65   am
    49    71    72    1
    50    25    24    1
    51    20    21    1
    52    65    66    2
    53    78    77    1
    54    78    79    1
    55    41    42    2
    56    41    45   am
    57    22    21    1
    58    77    76    1
    59    74    73    2
    60    75    76    1
    61    75    72    1
    62    72    73    1
    63    45    46    1
    64    21    24    1
    65    46    47    1
    66    46    49    1
    67    47    48    2
    68    52    54   ar
    69    52    50   ar
    70    54    55   ar
    71    83    82    2
    72    82    81    1
    73    81    80    1
    74    49    50    1
    75    50    51   ar
    76    55    56    1
    77    55    53   ar
    78    89    88    1
    79    84    85    1
    80    51    53   ar
    81    88    85    1
    82    85    86    1
    83    86    87    2
