@<TRIPOS>MOLECULE
tmp/3i16B00.pdb
 134 124 0 0 0
SMALL
GASTEIGER

@<TRIPOS>ATOM
      1  N         21.2870   51.1790   61.1320 N.3    97  ASN97      -0.1225
      2  CA        21.1540   50.4330   59.8920 C.3    97  ASN97       0.1785
      3  C         22.4610   49.7010   59.6520 C.2    97  ASN97       0.2598
      4  O         23.3720   49.7810   60.4820 O.2    97  ASN97      -0.2718
      5  CB        20.7990   51.3600   58.7070 C.3    97  ASN97       0.1169
      6  CG        21.7840   52.4800   58.5070 C.2    97  ASN97       0.2627
      7  OD1       22.9790   52.3780   58.8260 O.2    97  ASN97      -0.2716
      8  ND2       21.2820   53.5870   57.9590 N.am   97  ASN97      -0.0877
      9  N         22.5390   48.9590   58.5510 N.am   98  GLY98      -0.1942
     10  CA        23.7420   48.2290   58.2130 C.3    98  GLY98       0.2014
     11  C         24.9410   49.1040   57.9190 C.2    98  GLY98       0.2639
     12  O         26.0590   48.7540   58.2580 O.2    98  GLY98      -0.2714
     13  N         24.7180   50.2340   57.2650 N.am   99  THR99      -0.1950
     14  CA        25.8080   51.1680   56.9790 C.3    99  THR99       0.1897
     15  C         26.4840   51.6220   58.2820 C.2    99  THR99       0.2313
     16  O         27.7050   51.7780   58.3420 O.2    99  THR99      -0.2863
     17  CB        25.2680   52.3750   56.1830 C.3    99  THR99       0.1794
     18  OG1       24.5930   51.8920   55.0140 O.3    99  THR99      -0.2208
     19  CG2       26.3730   53.3370   55.7800 C.3    99  THR99       0.0378
     20  N         28.8250   48.8190   59.4230 N.3   102  LEU102     -0.1245
     21  CA        30.0080   48.7610   58.5600 C.3   102  LEU102      0.1561
     22  C         30.9530   49.9260   58.8280 C.2   102  LEU102      0.2260
     23  O         32.1650   49.7470   58.9640 O.2   102  LEU102     -0.2867
     24  CB        29.5850   48.7620   57.0950 C.3   102  LEU102      0.0270
     25  CG        28.7610   47.5410   56.6620 C.3   102  LEU102      0.0019
     26  CD1       27.9510   47.8840   55.4450 C.3   102  LEU102      0.0001
     27  CD2       29.6430   46.3470   56.4000 C.3   102  LEU102      0.0001
     28  N         29.0500   49.5750   47.9880 N.3   123  TYR123     -0.1241
     29  CA        27.6410   49.9630   48.0340 C.3   123  TYR123      0.1605
     30  C         27.5720   51.4670   48.2740 C.2   123  TYR123      0.2264
     31  O         28.3040   51.9680   49.1500 O.2   123  TYR123     -0.2867
     32  CB        26.9990   49.2160   49.2220 C.3   123  TYR123      0.0534
     33  CG        25.4850   49.1740   49.2770 C.ar  123  TYR123     -0.0201
     34  CD1       24.7700   48.2300   48.5460 C.ar  123  TYR123     -0.0009
     35  CD2       24.7720   50.0270   50.1170 C.ar  123  TYR123     -0.0009
     36  CE1       23.3920   48.1640   48.6160 C.ar  123  TYR123      0.0417
     37  CE2       23.3910   49.9630   50.1950 C.ar  123  TYR123      0.0417
     38  CZ        22.7120   49.0350   49.4380 C.ar  123  TYR123      0.1957
     39  OH        21.3490   48.9770   49.5050 O.3   123  TYR123     -0.2866
     40  N         25.9300   53.8630   49.9260 N.3   125  THR125     -0.1218
     41  CA        25.8750   54.5990   51.1850 C.3   125  THR125      0.1862
     42  C         27.2360   54.6420   51.8920 C.2   125  THR125      0.2287
     43  O         27.4480   55.5010   52.7430 O.2   125  THR125     -0.2866
     44  CB        24.7880   54.0430   52.1240 C.3   125  THR125      0.1770
     45  OG1       25.2340   52.7970   52.6850 O.3   125  THR125     -0.2211
     46  CG2       23.4820   53.8240   51.3630 C.3   125  THR125      0.0375
     47  N         32.9470   42.9760   49.8590 N.3   179  GLN179     -0.1245
     48  CA        31.4900   43.0290   49.8740 C.3   179  GLN179      0.1566
     49  C         30.9370   41.7250   49.3310 C.2   179  GLN179      0.2260
     50  O         31.2150   41.3750   48.2000 O.2   179  GLN179     -0.2867
     51  CB        31.0190   44.1870   49.0220 C.3   179  GLN179      0.0367
     52  CG        29.5300   44.4600   49.1260 C.3   179  GLN179      0.0905
     53  CD        29.1760   45.7300   48.4000 C.2   179  GLN179      0.2608
     54  OE1       29.6280   46.8290   48.7750 O.2   179  GLN179     -0.2717
     55  NE2       28.3760   45.5960   47.3400 N.am  179  GLN179     -0.0878
     56  N         27.4910   40.7200   49.0060 N.3   181  SER181     -0.1217
     57  CA        26.3390   40.9780   48.1340 C.3   181  SER181      0.1889
     58  C         26.7200   41.9640   47.0350 C.2   181  SER181      0.2288
     59  O         27.6280   42.7730   47.2060 O.2   181  SER181     -0.2866
     60  CB        25.1790   41.5320   48.9700 C.3   181  SER181      0.2089
     61  OG        24.0350   41.7760   48.1820 O.3   181  SER181     -0.2183
     62  N         24.9020   44.5280   45.7390 N.3   183  GLY183     -0.1225
     63  CA        24.3710   45.8940   45.7920 C.3   183  GLY183      0.1811
     64  C         23.6350   46.1950   44.4920 C.2   183  GLY183      0.2280
     65  O         23.0280   45.2890   43.8960 O.2   183  GLY183     -0.2866
     66  N         31.5260   42.6500   54.5420 N.3   214  ASP214     -0.1239
     67  CA        30.1590   43.1790   54.6040 C.3   214  ASP214      0.1674
     68  C         29.3320   41.9670   54.2480 C.2   214  ASP214      0.2266
     69  O         29.2850   41.5610   53.0840 O.2   214  ASP214     -0.2867
     70  CB        30.0020   44.2750   53.5370 C.3   214  ASP214      0.1410
     71  CG        28.5620   44.7480   53.3430 C.2   214  ASP214      0.3668
     72  OD1       27.6100   44.1610   53.9030 O.co2 214  ASP214     -0.2456
     73  OD2       28.4040   45.7550   52.6250 O.co2 214  ASP214     -0.2456
     74  N         25.9640   41.5540   54.7790 N.3   216  CYS216     -0.1221
     75  CA        24.5380   41.7990   54.5280 C.3   216  CYS216      0.1808
     76  C         23.9540   40.9410   53.4150 C.2   216  CYS216      0.2601
     77  O         24.5180   40.8930   52.3180 O.2   216  CYS216     -0.2717
     78  CB        24.3100   43.2430   54.1340 C.3   216  CYS216      0.0970
     79  SG        24.4220   44.3980   55.4920 S.3   216  CYS216     -0.0800
     80  N         22.8250   40.2980   53.7180 N.am  217  TYR217     -0.1976
     81  CA        22.0670   39.4260   52.7960 C.3   217  TYR217      0.1639
     82  C         22.6000   38.0210   52.5800 C.2   217  TYR217      0.2290
     83  O         21.9140   37.1970   51.9820 O.2   217  TYR217     -0.2864
     84  CB        21.8520   40.0650   51.4320 C.3   217  TYR217      0.0560
     85  CG        20.9540   41.2810   51.4230 C.ar  217  TYR217     -0.0198
     86  CD1       19.6090   41.1730   51.7850 C.ar  217  TYR217     -0.0009
     87  CD2       21.4060   42.4890   50.9650 C.ar  217  TYR217     -0.0009
     88  CE1       18.7850   42.2530   51.7380 C.ar  217  TYR217      0.0417
     89  CE2       20.5780   43.5710   50.9010 C.ar  217  TYR217      0.0417
     90  CZ        19.2820   43.4500   51.2790 C.ar  217  TYR217      0.1957
     91  OH        18.4910   44.5510   51.2200 O.3   217  TYR217     -0.2866
     92  N         23.1490   43.9490   59.0590 N.3   236  SER236     -0.1217
     93  CA        21.9220   44.5760   59.5830 C.3   236  SER236      0.1889
     94  C         20.9300   43.5530   60.1640 C.2   236  SER236      0.2288
     95  O         20.6630   42.5180   59.5530 O.2   236  SER236     -0.2866
     96  CB        21.2230   45.3500   58.4590 C.3   236  SER236      0.2089
     97  OG        19.9110   45.7560   58.8420 O.3   236  SER236     -0.2183
     98  N         17.7780   43.9480   60.3150 N.3   238  ILE238     -0.1231
     99  CA        16.5150   43.9720   59.5900 C.3   238  ILE238      0.1692
    100  C         16.6320   43.2920   58.2130 C.2   238  ILE238      0.2591
    101  O         15.7540   43.4580   57.3730 O.2   238  ILE238     -0.2718
    102  CB        15.8150   45.3590   59.5610 C.3   238  ILE238      0.0266
    103  CG1       16.5350   46.3740   58.6950 C.3   238  ILE238      0.0019
    104  CG2       15.6090   45.8780   61.0170 C.3   238  ILE238      0.0020
    105  CD1       15.7700   47.7290   58.6270 C.3   238  ILE238      0.0001
    106  N         17.7480   42.5760   57.9850 N.am  239  LYS239     -0.1980
    107  CA        17.9080   41.7400   56.8030 C.3   239  LYS239      0.1596
    108  C         17.8110   40.3090   57.3470 C.2   239  LYS239      0.2287
    109  O         17.1470   40.0970   58.3350 O.2   239  LYS239     -0.2864
    110  CB        19.2130   41.9990   56.0570 C.3   239  LYS239      0.0298
    111  CG        19.3720   43.4140   55.5610 C.3   239  LYS239      0.0038
    112  CD        20.6220   43.5450   54.7200 C.3   239  LYS239      0.0206
    113  CE        20.8760   44.9950   54.3450 C.3   239  LYS239      0.1093
    114  NZ        19.6730   45.6180   53.7290 N.3   239  LYS239     -0.1314
    115  N         19.1780   38.2750   46.9520 N.3   325  ILE325     -0.1245
    116  CA        18.7030   39.2700   46.0000 C.3   325  ILE325      0.1561
    117  C         18.5370   38.6970   44.5950 C.2   325  ILE325      0.2260
    118  O         19.3550   37.8830   44.1820 O.2   325  ILE325     -0.2867
    119  CB        19.6420   40.4990   45.9610 C.3   325  ILE325      0.0252
    120  CG1       19.7310   41.1370   47.3460 C.3   325  ILE325      0.0019
    121  CG2       19.1270   41.5380   44.9640 C.3   325  ILE325      0.0019
    122  CD1       20.6410   42.3510   47.4000 C.3   325  ILE325      0.0001
    123  N         22.2940   57.6610   48.8390 N.3   362  TYR362     -0.1241
    124  CA        22.3470   57.2960   47.4070 C.3   362  TYR362      0.1605
    125  C         22.5020   58.4980   46.4810 C.2   362  TYR362      0.2264
    126  O         22.1280   59.6140   46.8410 O.2   362  TYR362     -0.2867
    127  CB        21.1120   56.4610   47.0230 C.3   362  TYR362      0.0534
    128  CG        21.0000   55.2060   47.8540 C.ar  362  TYR362     -0.0201
    129  CD1       20.4010   55.2390   49.1150 C.ar  362  TYR362     -0.0009
    130  CD2       21.5330   53.9980   47.4070 C.ar  362  TYR362     -0.0009
    131  CE1       20.3240   54.0980   49.9080 C.ar  362  TYR362      0.0417
    132  CE2       21.4540   52.8400   48.1890 C.ar  362  TYR362      0.0417
    133  CZ        20.8440   52.8980   49.4360 C.ar  362  TYR362      0.1957
    134  OH        20.7540   51.7730   50.2220 O.3   362  TYR362     -0.2866
@<TRIPOS>BOND
     1    65    64    2
     2   118   117    2
     3    64    63    1
     4   117   116    1
     5   121   119    1
     6    62    63    1
     7   119   116    1
     8   119   120    1
     9   116   115    1
    10   125   126    2
    11   125   124    1
    12   127   124    1
    13   127   128    1
    14    58    59    2
    15    58    57    1
    16    55    53   am
    17   120   122    1
    18   124   123    1
    19   130   128   ar
    20   130   132   ar
    21   128   129   ar
    22    28    29    1
    23    29    30    1
    24    29    32    1
    25    57    60    1
    26    57    56    1
    27    61    60    1
    28   132   133   ar
    29    50    49    2
    30    30    31    2
    31    53    54    2
    32    53    52    1
    33    34    36   ar
    34    34    33   ar
    35    36    38   ar
    36    51    52    1
    37    51    48    1
    38   129   131   ar
    39    32    33    1
    40    33    35   ar
    41    49    48    1
    42   133   131   ar
    43   133   134    1
    44    38    39    1
    45    38    37   ar
    46    47    48    1
    47    40    41    1
    48    35    37   ar
    49    89    87   ar
    50    89    90   ar
    51    87    85   ar
    52    41    42    1
    53    41    44    1
    54    91    90    1
    55    90    88   ar
    56    46    44    1
    57    85    84    1
    58    85    86   ar
    59    84    81    1
    60    88    86   ar
    61    42    43    2
    62    83    82    2
    63    44    45    1
    64    77    76    2
    65    82    81    1
    66    73    71   ar
    67    81    80    1
    68    69    68    2
    69    71    70    1
    70    71    72   ar
    71    76    80   am
    72    76    75    1
    73    70    67    1
    74   114   113    1
    75    78    75    1
    76    78    79    1
    77    68    67    1
    78   113   112    1
    79    75    74    1
    80    66    67    1
    81   112   111    1
    82    18    17    1
    83    26    25    1
    84   111   110    1
    85    19    17    1
    86   110   107    1
    87    17    14    1
    88    27    25    1
    89    25    24    1
    90   107   108    1
    91   107   106    1
    92    14    13    1
    93    14    15    1
    94    24    21    1
    95    13    11   am
    96   108   109    2
    97   101   100    2
    98    11    10    1
    99    11    12    2
   100     8     6   am
   101   106   100   am
   102   100    99    1
   103    10     9    1
   104    15    16    2
   105    96    97    1
   106    96    93    1
   107     6     5    1
   108     6     7    2
   109     9     3   am
   110    21    22    1
   111    21    20    1
   112   105   103    1
   113   103   102    1
   114     5     2    1
   115    22    23    2
   116    92    93    1
   117    95    94    2
   118   102    99    1
   119   102   104    1
   120    93    94    1
   121    99    98    1
   122     3     2    1
   123     3     4    2
   124     2     1    1
