@<TRIPOS>MOLECULE
tmp/3i1aB00.pdb
 126 121 0 0 0
SMALL
GASTEIGER

@<TRIPOS>ATOM
      1  N         33.7340  -24.8050   -2.9720 N.3    49  PHE49      -0.1241
      2  CA        34.8970  -24.2250   -3.6390 C.3    49  PHE49       0.1605
      3  C         35.7080  -23.5820   -2.5110 C.2    49  PHE49       0.2264
      4  O         35.2600  -22.6530   -1.8350 O.2    49  PHE49      -0.2867
      5  CB        34.4630  -23.1830   -4.6800 C.3    49  PHE49       0.0534
      6  CG        35.6100  -22.4850   -5.3810 C.ar   49  PHE49      -0.0203
      7  CD1       36.1260  -21.3030   -4.8780 C.ar   49  PHE49      -0.0042
      8  CD2       36.1480  -23.0040   -6.5550 C.ar   49  PHE49      -0.0042
      9  CE1       37.1690  -20.6250   -5.5310 C.ar   49  PHE49      -0.0003
     10  CE2       37.1920  -22.3450   -7.2220 C.ar   49  PHE49      -0.0003
     11  CZ        37.7010  -21.1520   -6.7100 C.ar   49  PHE49      -0.0000
     12  N         39.2190  -21.6870   -1.2200 N.3    51  LYS51      -0.1245
     13  CA        40.3710  -20.8990   -1.6130 C.3    51  LYS51       0.1561
     14  C         41.3520  -20.6570   -0.4680 C.2    51  LYS51       0.2260
     15  O         40.9880  -20.1490    0.5970 O.2    51  LYS51      -0.2867
     16  CB        39.9010  -19.5630   -2.1890 C.3    51  LYS51       0.0271
     17  CG        40.9800  -18.7420   -2.8680 C.3    51  LYS51       0.0035
     18  CD        40.3640  -17.6690   -3.7750 C.3    51  LYS51       0.0206
     19  CE        39.3080  -16.8450   -3.0370 C.3    51  LYS51       0.1093
     20  NZ        38.8200  -15.6630   -3.8260 N.3    51  LYS51      -0.1314
     21  N         39.1600   -7.7670   -0.3380 N.3    61  ASN61      -0.1240
     22  CA        38.0470   -8.5560   -0.8500 C.3    61  ASN61       0.1653
     23  C         36.9640   -8.7440    0.2230 C.2    61  ASN61       0.2266
     24  O         35.8080   -8.3440    0.0580 O.2    61  ASN61      -0.2867
     25  CB        38.5760   -9.9330   -1.2890 C.3    61  ASN61       0.1155
     26  CG        37.4650  -10.9420   -1.5450 C.2    61  ASN61       0.2627
     27  OD1       37.7130  -12.1460   -1.6070 O.2    61  ASN61      -0.2716
     28  ND2       36.2400  -10.4580   -1.6960 N.am   61  ASN61      -0.0877
     29  N         33.0960   -7.3710    0.2700 N.3    65  ILE65      -0.1245
     30  CA        31.9710   -8.2720    0.0920 C.3    65  ILE65       0.1561
     31  C         31.0750   -8.2010    1.3210 C.2    65  ILE65       0.2260
     32  O         29.8550   -8.2710    1.2060 O.2    65  ILE65      -0.2867
     33  CB        32.4020   -9.7300   -0.1810 C.3    65  ILE65       0.0252
     34  CG1       33.1530  -10.3020    1.0050 C.3    65  ILE65       0.0019
     35  CG2       33.2450   -9.7970   -1.4410 C.3    65  ILE65       0.0019
     36  CD1       33.4300  -11.7670    0.8300 C.3    65  ILE65       0.0001
     37  N         26.2390  -10.9240   -4.5600 N.3    76  ILE76      -0.1231
     38  CA        27.6370  -11.1410   -4.1740 C.3    76  ILE76       0.1692
     39  C         27.6880  -12.5180   -3.5090 C.2    76  ILE76       0.2591
     40  O         26.9680  -12.7330   -2.5180 O.2    76  ILE76      -0.2718
     41  CB        28.1090  -10.1010   -3.1300 C.3    76  ILE76       0.0266
     42  CG1       27.9780   -8.6790   -3.6790 C.3    76  ILE76       0.0019
     43  CG2       29.5410  -10.3920   -2.7110 C.3    76  ILE76       0.0020
     44  CD1       28.7580   -8.4340   -4.9450 C.3    76  ILE76       0.0001
     45  N         28.5130  -13.4320   -4.0330 N.am   77  ILE77      -0.1980
     46  CA        28.6500  -14.7940   -3.4710 C.3    77  ILE77       0.1595
     47  C         29.3750  -14.6640   -2.1450 C.2    77  ILE77       0.2287
     48  O         30.5320  -14.2570   -2.1030 O.2    77  ILE77      -0.2864
     49  CB        29.4420  -15.7050   -4.4220 C.3    77  ILE77       0.0276
     50  CG1       28.6810  -15.8060   -5.7450 C.3    77  ILE77       0.0022
     51  CG2       29.6060  -17.1160   -3.8170 C.3    77  ILE77       0.0022
     52  CD1       29.3860  -16.5570   -6.7800 C.3    77  ILE77       0.0001
     53  N         33.5310  -21.4770    0.0790 N.3    99  TYR99      -0.1241
     54  CA        32.3230  -21.0820   -0.6620 C.3    99  TYR99       0.1605
     55  C         31.4890  -22.2490   -1.1380 C.2    99  TYR99       0.2264
     56  O         31.9690  -23.3690   -1.2710 O.2    99  TYR99      -0.2867
     57  CB        32.6650  -20.3170   -1.9470 C.3    99  TYR99       0.0534
     58  CG        33.3520  -19.0030   -1.7670 C.ar   99  TYR99      -0.0201
     59  CD1       34.7420  -18.9140   -1.7500 C.ar   99  TYR99      -0.0009
     60  CD2       32.6120  -17.8300   -1.6300 C.ar   99  TYR99      -0.0009
     61  CE1       35.3810  -17.6970   -1.5970 C.ar   99  TYR99       0.0417
     62  CE2       33.2400  -16.6020   -1.4770 C.ar   99  TYR99       0.0417
     63  CZ        34.6260  -16.5390   -1.4590 C.ar   99  TYR99       0.1957
     64  OH        35.2560  -15.3240   -1.3090 O.3    99  TYR99      -0.2866
     65  N         29.3080  -22.8190   -6.8490 N.3   102  ILE102     -0.1245
     66  CA        28.2430  -22.4300   -7.7770 C.3   102  ILE102      0.1561
     67  C         28.7810  -22.4460   -9.1960 C.2   102  ILE102      0.2260
     68  O         29.7000  -21.6910   -9.5160 O.2   102  ILE102     -0.2867
     69  CB        27.6790  -21.0150   -7.4710 C.3   102  ILE102      0.0252
     70  CG1       28.8150  -19.9940   -7.3800 C.3   102  ILE102      0.0019
     71  CG2       26.8510  -21.0430   -6.1850 C.3   102  ILE102      0.0019
     72  CD1       29.6410  -20.0880   -6.1130 C.3   102  ILE102      0.0001
     73  N         28.3560  -13.8970  -13.2730 N.3   218  LEU218     -0.1245
     74  CA        27.9050  -15.2890  -13.4040 C.3   218  LEU218      0.1561
     75  C         26.4060  -15.1710  -13.6230 C.2   218  LEU218      0.2260
     76  O         25.7100  -14.4010  -12.9450 O.2   218  LEU218     -0.2867
     77  CB        28.1930  -16.1130  -12.1500 C.3   218  LEU218      0.0270
     78  CG        29.6910  -16.2210  -11.8230 C.3   218  LEU218      0.0019
     79  CD1       29.8670  -17.1360  -10.6050 C.3   218  LEU218      0.0001
     80  CD2       30.4730  -16.7810  -12.9990 C.3   218  LEU218      0.0001
     81  N         28.0780  -10.9760   -9.1420 N.3   227  ILE227     -0.1231
     82  CA        29.2530  -10.2350   -9.5680 C.3   227  ILE227      0.1692
     83  C         30.4260  -10.7810   -8.7500 C.2   227  ILE227      0.2592
     84  O         30.3900  -10.8050   -7.5130 O.2   227  ILE227     -0.2718
     85  CB        29.1110   -8.7220   -9.3280 C.3   227  ILE227      0.0266
     86  CG1       28.0420   -8.1340  -10.2610 C.3   227  ILE227      0.0019
     87  CG2       30.4570   -8.0390   -9.6000 C.3   227  ILE227      0.0020
     88  CD1       26.6720   -8.7230  -10.0880 C.3   227  ILE227      0.0001
     89  N         31.4660  -11.2080   -9.4530 N.am  228  ILE228     -0.1966
     90  CA        32.6270  -11.7890   -8.8040 C.3   228  ILE228      0.1727
     91  C         33.9350  -11.0570   -9.0360 C.2   228  ILE228      0.2616
     92  O         34.0070  -10.0690   -9.7890 O.2   228  ILE228     -0.2715
     93  CB        32.7730  -13.2640   -9.2040 C.3   228  ILE228      0.0290
     94  CG1       32.9830  -13.4020  -10.7140 C.3   228  ILE228      0.0022
     95  CG2       31.4820  -14.0210   -8.8200 C.3   228  ILE228      0.0023
     96  CD1       33.4510  -14.8220  -11.1420 C.3   228  ILE228      0.0001
     97  N         34.9600  -11.5480   -8.3420 N.am  229  ASP229     -0.1957
     98  CA        36.3100  -11.0090   -8.3660 C.3   229  ASP229      0.1840
     99  C         36.3820   -9.6390   -7.7210 C.2   229  ASP229      0.2622
    100  O         36.4490   -8.6200   -8.4170 O.2   229  ASP229     -0.2715
    101  CB        36.8490  -10.9220   -9.7810 C.3   229  ASP229      0.1450
    102  CG        38.3620  -10.6850   -9.8200 C.2   229  ASP229      0.3671
    103  OD1       38.9480  -10.2040   -8.8230 O.co2 229  ASP229     -0.2456
    104  OD2       38.9670  -10.9750  -10.8630 O.co2 229  ASP229     -0.2456
    105  N         36.3840   -9.6170   -6.3900 N.am  230  TRP230     -0.1960
    106  CA        36.4420   -8.3770   -5.6500 C.3   230  TRP230      0.1771
    107  C         37.8080   -8.1430   -5.0050 C.2   230  TRP230      0.2619
    108  O         37.9110   -7.4850   -3.9660 O.2   230  TRP230     -0.2715
    109  CB        35.3360   -8.3570   -4.5790 C.3   230  TRP230      0.0590
    110  CG        33.9850   -8.1480   -5.1760 C.ar  230  TRP230      0.0006
    111  CD1       33.0730   -9.1010   -5.5410 C.ar  230  TRP230      0.0946
    112  CD2       33.4360   -6.8920   -5.5820 C.ar  230  TRP230      0.0152
    113  NE1       31.9910   -8.5080   -6.1580 N.ar  230  TRP230     -0.2442
    114  CE2       32.1890   -7.1560   -6.1930 C.ar  230  TRP230      0.0810
    115  CE3       33.8830   -5.5700   -5.4920 C.ar  230  TRP230      0.0012
    116  CZ2       31.3750   -6.1440   -6.7110 C.ar  230  TRP230      0.0191
    117  CZ3       33.0750   -4.5530   -6.0130 C.ar  230  TRP230      0.0001
    118  CH2       31.8260   -4.8550   -6.6190 C.ar  230  TRP230      0.0015
    119  N         38.8480   -8.6650   -5.6440 N.am  231  ASP231     -0.1971
    120  CA        40.2030   -8.5290   -5.1150 C.3   231  ASP231      0.1709
    121  C         40.8450   -7.1790   -5.3800 C.2   231  ASP231      0.2293
    122  O         41.8060   -6.8190   -4.7000 O.2   231  ASP231     -0.2864
    123  CB        41.1290   -9.6130   -5.6780 C.3   231  ASP231      0.1436
    124  CG        40.8300  -11.0010   -5.1270 C.2   231  ASP231      0.3671
    125  OD1       40.2280  -11.1170   -4.0410 O.co2 231  ASP231     -0.2456
    126  OD2       41.2300  -11.9860   -5.7840 O.co2 231  ASP231     -0.2456
@<TRIPOS>BOND
     1    75    74    1
     2    75    76    2
     3    74    73    1
     4    74    77    1
     5    80    78    1
     6    77    78    1
     7    78    79    1
     8    96    94    1
     9   104   102   ar
    10    94    93    1
    11    86    88    1
    12    86    85    1
    13   102   101    1
    14   102   103   ar
    15    92    91    2
    16   101    98    1
    17    87    85    1
    18    82    85    1
    19    82    81    1
    20    82    83    1
    21    68    67    2
    22    89    90    1
    23    89    83   am
    24    93    95    1
    25    93    90    1
    26    67    66    1
    27    91    90    1
    28    91    97   am
    29    83    84    2
    30   100    99    2
    31    98    97    1
    32    98    99    1
    33    66    69    1
    34    66    65    1
    35    99   105   am
    36    69    70    1
    37    69    71    1
    38    70    72    1
    39    10    11   ar
    40    10     8   ar
    41    52    50    1
    42   116   118   ar
    43   116   114   ar
    44    11     9   ar
    45   118   117   ar
    46     8     6   ar
    47   105   106    1
    48   114   113   ar
    49   114   112   ar
    50   113   111   ar
    51   117   115   ar
    52   126   124   ar
    53    50    49    1
    54   123   124    1
    55   123   120    1
    56   106   107    1
    57   106   109    1
    58   119   120    1
    59   119   107   am
    60   112   115   ar
    61   112   110   ar
    62   111   110   ar
    63     9     7   ar
    64     6     7   ar
    65     6     5    1
    66   121   120    1
    67   121   122    2
    68   110   109    1
    69   124   125   ar
    70   107   108    2
    71    44    42    1
    72     5     2    1
    73    37    38    1
    74    49    51    1
    75    49    46    1
    76    38    39    1
    77    38    41    1
    78    45    39   am
    79    45    46    1
    80    20    19    1
    81    18    19    1
    82    18    17    1
    83    42    41    1
    84     2     1    1
    85     2     3    1
    86    39    40    2
    87    46    47    1
    88    41    43    1
    89    17    16    1
    90     3     4    2
    91    16    13    1
    92    47    48    2
    93    57    58    1
    94    57    54    1
    95    58    59   ar
    96    58    60   ar
    97    59    61   ar
    98    28    26   am
    99    60    62   ar
   100    13    12    1
   101    13    14    1
   102    27    26    2
   103    61    63   ar
   104    26    25    1
   105    62    63   ar
   106    63    64    1
   107    35    33    1
   108    25    22    1
   109    56    55    2
   110    55    54    1
   111    22    21    1
   112    22    23    1
   113    54    53    1
   114    14    15    2
   115    33    30    1
   116    33    34    1
   117    24    23    2
   118    30    29    1
   119    30    31    1
   120    36    34    1
   121    32    31    2
