@<TRIPOS>MOLECULE
tmp/3i1aB01.pdb
 92 88 0 0 0
SMALL
GASTEIGER

@<TRIPOS>ATOM
      1  N         30.6480  -14.6790  -20.7940 N.3   108  PHE108     -0.1241
      2  CA        31.2940  -14.9670  -22.0630 C.3   108  PHE108      0.1605
      3  C         30.6510  -16.2420  -22.6090 C.2   108  PHE108      0.2264
      4  O         30.6110  -16.4610  -23.8150 O.2   108  PHE108     -0.2867
      5  CB        32.7980  -15.1800  -21.8900 C.3   108  PHE108      0.0534
      6  CG        33.5730  -13.9170  -21.5770 C.ar  108  PHE108     -0.0203
      7  CD1       34.5760  -13.9320  -20.6270 C.ar  108  PHE108     -0.0042
      8  CD2       33.3200  -12.7340  -22.2610 C.ar  108  PHE108     -0.0042
      9  CE1       35.3250  -12.7900  -20.3550 C.ar  108  PHE108     -0.0003
     10  CE2       34.0640  -11.5890  -21.9950 C.ar  108  PHE108     -0.0003
     11  CZ        35.0640  -11.6170  -21.0450 C.ar  108  PHE108     -0.0000
     12  N         33.8510   -6.7700  -16.5780 N.3   213  HIS213     -0.1241
     13  CA        33.5440   -7.2680  -17.9200 C.3   213  HIS213      0.1621
     14  C         32.7180   -8.5550  -17.7120 C.2   213  HIS213      0.2264
     15  O         32.5280   -9.0020  -16.5720 O.2   213  HIS213     -0.2867
     16  CB        34.8280   -7.5620  -18.6990 C.3   213  HIS213      0.0745
     17  CG        35.7810   -8.4680  -17.9880 C.ar  213  HIS213      0.0817
     18  ND1       35.6210   -9.8320  -17.9520 N.ar  213  HIS213     -0.2268
     19  CD2       36.8870   -8.1980  -17.2500 C.ar  213  HIS213      0.1154
     20  CE1       36.5840  -10.3690  -17.2200 C.ar  213  HIS213      0.1986
     21  NE2       37.3650   -9.3970  -16.7830 N.ar  213  HIS213     -0.2212
     22  N         34.3810   -5.8440  -24.2620 N.3   249  VAL249     -0.1231
     23  CA        35.4450   -6.7300  -23.7600 C.3   249  VAL249      0.1692
     24  C         35.1170   -8.1950  -24.0140 C.2   249  VAL249      0.2592
     25  O         34.0570   -8.6650  -23.6340 O.2   249  VAL249     -0.2718
     26  CB        35.6850   -6.5490  -22.2290 C.3   249  VAL249      0.0266
     27  CG1       36.8080   -7.4870  -21.7770 C.3   249  VAL249      0.0020
     28  CG2       36.0590   -5.1090  -21.9400 C.3   249  VAL249      0.0020
     29  N         36.0330   -8.9050  -24.6690 N.am  250  GLY250     -0.1957
     30  CA        35.7990  -10.3180  -24.9520 C.3   250  GLY250      0.1869
     31  C         34.8310  -10.5480  -26.0960 C.2   250  GLY250      0.2309
     32  O         34.3090  -11.6550  -26.2900 O.2   250  GLY250     -0.2863
     33  N         42.3130    1.4200  -20.6400 N.3   283  ARG283     -0.1245
     34  CA        42.3610   -0.0110  -20.3170 C.3   283  ARG283      0.1563
     35  C         43.1010   -0.7790  -21.4070 C.2   283  ARG283      0.2260
     36  O         43.8310   -1.7330  -21.1230 O.2   283  ARG283     -0.2867
     37  CB        40.9480   -0.5550  -20.1580 C.3   283  ARG283      0.0307
     38  CG        40.9330   -1.9780  -19.6140 C.3   283  ARG283      0.0489
     39  CD        39.5000   -2.4410  -19.3390 C.3   283  ARG283      0.2205
     40  NE        39.4920   -3.7910  -18.7430 N.pl3 283  ARG283     -0.0865
     41  CZ        39.5460   -4.9330  -19.4150 C.cat 283  ARG283      0.5346
     42  NH1       39.6120   -4.9550  -20.7440 N.pl3 283  ARG283      0.1354
     43  NH2       39.5610   -6.0780  -18.7350 N.pl3 283  ARG283      0.1354
     44  N         46.6180   -2.9180  -21.2760 N.3   287  ASP287     -0.1239
     45  CA        46.8030   -4.2790  -21.8060 C.3   287  ASP287      0.1674
     46  C         47.9580   -4.3760  -22.8200 C.2   287  ASP287      0.2266
     47  O         48.7370   -5.3370  -22.7930 O.2   287  ASP287     -0.2867
     48  CB        45.5010   -4.7910  -22.4520 C.3   287  ASP287      0.1410
     49  CG        44.5060   -5.3350  -21.4260 C.2   287  ASP287      0.3668
     50  OD1       44.9030   -5.6250  -20.2880 O.co2 287  ASP287     -0.2456
     51  OD2       43.3240   -5.4890  -21.7650 O.co2 287  ASP287     -0.2456
     52  N         51.0090   -7.0190  -22.2140 N.3   291  TYR291     -0.1241
     53  CA        51.2710   -8.0630  -23.2110 C.3   291  TYR291      0.1605
     54  C         52.5880   -7.7990  -23.9260 C.2   291  TYR291      0.2264
     55  O         53.3720   -8.7330  -24.1570 O.2   291  TYR291     -0.2867
     56  CB        50.1260   -8.1270  -24.2300 C.3   291  TYR291      0.0534
     57  CG        48.7820   -8.4730  -23.6240 C.ar  291  TYR291     -0.0201
     58  CD1       47.5930   -8.0330  -24.2120 C.ar  291  TYR291     -0.0009
     59  CD2       48.6950   -9.2470  -22.4700 C.ar  291  TYR291     -0.0009
     60  CE1       46.3410   -8.3600  -23.6550 C.ar  291  TYR291      0.0417
     61  CE2       47.4540   -9.5770  -21.9060 C.ar  291  TYR291      0.0417
     62  CZ        46.2850   -9.1320  -22.5040 C.ar  291  TYR291      0.1957
     63  OH        45.0710   -9.4760  -21.9390 O.3   291  TYR291     -0.2866
     64  N         45.8250  -12.4560  -27.0080 N.3   311  TYR311     -0.1241
     65  CA        44.9950  -11.4040  -26.4350 C.3   311  TYR311      0.1605
     66  C         45.2930  -10.0390  -27.0320 C.2   311  TYR311      0.2264
     67  O         44.3730   -9.2340  -27.2050 O.2   311  TYR311     -0.2867
     68  CB        45.1740  -11.3550  -24.9190 C.3   311  TYR311      0.0534
     69  CG        44.5650  -12.5330  -24.1990 C.ar  311  TYR311     -0.0201
     70  CD1       45.2460  -13.1650  -23.1590 C.ar  311  TYR311     -0.0009
     71  CD2       43.3060  -13.0180  -24.5560 C.ar  311  TYR311     -0.0009
     72  CE1       44.6900  -14.2590  -22.4880 C.ar  311  TYR311      0.0417
     73  CE2       42.7380  -14.1080  -23.8930 C.ar  311  TYR311      0.0417
     74  CZ        43.4380  -14.7230  -22.8610 C.ar  311  TYR311      0.1957
     75  OH        42.8800  -15.8010  -22.1990 O.3   311  TYR311     -0.2866
     76  N         43.5290   -9.9060  -30.4480 N.3   314  GLU314     -0.1231
     77  CA        42.0740   -9.9430  -30.3030 C.3   314  GLU314      0.1699
     78  C         41.4640   -8.5660  -30.1000 C.2   314  GLU314      0.2592
     79  O         40.3690   -8.2760  -30.5850 O.2   314  GLU314     -0.2718
     80  CB        41.6780  -10.8150  -29.1140 C.3   314  GLU314      0.0402
     81  CG        41.2950  -12.2340  -29.4360 C.3   314  GLU314      0.1161
     82  CD        40.9000  -13.0120  -28.1880 C.2   314  GLU314      0.3649
     83  OE1       40.4200  -12.3780  -27.2250 O.co2 314  GLU314     -0.2457
     84  OE2       41.0520  -14.2540  -28.1700 O.co2 314  GLU314     -0.2457
     85  N         42.1710   -7.7080  -29.3700 N.am  315  MET315     -0.1979
     86  CA        41.6560   -6.3770  -29.1170 C.3   315  MET315      0.1605
     87  C         41.3660   -5.5860  -30.3720 C.2   315  MET315      0.2287
     88  O         40.5180   -4.6910  -30.3590 O.2   315  MET315     -0.2864
     89  CB        42.6400   -5.6020  -28.2330 C.3   315  MET315      0.0413
     90  CG        42.9340   -6.3380  -26.9670 C.3   315  MET315      0.0598
     91  SD        43.9260   -5.3250  -25.8050 S.3   315  MET315     -0.1393
     92  CE        45.1050   -4.7070  -26.9080 C.3   315  MET315      0.0692
@<TRIPOS>BOND
     1    79    78    2
     2    76    77    1
     3    87    88    2
     4    87    86    1
     5    77    78    1
     6    77    80    1
     7    78    85   am
     8    81    80    1
     9    81    82    1
    10    85    86    1
    11    86    89    1
    12    89    90    1
    13    82    84   ar
    14    82    83   ar
    15    67    66    2
    16    66    65    1
    17    64    65    1
    18    90    91    1
    19    92    91    1
    20    65    68    1
    21    32    31    2
    22    31    30    1
    23    30    29    1
    24    68    69    1
    25    29    24   am
    26    71    69   ar
    27    71    73   ar
    28    22    23    1
    29    56    57    1
    30    56    53    1
    31    58    60   ar
    32    58    57   ar
    33    69    70   ar
    34    55    54    2
    35    24    23    1
    36    24    25    2
    37    54    53    1
    38    73    74   ar
    39     4     3    2
    40    23    26    1
    41    60    62   ar
    42    57    59   ar
    43    53    52    1
    44    70    72   ar
    45    74    72   ar
    46    74    75    1
    47    46    47    2
    48    46    45    1
    49     3     2    1
    50    62    63    1
    51    62    61   ar
    52    59    61   ar
    53    48    45    1
    54    48    49    1
    55     8    10   ar
    56     8     6   ar
    57    26    28    1
    58    26    27    1
    59     2     5    1
    60     2     1    1
    61    10    11   ar
    62     5     6    1
    63    45    44    1
    64    51    49   ar
    65     6     7   ar
    66    49    50   ar
    67    35    36    2
    68    35    34    1
    69    11     9   ar
    70    42    41    1
    71    33    34    1
    72     7     9   ar
    73    34    37    1
    74    37    38    1
    75    38    39    1
    76    41    40    2
    77    41    43    1
    78    39    40    1
    79    16    17    1
    80    16    13    1
    81    17    18   ar
    82    17    19   ar
    83    18    20   ar
    84    13    14    1
    85    13    12    1
    86    14    15    2
    87    19    21   ar
    88    20    21   ar
