@<TRIPOS>MOLECULE
tmp/3i1fA00.pdb
 131 120 0 0 0
SMALL
GASTEIGER

@<TRIPOS>ATOM
      1  N         42.7730  -49.0460  -12.6250 N.3    40  LEU40      -0.1231
      2  CA        42.6480  -48.5960  -11.2430 C.3    40  LEU40       0.1693
      3  C         41.1990  -48.6410  -10.7640 C.2    40  LEU40       0.2592
      4  O         40.8050  -49.5410  -10.0200 O.2    40  LEU40      -0.2718
      5  CB        43.1860  -47.1680  -11.0900 C.3    40  LEU40       0.0284
      6  CG        44.6760  -46.8880  -11.3060 C.3    40  LEU40       0.0019
      7  CD1       45.0520  -47.0020  -12.7730 C.3    40  LEU40       0.0001
      8  CD2       45.0300  -45.5050  -10.7800 C.3    40  LEU40       0.0001
      9  N         40.4110  -47.6610  -11.1990 N.am   41  LYS41      -0.1966
     10  CA        39.0430  -47.4840  -10.7170 C.3    41  LYS41       0.1728
     11  C         38.0140  -48.2730  -11.5220 C.2    41  LYS41       0.2616
     12  O         37.8970  -48.1000  -12.7340 O.2    41  LYS41      -0.2715
     13  CB        38.6680  -46.0000  -10.7360 C.3    41  LYS41       0.0311
     14  CG        39.6510  -45.0940  -10.0160 C.3    41  LYS41       0.0038
     15  CD        39.5080  -45.2100   -8.5120 C.3    41  LYS41       0.0206
     16  CE        38.1170  -44.8040   -8.0700 C.3    41  LYS41       0.1093
     17  NZ        37.9750  -44.8760   -6.5950 N.3    41  LYS41      -0.1314
     18  N         37.2640  -49.1310  -10.8380 N.am   42  ARG42      -0.1963
     19  CA        36.1780  -49.8670  -11.4740 C.3    42  ARG42       0.1729
     20  C         34.8330  -49.2250  -11.1420 C.2    42  ARG42       0.2617
     21  O         33.8850  -49.9070  -10.7510 O.2    42  ARG42      -0.2715
     22  CB        36.1900  -51.3380  -11.0490 C.3    42  ARG42       0.0348
     23  CG        37.3650  -52.1420  -11.5920 C.3    42  ARG42       0.0492
     24  CD        38.6350  -51.9110  -10.7850 C.3    42  ARG42       0.2205
     25  NE        39.6780  -52.8750  -11.1230 N.pl3  42  ARG42      -0.0865
     26  CZ        40.6720  -52.6380  -11.9730 C.cat  42  ARG42       0.5346
     27  NH1       40.7680  -51.4610  -12.5760 N.pl3  42  ARG42       0.1354
     28  NH2       41.5740  -53.5770  -12.2170 N.pl3  42  ARG42       0.1354
     29  N         34.7620  -47.9060  -11.3010 N.am   43  GLY43      -0.1940
     30  CA        33.5570  -47.1540  -11.0040 C.3    43  GLY43       0.2014
     31  C         33.7550  -46.2270   -9.8220 C.2    43  GLY43       0.2639
     32  O         34.6440  -46.4470   -8.9980 O.2    43  GLY43      -0.2714
     33  N         32.9310  -45.1870   -9.7400 N.am   44  MET44      -0.1963
     34  CA        32.9960  -44.2440   -8.6270 C.3    44  MET44       0.1736
     35  C         31.9540  -43.1400   -8.7900 C.2    44  MET44       0.2617
     36  O         31.0760  -43.2230   -9.6500 O.2    44  MET44      -0.2715
     37  CB        34.3930  -43.6280   -8.5230 C.3    44  MET44       0.0427
     38  CG        34.9920  -43.6630   -7.1210 C.3    44  MET44       0.0599
     39  SD        33.9380  -42.9540   -5.8430 S.3    44  MET44      -0.1393
     40  CE        34.8890  -43.3200   -4.3680 C.3    44  MET44       0.0692
     41  N         32.0600  -42.1080   -7.9570 N.am   45  THR45      -0.1951
     42  CA        31.1580  -40.9620   -8.0080 C.3    45  THR45       0.1897
     43  C         31.8790  -39.6790   -7.6010 C.2    45  THR45       0.2313
     44  O         32.3030  -39.5320   -6.4540 O.2    45  THR45      -0.2863
     45  CB        29.9370  -41.1540   -7.0860 C.3    45  THR45       0.1794
     46  OG1       30.3790  -41.5180   -5.7730 O.3    45  THR45      -0.2208
     47  CG2       29.0190  -42.2420   -7.6250 C.3    45  THR45       0.0378
     48  N         40.0580  -41.2820    1.2230 N.3   218  ARG218     -0.1245
     49  CA        38.8990  -42.0760    0.8240 C.3   218  ARG218      0.1563
     50  C         39.0660  -43.5400    1.2140 C.2   218  ARG218      0.2260
     51  O         40.1840  -44.0250    1.3740 O.2   218  ARG218     -0.2867
     52  CB        38.6150  -41.9440   -0.6760 C.3   218  ARG218      0.0307
     53  CG        39.5320  -42.7410   -1.5910 C.3   218  ARG218      0.0489
     54  CD        40.7160  -41.9100   -2.0760 C.3   218  ARG218      0.2205
     55  NE        41.0830  -42.2310   -3.4560 N.pl3 218  ARG218     -0.0865
     56  CZ        42.0770  -43.0410   -3.8070 C.cat 218  ARG218      0.5346
     57  NH1       42.8240  -43.6250   -2.8830 N.pl3 218  ARG218      0.1354
     58  NH2       42.3250  -43.2660   -5.0890 N.pl3 218  ARG218      0.1354
     59  N         36.8330  -47.5570    0.7550 N.3   220  PHE220     -0.1241
     60  CA        35.7000  -48.2310    0.1340 C.3   220  PHE220      0.1605
     61  C         35.7820  -49.7500    0.1970 C.2   220  PHE220      0.2264
     62  O         36.8690  -50.3280    0.1780 O.2   220  PHE220     -0.2867
     63  CB        35.5380  -47.7720   -1.3180 C.3   220  PHE220      0.0534
     64  CG        36.7810  -47.1580   -1.9050 C.ar  220  PHE220     -0.0203
     65  CD1       37.9650  -47.8750   -1.9710 C.ar  220  PHE220     -0.0042
     66  CD2       36.7590  -45.8640   -2.3980 C.ar  220  PHE220     -0.0042
     67  CE1       39.1030  -47.3090   -2.5090 C.ar  220  PHE220     -0.0003
     68  CE2       37.8930  -45.2950   -2.9400 C.ar  220  PHE220     -0.0003
     69  CZ        39.0670  -46.0160   -2.9950 C.ar  220  PHE220     -0.0000
     70  N         35.9020  -52.8460   -1.4620 N.3   222  VAL222     -0.1245
     71  CA        36.2370  -53.2620   -2.8190 C.3   222  VAL222      0.1561
     72  C         35.4380  -54.4840   -3.2800 C.2   222  VAL222      0.2260
     73  O         35.2090  -54.6720   -4.4760 O.2   222  VAL222     -0.2867
     74  CB        37.7560  -53.5160   -2.9680 C.3   222  VAL222      0.0252
     75  CG1       38.5270  -52.2650   -2.5940 C.3   222  VAL222      0.0019
     76  CG2       38.1960  -54.6910   -2.1030 C.3   222  VAL222      0.0019
     77  N         32.5810  -56.5120   -4.4270 N.3   224  LYS224     -0.1245
     78  CA        31.3150  -56.1830   -5.0400 C.3   224  LYS224      0.1561
     79  C         30.3690  -57.3710   -4.9630 C.2   224  LYS224      0.2260
     80  O         30.7770  -58.4720   -4.5910 O.2   224  LYS224     -0.2867
     81  CB        31.5320  -55.6990   -6.4610 C.3   224  LYS224      0.0271
     82  CG        31.5860  -54.1860   -6.6000 C.3   224  LYS224      0.0035
     83  CD        31.9280  -53.5220   -5.2760 C.3   224  LYS224      0.0206
     84  CE        31.3750  -52.1080   -5.2080 C.3   224  LYS224      0.1093
     85  NZ        31.5330  -51.5150   -3.8520 N.3   224  LYS224     -0.1314
     86  N         40.1700  -51.1380    1.4200 N.3   236  VAL236     -0.1245
     87  CA        41.4450  -50.4330    1.4410 C.3   236  VAL236      0.1561
     88  C         41.3010  -49.0130    1.9730 C.2   236  VAL236      0.2260
     89  O         40.1920  -48.5310    2.2110 O.2   236  VAL236     -0.2867
     90  CB        42.0790  -50.3720    0.0370 C.3   236  VAL236      0.0252
     91  CG1       42.2920  -51.7750   -0.5100 C.3   236  VAL236      0.0019
     92  CG2       41.2100  -49.5480   -0.9000 C.3   236  VAL236      0.0019
     93  N         48.8700  -54.7600    2.0060 N.3   277  SER277     -0.1217
     94  CA        49.5980  -54.5170    0.7690 C.3   277  SER277      0.1889
     95  C         49.7430  -53.0300    0.4620 C.2   277  SER277      0.2288
     96  O         49.1910  -52.1780    1.1580 O.2   277  SER277     -0.2866
     97  CB        48.8940  -55.2150   -0.3970 C.3   277  SER277      0.2089
     98  OG        47.5920  -54.6870   -0.5950 O.3   277  SER277     -0.2183
     99  N         50.1060  -50.3420   -3.2320 N.3   279  ARG279     -0.1245
    100  CA        49.9040  -50.3160   -4.6770 C.3   279  ARG279      0.1563
    101  C         49.7510  -48.8900   -5.1930 C.2   279  ARG279      0.2260
    102  O         48.7860  -48.2020   -4.8650 O.2   279  ARG279     -0.2867
    103  CB        48.6860  -51.1590   -5.0590 C.3   279  ARG279      0.0307
    104  CG        48.3090  -51.0940   -6.5270 C.3   279  ARG279      0.0489
    105  CD        46.9700  -51.7690   -6.7760 C.3   279  ARG279      0.2205
    106  NE        47.0270  -53.2200   -6.6000 N.pl3 279  ARG279     -0.0865
    107  CZ        46.9200  -54.0980   -7.5940 C.cat 279  ARG279      0.5346
    108  NH1       46.7460  -53.6770   -8.8390 N.pl3 279  ARG279      0.1354
    109  NH2       46.9820  -55.3990   -7.3440 N.pl3 279  ARG279      0.1354
    110  N         48.9380  -46.7180   -8.2020 N.3   281  GLY281     -0.1225
    111  CA        48.3390  -46.7010   -9.5210 C.3   281  GLY281      0.1811
    112  C         48.1050  -48.0920  -10.0750 C.2   281  GLY281      0.2280
    113  O         47.4040  -48.9060   -9.4690 O.2   281  GLY281     -0.2866
    114  N         51.5100  -52.7890   -8.1280 N.3   284  GLU284     -0.1245
    115  CA        51.4100  -53.0550   -6.7010 C.3   284  GLU284      0.1567
    116  C         52.7930  -53.0070   -6.0480 C.2   284  GLU284      0.2260
    117  O         53.6280  -53.8840   -6.2740 O.2   284  GLU284     -0.2867
    118  CB        50.7690  -54.4300   -6.4900 C.3   284  GLU284      0.0388
    119  CG        50.4190  -54.7730   -5.0540 C.3   284  GLU284      0.1160
    120  CD        50.0200  -56.2260   -4.8960 C.2   284  GLU284      0.3649
    121  OE1       49.5370  -56.6000   -3.8030 O.co2 284  GLU284     -0.2457
    122  OE2       50.1910  -56.9940   -5.8690 O.co2 284  GLU284     -0.2457
    123  N         46.9070  -46.4760   -2.0680 N.3   295  ALA295     -0.1245
    124  CA        45.7950  -47.2110   -1.4810 C.3   295  ALA295      0.1562
    125  C         46.3180  -48.4370   -0.7380 C.2   295  ALA295      0.2260
    126  O         47.0220  -49.2710   -1.3100 O.2   295  ALA295     -0.2867
    127  CB        44.7960  -47.6120   -2.5470 C.3   295  ALA295      0.0290
    128  N         46.1970  -51.9520    1.5340 N.3   297  GLY297     -0.1225
    129  CA        45.4730  -53.1820    1.8160 C.3   297  GLY297      0.1811
    130  C         45.3930  -53.4150    3.3130 C.2   297  GLY297      0.2280
    131  O         46.3300  -53.0810    4.0370 O.2   297  GLY297     -0.2866
@<TRIPOS>BOND
     1     7     6    1
     2    12    11    2
     3     1     2    1
     4    27    26    1
     5    28    26    1
     6    26    25    2
     7    23    22    1
     8    23    24    1
     9    11    18   am
    10    11    10    1
    11    19    20    1
    12    19    22    1
    13    19    18    1
    14     6     5    1
    15     6     8    1
    16    29    20   am
    17    29    30    1
    18     2     5    1
    19     2     3    1
    20     9     3   am
    21     9    10    1
    22    20    21    2
    23    25    24    1
    24    30    31    1
    25     3     4    2
    26    13    10    1
    27    13    14    1
    28   112   111    1
    29   112   113    2
    30    14    15    1
    31    31    33   am
    32    31    32    2
    33    33    34    1
    34    36    35    2
    35   111   110    1
    36   108   107    1
    37    35    34    1
    38    35    41   am
    39    34    37    1
    40    37    38    1
    41    15    16    1
    42   114   115    1
    43    16    17    1
    44    42    41    1
    45    42    43    1
    46    42    45    1
    47    47    45    1
    48    43    44    2
    49   107   109    1
    50   107   106    2
    51    38    39    1
    52    45    46    1
    53   105   106    1
    54   105   104    1
    55   115   118    1
    56   115   116    1
    57    82    81    1
    58    82    83    1
    59   104   103    1
    60   118   119    1
    61    81    78    1
    62   117   116    2
    63   122   120   ar
    64    39    40    1
    65    83    84    1
    66    84    85    1
    67   101   102    2
    68   101   100    1
    69    58    56    1
    70   103   100    1
    71   119   120    1
    72    78    79    1
    73    78    77    1
    74    79    80    2
    75   120   121   ar
    76   100    99    1
    77    73    72    2
    78    56    55    2
    79    56    57    1
    80    55    54    1
    81    72    71    1
    82    69    68   ar
    83    69    67   ar
    84    74    71    1
    85    74    75    1
    86    74    76    1
    87    68    66   ar
    88    71    70    1
    89   127   124    1
    90    67    65   ar
    91    66    64   ar
    92    54    53    1
    93   123   124    1
    94    65    64   ar
    95    64    63    1
    96    53    52    1
    97   124   125    1
    98    63    60    1
    99   126   125    2
   100    92    90    1
   101    52    49    1
   102    98    97    1
   103    91    90    1
   104    97    94    1
   105    90    87    1
   106    60    61    1
   107    60    59    1
   108    62    61    2
   109    95    94    1
   110    95    96    2
   111    94    93    1
   112    49    50    1
   113    49    48    1
   114    50    51    2
   115    86    87    1
   116    87    88    1
   117   128   129    1
   118   129   130    1
   119    88    89    2
   120   130   131    2
