@<TRIPOS>MOLECULE
tmp/3i1kC02.pdb
 83 78 0 0 0
SMALL
GASTEIGER

@<TRIPOS>ATOM
      1  N        -32.5670  -26.9920   19.4460 N.3   271  GLN271     -0.1245
      2  CA       -33.5050  -26.5070   18.4290 C.3   271  GLN271      0.1566
      3  C        -34.4570  -27.5990   18.0250 C.2   271  GLN271      0.2260
      4  O        -34.0060  -28.6700   17.6520 O.2   271  GLN271     -0.2867
      5  CB       -32.7380  -26.0360   17.1910 C.3   271  GLN271      0.0367
      6  CG       -33.6040  -25.5770   16.0120 C.3   271  GLN271      0.0905
      7  CD       -34.4440  -24.3540   16.3540 C.2   271  GLN271      0.2608
      8  OE1      -35.3520  -24.3940   17.2020 O.2   271  GLN271     -0.2717
      9  NE2      -34.1330  -23.2490   15.7000 N.am  271  GLN271     -0.0878
     10  N        -38.4250  -20.0500   14.9120 N.3   282  ASP282     -0.1239
     11  CA       -37.2580  -20.0210   15.8120 C.3   282  ASP282      0.1674
     12  C        -37.6340  -19.5720   17.2430 C.2   282  ASP282      0.2266
     13  O        -36.8640  -18.8820   17.9280 O.2   282  ASP282     -0.2867
     14  CB       -36.1450  -19.1400   15.2340 C.3   282  ASP282      0.1410
     15  CG       -34.8090  -19.2980   16.0100 C.2   282  ASP282      0.3668
     16  OD1      -34.5730  -20.4020   16.6360 O.co2 282  ASP282     -0.2456
     17  OD2      -34.0340  -18.2910   16.0230 O.co2 282  ASP282     -0.2456
     18  N        -35.0050  -20.5800   19.8550 N.3   285  GLY285     -0.1210
     19  CA       -33.8610  -19.6990   19.7920 C.3   285  GLY285      0.1956
     20  C        -34.0910  -18.3140   20.3950 C.2   285  GLY285      0.2611
     21  O        -33.1840  -17.7350   21.0060 O.2   285  GLY285     -0.2717
     22  N        -35.2850  -17.7690   20.2150 N.am  286  GLN286     -0.1979
     23  CA       -35.6000  -16.4450   20.7580 C.3   286  GLN286      0.1601
     24  C        -35.7620  -16.5350   22.2630 C.2   286  GLN286      0.2287
     25  O        -35.4520  -15.5860   22.9620 O.2   286  GLN286     -0.2864
     26  CB       -36.8840  -15.8530   20.1620 C.3   286  GLN286      0.0394
     27  CG       -36.8830  -15.4950   18.6670 C.3   286  GLN286      0.0908
     28  CD       -38.1780  -14.7140   18.2910 C.2   286  GLN286      0.2608
     29  OE1      -38.5020  -13.7030   18.9400 O.2   286  GLN286     -0.2717
     30  NE2      -38.9240  -15.1960   17.2900 N.am  286  GLN286     -0.0878
     31  N        -32.0980  -17.7650   26.0740 N.3   289  LYS289     -0.1245
     32  CA       -31.1330  -16.6550   26.0510 C.3   289  LYS289      0.1561
     33  C        -30.2050  -16.7710   27.2580 C.2   289  LYS289      0.2260
     34  O        -30.6090  -17.2590   28.3120 O.2   289  LYS289     -0.2867
     35  CB       -31.8560  -15.3010   26.1410 C.3   289  LYS289      0.0271
     36  CG       -32.6310  -14.8630   24.8860 C.3   289  LYS289      0.0035
     37  CD       -31.7000  -14.7300   23.6300 C.3   289  LYS289      0.0206
     38  CE       -32.4400  -14.1270   22.3910 C.3   289  LYS289      0.1093
     39  NZ       -32.0200  -14.7580   21.0890 N.3   289  LYS289     -0.1314
     40  N        -28.4800  -22.3910   24.4340 N.3   295  PHE295     -0.1241
     41  CA       -29.1420  -22.8420   23.2160 C.3   295  PHE295      0.1605
     42  C        -28.1850  -23.5820   22.2930 C.2   295  PHE295      0.2264
     43  O        -27.1600  -23.0540   21.9440 O.2   295  PHE295     -0.2867
     44  CB       -29.6820  -21.6110   22.4690 C.3   295  PHE295      0.0534
     45  CG       -30.3850  -21.9170   21.1650 C.ar  295  PHE295     -0.0203
     46  CD1      -31.4180  -22.8300   21.1130 C.ar  295  PHE295     -0.0042
     47  CD2      -30.0430  -21.2070   20.0030 C.ar  295  PHE295     -0.0042
     48  CE1      -32.1210  -23.0520   19.8920 C.ar  295  PHE295     -0.0003
     49  CE2      -30.6940  -21.4290   18.8040 C.ar  295  PHE295     -0.0003
     50  CZ       -31.7480  -22.3670   18.7440 C.ar  295  PHE295     -0.0000
     51  N        -28.3830  -24.6810   18.5890 N.3   297  ASN297     -0.1225
     52  CA       -29.0630  -24.5680   17.3190 C.3   297  ASN297      0.1785
     53  C        -28.6460  -25.6930   16.3920 C.2   297  ASN297      0.2597
     54  O        -27.5530  -26.2740   16.5350 O.2   297  ASN297     -0.2718
     55  CB       -28.7160  -23.2070   16.6610 C.3   297  ASN297      0.1169
     56  CG       -29.8240  -22.7210   15.7100 C.2   297  ASN297      0.2627
     57  OD1      -30.7910  -23.4480   15.4560 O.2   297  ASN297     -0.2716
     58  ND2      -29.6930  -21.5040   15.2130 N.am  297  ASN297     -0.0877
     59  N        -29.5010  -26.0010   15.4310 N.am  298  LYS298     -0.1966
     60  CA       -29.0780  -26.8270   14.3000 C.3   298  LYS298      0.1728
     61  C        -28.3940  -25.9200   13.2480 C.2   298  LYS298      0.2617
     62  O        -28.8340  -24.7940   13.0050 O.2   298  LYS298     -0.2715
     63  CB       -30.2540  -27.5670   13.7170 C.3   298  LYS298      0.0311
     64  CG       -30.6490  -28.8170   14.5170 C.3   298  LYS298      0.0038
     65  CD       -31.8980  -29.5060   13.9380 C.3   298  LYS298      0.0206
     66  CE       -31.8110  -29.7540   12.4250 C.3   298  LYS298      0.1093
     67  NZ       -30.6620  -30.5770   12.0080 N.3   298  LYS298     -0.1314
     68  N        -27.2980  -26.4010   12.6750 N.am  299  THR299     -0.1937
     69  CA       -26.5860  -25.7010   11.6190 C.3   299  THR299      0.2028
     70  C        -26.9560  -26.2690   10.2460 C.2   299  THR299      0.2642
     71  O        -26.6700  -25.6420    9.2320 O.2   299  THR299     -0.2714
     72  CB       -25.0900  -25.8760   11.8010 C.3   299  THR299      0.1808
     73  OG1      -24.8050  -27.2780   11.7560 O.3   299  THR299     -0.2208
     74  CG2      -24.5980  -25.2760   13.1790 C.3   299  THR299      0.0379
     75  N        -27.5670  -27.4580   10.2340 N.am  300  LYS300     -0.1977
     76  CA       -28.0830  -28.1090    9.0210 C.3   300  LYS300      0.1596
     77  C        -29.5990  -28.2620    9.0950 C.2   300  LYS300      0.2287
     78  O        -30.1780  -28.1020   10.1470 O.2   300  LYS300     -0.2864
     79  CB       -27.5130  -29.5270    8.9030 C.3   300  LYS300      0.0298
     80  CG       -26.0010  -29.6440    9.0170 C.3   300  LYS300      0.0038
     81  CD       -25.5280  -31.0010    8.4710 C.3   300  LYS300      0.0206
     82  CE       -24.1410  -31.3840    8.9650 C.3   300  LYS300      0.1093
     83  NZ       -24.1940  -31.5300   10.4630 N.3   300  LYS300     -0.1314
@<TRIPOS>BOND
     1    81    82    1
     2    81    80    1
     3    79    80    1
     4    79    76    1
     5    82    83    1
     6    76    77    1
     7    76    75    1
     8    77    78    2
     9    71    70    2
    10    75    70   am
    11    70    69    1
    12    69    72    1
    13    69    68    1
    14    73    72    1
    15    72    74    1
    16    67    66    1
    17    66    65    1
    18    68    61   am
    19    62    61    2
    20    61    60    1
    21    63    60    1
    22    63    64    1
    23    65    64    1
    24    60    59    1
    25    10    11    1
    26    58    56   am
    27    14    11    1
    28    14    15    1
    29    59    53   am
    30    57    56    2
    31     9     7   am
    32    56    55    1
    33    11    12    1
    34    15    17   ar
    35    15    16   ar
    36     6     7    1
    37     6     5    1
    38     7     8    2
    39    53    54    2
    40    53    52    1
    41    55    52    1
    42     5     2    1
    43    12    13    2
    44    30    28   am
    45    52    51    1
    46     4     3    2
    47     3     2    1
    48    28    27    1
    49    28    29    2
    50     2     1    1
    51    27    26    1
    52    50    49   ar
    53    50    48   ar
    54    49    47   ar
    55    19    18    1
    56    19    20    1
    57    48    46   ar
    58    47    45   ar
    59    26    23    1
    60    22    20   am
    61    22    23    1
    62    20    21    2
    63    23    24    1
    64    39    38    1
    65    46    45   ar
    66    45    44    1
    67    43    42    2
    68    24    25    2
    69    42    41    1
    70    38    37    1
    71    44    41    1
    72    41    40    1
    73    37    36    1
    74    36    35    1
    75    32    31    1
    76    32    35    1
    77    32    33    1
    78    33    34    2
