@<TRIPOS>MOLECULE
tmp/3i1lA00.pdb
 148 141 0 0 0
SMALL
GASTEIGER

@<TRIPOS>ATOM
      1  N        -12.0160   -0.6290   17.0140 N.3    94  TYR94      -0.1227
      2  CA       -11.1670   -1.6010   17.6800 C.3    94  TYR94       0.1736
      3  C        -10.4420   -0.9300   18.8460 C.2    94  TYR94       0.2595
      4  O        -11.0730   -0.1640   19.5790 O.2    94  TYR94      -0.2718
      5  CB       -10.2830   -2.3560   16.6770 C.3    94  TYR94       0.0548
      6  CG       -11.1060   -3.4070   15.9640 C.ar   94  TYR94      -0.0200
      7  CD1      -11.8970   -3.0730   14.8650 C.ar   94  TYR94      -0.0009
      8  CD2      -11.1550   -4.7170   16.4340 C.ar   94  TYR94      -0.0009
      9  CE1      -12.6940   -4.0230   14.2350 C.ar   94  TYR94       0.0417
     10  CE2      -11.9440   -5.6740   15.8080 C.ar   94  TYR94       0.0417
     11  CZ       -12.7150   -5.3200   14.7100 C.ar   94  TYR94       0.1957
     12  OH       -13.5030   -6.2600   14.0820 O.3    94  TYR94      -0.2866
     13  N         -9.1540   -1.1930   19.0390 N.am   95  GLN95      -0.1979
     14  CA        -8.4520   -0.6350   20.2030 C.3    95  GLN95       0.1601
     15  C         -7.7150    0.6680   19.9070 C.2    95  GLN95       0.2287
     16  O         -6.8120    1.0500   20.6560 O.2    95  GLN95      -0.2864
     17  CB        -7.4810   -1.6520   20.8050 C.3    95  GLN95       0.0394
     18  CG        -8.1320   -2.8770   21.3980 C.3    95  GLN95       0.0908
     19  CD        -8.2790   -4.0060   20.3990 C.2    95  GLN95       0.2608
     20  OE1       -7.3160   -4.3960   19.7300 O.2    95  GLN95      -0.2717
     21  NE2       -9.4900   -4.5450   20.2980 N.am   95  GLN95      -0.0878
     22  N        -19.6470  -11.5300    4.8590 N.3   137  ARG137     -0.1245
     23  CA       -20.1450  -10.8300    6.0370 C.3   137  ARG137      0.1563
     24  C        -19.7060   -9.3780    5.9920 C.2   137  ARG137      0.2260
     25  O        -18.5720   -9.0830    5.6040 O.2   137  ARG137     -0.2867
     26  CB       -19.5620  -11.4480    7.3090 C.3   137  ARG137      0.0307
     27  CG       -20.5510  -12.1810    8.1980 C.3   137  ARG137      0.0489
     28  CD       -19.8990  -12.6480    9.5010 C.3   137  ARG137      0.2205
     29  NE       -18.5620  -13.2130    9.2970 N.pl3 137  ARG137     -0.0865
     30  CZ       -17.4680  -12.8210    9.9480 C.cat 137  ARG137      0.5346
     31  NH1      -17.5350  -11.8700   10.8760 N.pl3 137  ARG137      0.1354
     32  NH2      -16.2990  -13.3980    9.6850 N.pl3 137  ARG137      0.1354
     33  N        -18.2730   -6.2160    7.8880 N.3   139  GLY139     -0.1210
     34  CA       -17.4230   -6.0100    9.0580 C.3   139  GLY139      0.1956
     35  C        -18.1940   -5.3840   10.2100 C.2   139  GLY139      0.2612
     36  O        -19.2150   -4.7280   10.0000 O.2   139  GLY139     -0.2717
     37  N        -17.7060   -5.6030   11.4300 N.am  140  THR140     -0.1952
     38  CA       -18.3360   -5.0860   12.6540 C.3   140  THR140      0.1897
     39  C        -17.2690   -4.6040   13.6370 C.2   140  THR140      0.2313
     40  O        -16.1180   -5.0310   13.5620 O.2   140  THR140     -0.2863
     41  CB       -19.2100   -6.1600   13.3530 C.3   140  THR140      0.1794
     42  OG1      -18.4540   -7.3640   13.5200 O.3   140  THR140     -0.2208
     43  CG2      -20.4780   -6.4680   12.5500 C.3   140  THR140      0.0378
     44  N        -15.7050   -4.2910   17.5220 N.3   142  VAL142     -0.1245
     45  CA       -15.7330   -4.8530   18.8750 C.3   142  VAL142      0.1561
     46  C        -15.8380   -3.7430   19.9140 C.2   142  VAL142      0.2260
     47  O        -16.3180   -3.9670   21.0300 O.2   142  VAL142     -0.2867
     48  CB       -14.5290   -5.7820   19.1990 C.3   142  VAL142      0.0252
     49  CG1      -14.4280   -6.8940   18.1890 C.3   142  VAL142      0.0019
     50  CG2      -13.2280   -5.0120   19.2990 C.3   142  VAL142      0.0019
     51  N        -19.2810    0.2910   12.7060 N.3   150  MET150     -0.1245
     52  CA       -18.2070    0.4530   11.7340 C.3   150  MET150      0.1570
     53  C        -18.7910    1.2370   10.5830 C.2   150  MET150      0.2261
     54  O        -19.9350    0.9890   10.2050 O.2   150  MET150     -0.2867
     55  CB       -17.7020   -0.9050   11.2330 C.3   150  MET150      0.0387
     56  CG       -16.4740   -0.8350   10.3210 C.3   150  MET150      0.0595
     57  SD       -15.9850   -2.4330    9.6370 S.3   150  MET150     -0.1393
     58  CE       -15.0190   -3.0710   11.0050 C.3   150  MET150      0.0692
     59  N        -16.5500   -2.4880    4.7160 N.3   156  LEU156     -0.1245
     60  CA       -15.7460   -3.7080    4.8970 C.3   156  LEU156      0.1561
     61  C        -16.5900   -4.9570    4.7020 C.2   156  LEU156      0.2260
     62  O        -17.7730   -4.9840    5.0660 O.2   156  LEU156     -0.2867
     63  CB       -15.0610   -3.7400    6.2760 C.3   156  LEU156      0.0270
     64  CG       -14.1030   -4.8830    6.6640 C.3   156  LEU156      0.0019
     65  CD1      -12.9300   -5.0200    5.7230 C.3   156  LEU156      0.0001
     66  CD2      -13.5630   -4.6830    8.0620 C.3   156  LEU156      0.0001
     67  N        -16.1420   -9.5520    4.7190 N.3   158  ILE158     -0.1245
     68  CA       -15.3610  -10.7260    5.0960 C.3   158  ILE158      0.1561
     69  C        -15.9050  -11.9610    4.3920 C.2   158  ILE158      0.2260
     70  O        -17.0630  -12.3410    4.5860 O.2   158  ILE158     -0.2867
     71  CB       -15.4440  -10.9940    6.6080 C.3   158  ILE158      0.0252
     72  CG1      -15.2080   -9.7140    7.4060 C.3   158  ILE158      0.0019
     73  CG2      -14.4630  -12.0920    7.0000 C.3   158  ILE158      0.0019
     74  CD1      -15.9530   -9.6680    8.7040 C.3   158  ILE158      0.0001
     75  N         -7.5530   -2.1550    9.4400 N.3   190  ILE190     -0.1245
     76  CA        -7.2590   -2.5070   10.8230 C.3   190  ILE190      0.1561
     77  C         -5.8310   -3.0420   10.8940 C.2   190  ILE190      0.2260
     78  O         -5.5140   -4.0520   10.2540 O.2   190  ILE190     -0.2867
     79  CB        -8.2520   -3.5640   11.3480 C.3   190  ILE190      0.0252
     80  CG1       -9.6850   -3.0310   11.2660 C.3   190  ILE190      0.0019
     81  CG2       -7.9030   -3.9610   12.7740 C.3   190  ILE190      0.0019
     82  CD1      -10.7400   -4.1020   11.2560 C.3   190  ILE190      0.0001
     83  N         -5.5170  -11.0380   11.8930 N.3   195  PHE195     -0.1227
     84  CA        -6.8200  -10.8180   12.4990 C.3   195  PHE195      0.1736
     85  C         -7.4790  -12.1460   12.8750 C.2   195  PHE195      0.2595
     86  O         -7.6840  -13.0180   12.0270 O.2   195  PHE195     -0.2718
     87  CB        -7.6890  -10.0560   11.5050 C.3   195  PHE195      0.0547
     88  CG        -8.8340   -9.3320   12.1260 C.ar  195  PHE195     -0.0202
     89  CD1       -8.6770   -8.0340   12.5920 C.ar  195  PHE195     -0.0042
     90  CD2      -10.0800   -9.9390   12.2220 C.ar  195  PHE195     -0.0042
     91  CE1       -9.7430   -7.3500   13.1580 C.ar  195  PHE195     -0.0003
     92  CE2      -11.1530   -9.2660   12.7850 C.ar  195  PHE195     -0.0003
     93  CZ       -10.9860   -7.9680   13.2500 C.ar  195  PHE195     -0.0000
     94  N         -7.8100  -12.2850   14.1540 N.am  196  GLU196     -0.1965
     95  CA        -8.3340  -13.5300   14.7090 C.3   196  GLU196      0.1733
     96  C         -9.8230  -13.6670   14.4320 C.2   196  GLU196      0.2616
     97  O        -10.6180  -12.8500   14.8950 O.2   196  GLU196     -0.2715
     98  CB        -8.0790  -13.5570   16.2200 C.3   196  GLU196      0.0429
     99  CG        -8.6150  -14.7760   16.9520 C.3   196  GLU196      0.1163
    100  CD        -7.5980  -15.8920   17.0740 C.2   196  GLU196      0.3649
    101  OE1       -7.9590  -16.9620   17.6170 O.co2 196  GLU196     -0.2457
    102  OE2       -6.4430  -15.7060   16.6350 O.co2 196  GLU196     -0.2457
    103  N        -10.1960  -14.6950   13.6710 N.am  197  MET197     -0.1963
    104  CA       -11.6060  -15.0300   13.4440 C.3   197  MET197      0.1736
    105  C        -11.8120  -16.5340   13.5130 C.2   197  MET197      0.2617
    106  O        -11.1590  -17.2940   12.7810 O.2   197  MET197     -0.2715
    107  CB       -12.1120  -14.5090   12.1000 C.3   197  MET197      0.0427
    108  CG       -12.0440  -12.9980   11.9170 C.3   197  MET197      0.0599
    109  SD       -12.7840  -12.4750   10.3660 S.3   197  MET197     -0.1393
    110  CE       -12.1780  -13.7600    9.2730 C.3   197  MET197      0.0692
    111  N        -12.7280  -16.9360   14.3990 N.am  198  SER198     -0.1950
    112  CA       -13.0670  -18.3390   14.6800 C.3   198  SER198      0.1924
    113  C        -11.8310  -19.1960   14.8920 C.2   198  SER198      0.2314
    114  O        -11.7110  -20.2710   14.3120 O.2   198  SER198     -0.2863
    115  CB       -13.9500  -18.9350   13.5760 C.3   198  SER198      0.2116
    116  OG       -15.0680  -18.1070   13.3180 O.3   198  SER198     -0.2180
    117  N         -4.5240   -9.6670    7.2870 N.3   204  PHE204     -0.1241
    118  CA        -5.4670   -8.5910    7.0290 C.3   204  PHE204      0.1605
    119  C         -4.9020   -7.6600    5.9860 C.2   204  PHE204      0.2264
    120  O         -3.7990   -7.1350    6.1430 O.2   204  PHE204     -0.2867
    121  CB        -5.7740   -7.7980    8.2980 C.3   204  PHE204      0.0534
    122  CG        -6.8810   -6.7920    8.1270 C.ar  204  PHE204     -0.0203
    123  CD1       -8.1850   -7.1030    8.5040 C.ar  204  PHE204     -0.0042
    124  CD2       -6.6250   -5.5350    7.5840 C.ar  204  PHE204     -0.0042
    125  CE1       -9.2130   -6.1740    8.3430 C.ar  204  PHE204     -0.0003
    126  CE2       -7.6480   -4.6070    7.4100 C.ar  204  PHE204     -0.0003
    127  CZ        -8.9410   -4.9280    7.7910 C.ar  204  PHE204     -0.0000
    128  N         -5.1250   -3.9180   17.8080 N.3   226  HIS226     -0.1241
    129  CA        -5.7070   -3.5770   16.5030 C.3   226  HIS226      0.1621
    130  C         -6.2620   -2.1590   16.5070 C.2   226  HIS226      0.2264
    131  O         -6.9420   -1.7630   17.4570 O.2   226  HIS226     -0.2867
    132  CB        -6.8390   -4.5430   16.1320 C.3   226  HIS226      0.0745
    133  CG        -6.4100   -5.9720   16.0010 C.ar  226  HIS226      0.0817
    134  ND1       -5.4370   -6.3820   15.1150 N.ar  226  HIS226     -0.2268
    135  CD2       -6.8460   -7.0920   16.6240 C.ar  226  HIS226      0.1154
    136  CE1       -5.2750   -7.6890   15.2120 C.ar  226  HIS226      0.1986
    137  NE2       -6.1210   -8.1450   16.1190 N.ar  226  HIS226     -0.2212
    138  N        -10.4470  -10.4740    3.4090 N.3   248  PHE248     -0.1241
    139  CA       -11.0770   -9.1630    3.6460 C.3   248  PHE248      0.1605
    140  C        -11.1140   -8.2810    2.4040 C.2   248  PHE248      0.2264
    141  O        -10.2930   -8.4430    1.4950 O.2   248  PHE248     -0.2867
    142  CB       -10.3540   -8.4000    4.7770 C.3   248  PHE248      0.0534
    143  CG       -10.2430   -9.1740    6.0560 C.ar  248  PHE248     -0.0203
    144  CD1       -9.0780   -9.8870    6.3540 C.ar  248  PHE248     -0.0042
    145  CD2      -11.3030   -9.2060    6.9600 C.ar  248  PHE248     -0.0042
    146  CE1       -8.9700  -10.6160    7.5340 C.ar  248  PHE248     -0.0003
    147  CE2      -11.2060   -9.9360    8.1450 C.ar  248  PHE248     -0.0003
    148  CZ       -10.0370  -10.6460    8.4320 C.ar  248  PHE248     -0.0000
@<TRIPOS>BOND
     1   141   140    2
     2   140   139    1
     3   138   139    1
     4   139   142    1
     5    69    70    2
     6    69    68    1
     7    61    60    1
     8    61    62    2
     9    59    60    1
    10    67    68    1
    11   142   143    1
    12    22    23    1
    13    60    63    1
    14    68    71    1
    15    25    24    2
    16    65    64    1
    17   119   120    2
    18   119   118    1
    19    24    23    1
    20    23    26    1
    21   143   144   ar
    22   143   145   ar
    23    63    64    1
    24   144   146   ar
    25    71    73    1
    26    71    72    1
    27    64    66    1
    28   145   147   ar
    29   118   117    1
    30   118   121    1
    31    26    27    1
    32    72    74    1
    33   126   124   ar
    34   126   127   ar
    35   146   148   ar
    36   124   122   ar
    37   127   125   ar
    38    33    34    1
    39   122   121    1
    40   122   123   ar
    41   147   148   ar
    42    27    28    1
    43   125   123   ar
    44    34    35    1
    45   110   109    1
    46    29    28    1
    47    29    30    2
    48    75    76    1
    49    57    56    1
    50    57    58    1
    51    32    30    1
    52    30    31    1
    53    36    35    2
    54    54    53    2
    55    35    37   am
    56    78    77    2
    57    56    55    1
    58   109   108    1
    59    53    52    1
    60    76    77    1
    61    76    79    1
    62    55    52    1
    63    82    80    1
    64    80    79    1
    65    79    81    1
    66    37    38    1
    67    87    88    1
    68    87    84    1
    69    52    51    1
    70    83    84    1
    71   108   107    1
    72    86    85    2
    73   107   104    1
    74    88    90   ar
    75    88    89   ar
    76    90    92   ar
    77    84    85    1
    78    43    41    1
    79    89    91   ar
    80    38    41    1
    81    38    39    1
    82   106   105    2
    83    92    93   ar
    84    85    94   am
    85    91    93   ar
    86   116   115    1
    87    41    42    1
    88   104   105    1
    89   104   103    1
    90   105   111   am
    91    40    39    2
    92   115   112    1
    93   103    96   am
    94    12    11    1
    95    94    95    1
    96     9    11   ar
    97     9     7   ar
    98   114   113    2
    99   111   112    1
   100    96    95    1
   101    96    97    2
   102   112   113    1
   103    95    98    1
   104    11    10   ar
   105     7     6   ar
   106   134   136   ar
   107   134   133   ar
   108   136   137   ar
   109    10     8   ar
   110     6     8   ar
   111     6     5    1
   112   133   132    1
   113   133   135   ar
   114   137   135   ar
   115   132   129    1
   116    98    99    1
   117   129   130    1
   118   129   128    1
   119   130   131    2
   120   102   100   ar
   121     5     2    1
   122    99   100    1
   123     1     2    1
   124   100   101   ar
   125    44    45    1
   126     2     3    1
   127    49    48    1
   128     3    13   am
   129     3     4    2
   130    45    48    1
   131    45    46    1
   132    13    14    1
   133    48    50    1
   134    20    19    2
   135    15    14    1
   136    15    16    2
   137    46    47    2
   138    14    17    1
   139    21    19   am
   140    19    18    1
   141    17    18    1
