@<TRIPOS>MOLECULE
tmp/3i1uA00.pdb
 171 163 0 0 0
SMALL
GASTEIGER

@<TRIPOS>ATOM
      1  N          2.9120   11.5840    4.3750 N.3    67  HIS67      -0.1241
      2  CA         1.9550   10.8620    3.5370 C.3    67  HIS67       0.1621
      3  C          0.5600   11.2900    3.9650 C.2    67  HIS67       0.2264
      4  O          0.1150   11.0210    5.0840 O.2    67  HIS67      -0.2867
      5  CB         2.1340    9.3500    3.6950 C.3    67  HIS67       0.0745
      6  CG         3.3610    8.8130    3.0310 C.ar   67  HIS67       0.0817
      7  ND1        4.0520    7.7230    3.5170 N.ar   67  HIS67      -0.2268
      8  CD2        4.0230    9.2150    1.9240 C.ar   67  HIS67       0.1154
      9  CE1        5.0880    7.4760    2.7330 C.ar   67  HIS67       0.1986
     10  NE2        5.0910    8.3690    1.7600 N.ar   67  HIS67      -0.2212
     11  N         -2.5050    9.4700    5.9390 N.3    70  GLU70      -0.1245
     12  CA        -2.2510    8.9100    7.2730 C.3    70  GLU70       0.1567
     13  C         -2.7560    9.8670    8.3590 C.2    70  GLU70       0.2260
     14  O         -1.9890   10.3880    9.1790 O.2    70  GLU70      -0.2867
     15  CB        -0.7650    8.5910    7.4100 C.3    70  GLU70       0.0388
     16  CG        -0.2960    7.5720    6.3680 C.3    70  GLU70       0.1160
     17  CD         1.2080    7.4120    6.3070 C.2    70  GLU70       0.3649
     18  OE1        1.9230    7.9390    7.1850 O.co2  70  GLU70      -0.2457
     19  OE2        1.6710    6.7340    5.3660 O.co2  70  GLU70      -0.2457
     20  N         -1.5380    9.7780   -1.2110 N.3   125  ARG125     -0.1245
     21  CA        -0.2800    9.5550   -0.4740 C.3   125  ARG125      0.1563
     22  C          0.8050   10.5880   -0.8040 C.2   125  ARG125      0.2260
     23  O          1.4980   11.0890    0.0850 O.2   125  ARG125     -0.2867
     24  CB         0.2470    8.1500   -0.8050 C.3   125  ARG125      0.0307
     25  CG         1.6720    7.8050   -0.3170 C.3   125  ARG125      0.0489
     26  CD         2.1110    6.4820   -0.9620 C.3   125  ARG125      0.2205
     27  NE         3.4630    6.0380   -0.6190 N.pl3 125  ARG125     -0.0865
     28  CZ         3.7830    5.3080    0.4480 C.cat 125  ARG125      0.5346
     29  NH1        2.8600    4.9650    1.3460 N.pl3 125  ARG125      0.1354
     30  NH2        5.0450    4.9350    0.6330 N.pl3 125  ARG125      0.1354
     31  N          8.4930   10.3130    0.8860 N.3   142  ASN142     -0.1225
     32  CA         9.3870    9.4240    1.6370 C.3   142  ASN142      0.1785
     33  C         10.1900    8.4370    0.7750 C.2   142  ASN142      0.2597
     34  O         10.6950    7.4350    1.2930 O.2   142  ASN142     -0.2718
     35  CB         8.6970    8.7010    2.8040 C.3   142  ASN142      0.1169
     36  CG         9.6750    8.3810    3.9280 C.2   142  ASN142      0.2627
     37  OD1       10.6080    9.1570    4.1880 O.2   142  ASN142     -0.2716
     38  ND2        9.4600    7.2540    4.6050 N.am  142  ASN142     -0.0877
     39  N         10.3250    8.7540   -0.5180 N.am  143  ARG143     -0.1979
     40  CA        11.2930    8.0830   -1.4020 C.3   143  ARG143      0.1597
     41  C         12.2230    9.1060   -2.0790 C.2   143  ARG143      0.2287
     42  O         13.0180    8.7530   -2.9550 O.2   143  ARG143     -0.2864
     43  CB        10.5840    7.2330   -2.4710 C.3   143  ARG143      0.0334
     44  CG         9.7100    6.0870   -1.9480 C.3   143  ARG143      0.0492
     45  CD        10.4930    5.0270   -1.1700 C.3   143  ARG143      0.2205
     46  NE         9.6140    3.9350   -0.7530 N.pl3 143  ARG143     -0.0865
     47  CZ         8.8570    3.9670    0.3440 C.cat 143  ARG143      0.5346
     48  NH1        8.9010    5.0250    1.1560 N.pl3 143  ARG143      0.1354
     49  NH2        8.0670    2.9420    0.6300 N.pl3 143  ARG143      0.1354
     50  N          4.4270    8.1870   10.7880 N.3   194  HIS194     -0.1226
     51  CA         3.5390    7.6270    9.7780 C.3   194  HIS194      0.1752
     52  C          2.4800    6.7400   10.4520 C.2   194  HIS194      0.2597
     53  O          2.5670    6.4380   11.6510 O.2   194  HIS194     -0.2718
     54  CB         4.3250    6.7150    8.8310 C.3   194  HIS194      0.0759
     55  CG         5.2650    7.4210    7.8950 C.ar  194  HIS194      0.0818
     56  ND1        5.1250    7.3670    6.5240 N.ar  194  HIS194     -0.2268
     57  CD2        6.3830    8.1520    8.1300 C.ar  194  HIS194      0.1154
     58  CE1        6.1060    8.0440    5.9520 C.ar  194  HIS194      0.1986
     59  NE2        6.8860    8.5270    6.9040 N.ar  194  HIS194     -0.2212
     60  N          1.4980    6.3190    9.6560 N.am  195  SER195     -0.1938
     61  CA         0.6950    5.1310    9.9720 C.3   195  SER195      0.2055
     62  C          0.5460    4.2890    8.6940 C.2   195  SER195      0.2643
     63  O          0.8090    4.7950    7.6050 O.2   195  SER195     -0.2714
     64  CB        -0.6720    5.5180   10.5430 C.3   195  SER195      0.2130
     65  OG        -1.5590    5.9050    9.5140 O.3   195  SER195     -0.2179
     66  N          0.1630    3.0090    8.7850 N.am  196  TYR196     -0.1973
     67  CA        -0.0810    2.2630   10.0250 C.3   196  TYR196      0.1639
     68  C          0.7890    1.0090   10.0290 C.2   196  TYR196      0.2290
     69  O          1.4660    0.7200    9.0330 O.2   196  TYR196     -0.2864
     70  CB        -1.5640    1.8550   10.1110 C.3   196  TYR196      0.0560
     71  CG        -2.0170    0.9880    8.9570 C.ar  196  TYR196     -0.0198
     72  CD1       -2.4870    1.5630    7.7740 C.ar  196  TYR196     -0.0009
     73  CD2       -1.9590   -0.4020    9.0390 C.ar  196  TYR196     -0.0009
     74  CE1       -2.9070    0.7680    6.6980 C.ar  196  TYR196      0.0417
     75  CE2       -2.3580   -1.2020    7.9660 C.ar  196  TYR196      0.0417
     76  CZ        -2.8370   -0.6100    6.8030 C.ar  196  TYR196      0.1957
     77  OH        -3.2540   -1.3830    5.7440 O.3   196  TYR196     -0.2866
     78  N         10.7960    2.0410   13.8700 N.3   201  LEU201     -0.1245
     79  CA        11.8090    1.6850   12.8870 C.3   201  LEU201      0.1561
     80  C         13.0270    2.5750   13.0030 C.2   201  LEU201      0.2260
     81  O         12.9110    3.7820   13.2220 O.2   201  LEU201     -0.2867
     82  CB        11.2290    1.8350   11.4770 C.3   201  LEU201      0.0270
     83  CG         9.9300    1.0850   11.1850 C.3   201  LEU201      0.0019
     84  CD1        9.3790    1.5160    9.8290 C.3   201  LEU201      0.0001
     85  CD2       10.1440   -0.4130   11.2450 C.3   201  LEU201      0.0001
     86  N         14.1710   -0.6380    9.2260 N.3   241  ILE241     -0.1245
     87  CA        13.1420   -0.5420    8.2000 C.3   241  ILE241      0.1561
     88  C         13.1160   -1.8090    7.3470 C.2   241  ILE241      0.2260
     89  O         12.0660   -2.4390    7.1850 O.2   241  ILE241     -0.2867
     90  CB        13.3620    0.6870    7.2910 C.3   241  ILE241      0.0252
     91  CG1       13.3190    1.9950    8.0960 C.3   241  ILE241      0.0019
     92  CG2       12.3450    0.7070    6.1350 C.3   241  ILE241      0.0019
     93  CD1       14.1350    3.1160    7.4550 C.3   241  ILE241      0.0001
     94  N          9.5970   -3.7440    8.1010 N.3   245  ILE245     -0.1231
     95  CA         8.4600   -3.4180    7.2260 C.3   245  ILE245      0.1692
     96  C          8.7100   -3.8830    5.7820 C.2   245  ILE245      0.2592
     97  O          8.0000   -4.7670    5.2850 O.2   245  ILE245     -0.2718
     98  CB         7.9640   -1.9250    7.3650 C.3   245  ILE245      0.0266
     99  CG1        6.6030   -1.7350    6.6720 C.3   245  ILE245      0.0019
    100  CG2        9.0100   -0.9200    6.8610 C.3   245  ILE245      0.0020
    101  CD1        5.9060   -0.4210    6.9870 C.3   245  ILE245      0.0001
    102  N          9.7160   -3.3050    5.1240 N.am  246  TYR246     -0.1976
    103  CA        10.1150   -3.6750    3.7570 C.3   246  TYR246      0.1639
    104  C         11.3130   -2.8500    3.3170 C.2   246  TYR246      0.2290
    105  O         11.6400   -1.8400    3.9390 O.2   246  TYR246     -0.2864
    106  CB         8.9710   -3.5130    2.7290 C.3   246  TYR246      0.0560
    107  CG         8.0760   -2.2890    2.8790 C.ar  246  TYR246     -0.0198
    108  CD1        6.7000   -2.4430    3.0580 C.ar  246  TYR246     -0.0009
    109  CD2        8.5900   -0.9940    2.8310 C.ar  246  TYR246     -0.0009
    110  CE1        5.8580   -1.3440    3.1840 C.ar  246  TYR246      0.0417
    111  CE2        7.7570    0.1170    2.9640 C.ar  246  TYR246      0.0417
    112  CZ         6.3940   -0.0700    3.1460 C.ar  246  TYR246      0.1957
    113  OH         5.5620    1.0190    3.2780 O.3   246  TYR246     -0.2866
    114  N         12.9820   -0.0640    1.3070 N.3   248  ALA248     -0.1245
    115  CA        12.5010    1.2390    0.8640 C.3   248  ALA248      0.1562
    116  C         13.7040    2.1470    0.7060 C.2   248  ALA248      0.2260
    117  O         14.5250    2.2410    1.6150 O.2   248  ALA248     -0.2867
    118  CB        11.5360    1.8250    1.8870 C.3   248  ALA248      0.0290
    119  N         14.3970    7.0530    1.9330 N.3   251  GLY251     -0.1210
    120  CA        13.6070    7.3610    3.1360 C.3   251  GLY251      0.1956
    121  C         14.2960    8.3670    4.0390 C.2   251  GLY251      0.2613
    122  O         15.5360    8.4230    4.1060 O.2   251  GLY251     -0.2717
    123  N         13.5010    9.1580    4.7530 N.am  252  SER252     -0.1938
    124  CA        14.0410   10.3220    5.4480 C.3   252  SER252      0.2055
    125  C         15.0110   10.0120    6.5980 C.2   252  SER252      0.2643
    126  O         16.0210   10.7110    6.7620 O.2   252  SER252     -0.2714
    127  CB        12.9140   11.2400    5.9080 C.3   252  SER252      0.2130
    128  OG        12.1550   10.6510    6.9460 O.3   252  SER252     -0.2179
    129  N         14.7290    8.9750    7.3840 N.am  253  ILE253     -0.1963
    130  CA        15.6130    8.6530    8.5160 C.3   253  ILE253      0.1727
    131  C         16.9480    8.0380    8.0840 C.2   253  ILE253      0.2616
    132  O         17.9370    8.0990    8.8320 O.2   253  ILE253     -0.2715
    133  CB        14.9370    7.8110    9.6360 C.3   253  ILE253      0.0290
    134  CG1       14.5260    6.4180    9.1420 C.3   253  ILE253      0.0022
    135  CG2       13.7840    8.5940   10.2750 C.3   253  ILE253      0.0023
    136  CD1       14.2910    5.4490   10.2910 C.3   253  ILE253      0.0001
    137  N         16.9840    7.4540    6.8890 N.am  254  ASP254     -0.1971
    138  CA        18.2500    6.9760    6.3350 C.3   254  ASP254      0.1709
    139  C         19.1150    8.1810    5.9890 C.2   254  ASP254      0.2293
    140  O         20.3100    8.1830    6.2860 O.2   254  ASP254     -0.2864
    141  CB        18.0300    6.0770    5.1180 C.3   254  ASP254      0.1436
    142  CG        17.4710    4.7110    5.4830 C.2   254  ASP254      0.3671
    143  OD1       17.3370    4.4030    6.6850 O.co2 254  ASP254     -0.2456
    144  OD2       17.1650    3.9450    4.5410 O.co2 254  ASP254     -0.2456
    145  N         11.4710    6.1940   12.7110 N.3   266  THR266     -0.1218
    146  CA        10.1370    6.3790   12.1350 C.3   266  THR266      0.1862
    147  C          9.1130    5.5250   12.8830 C.2   266  THR266      0.2287
    148  O          9.2960    4.3050   13.0390 O.2   266  THR266     -0.2866
    149  CB        10.1090    6.0180   10.6280 C.3   266  THR266      0.1770
    150  OG1       10.9650    6.9140    9.9070 O.3   266  THR266     -0.2211
    151  CG2        8.6950    6.1250   10.0480 C.3   266  THR266      0.0375
    152  N          5.3130    3.8840   12.9960 N.3   268  GLU268     -0.1245
    153  CA         4.0960    3.4940   12.2900 C.3   268  GLU268      0.1567
    154  C          3.0020    3.3090   13.3400 C.2   268  GLU268      0.2260
    155  O          3.0430    2.3500   14.1100 O.2   268  GLU268     -0.2867
    156  CB         4.2990    2.1880   11.5240 C.3   268  GLU268      0.0388
    157  CG         5.2230    2.3090   10.3160 C.3   268  GLU268      0.1160
    158  CD         4.5880    3.0090    9.1410 C.2   268  GLU268      0.3649
    159  OE1        3.4740    3.5710    9.2730 O.co2 268  GLU268     -0.2457
    160  OE2        5.2280    3.0000    8.0620 O.co2 268  GLU268     -0.2457
    161  N         -5.8680    3.0530    7.2200 N.3   277  PHE277     -0.1241
    162  CA        -5.7960    4.5140    7.1010 C.3   277  PHE277      0.1605
    163  C         -7.0390    5.2010    7.6480 C.2   277  PHE277      0.2264
    164  O         -6.9940    6.3810    8.0350 O.2   277  PHE277     -0.2867
    165  CB        -5.5640    4.9270    5.6440 C.3   277  PHE277      0.0534
    166  CG        -4.3270    4.3260    5.0460 C.ar  277  PHE277     -0.0203
    167  CD1       -3.0680    4.6200    5.5730 C.ar  277  PHE277     -0.0042
    168  CD2       -4.4190    3.4480    3.9790 C.ar  277  PHE277     -0.0042
    169  CE1       -1.9210    4.0510    5.0340 C.ar  277  PHE277     -0.0003
    170  CE2       -3.2670    2.8710    3.4290 C.ar  277  PHE277     -0.0003
    171  CZ        -2.0210    3.1760    3.9610 C.ar  277  PHE277     -0.0000
@<TRIPOS>BOND
     1    42    41    2
     2    43    44    1
     3    43    40    1
     4    41    40    1
     5    44    45    1
     6    40    39    1
     7    20    21    1
     8    45    46    1
     9    26    27    1
    10    26    25    1
    11    24    21    1
    12    24    25    1
    13    22    21    1
    14    22    23    2
    15    46    47    2
    16    27    28    2
    17    39    33   am
    18    47    49    1
    19    47    48    1
    20    28    30    1
    21    28    29    1
    22   116   115    1
    23   116   117    2
    24    33    34    2
    25    33    32    1
    26   115   114    1
    27   115   118    1
    28    31    32    1
    29    32    35    1
    30    10     8   ar
    31    10     9   ar
    32     8     6   ar
    33   119   120    1
    34   106   107    1
    35   106   103    1
    36     9     7   ar
    37    35    36    1
    38   109   107   ar
    39   109   111   ar
    40   107   108   ar
    41   111   112   ar
    42     6     7   ar
    43     6     5    1
    44   108   110   ar
    45   120   121    1
    46   112   110   ar
    47   112   113    1
    48   104   103    1
    49   104   105    2
    50   170   171   ar
    51   170   168   ar
    52     2     5    1
    53     2     3    1
    54     2     1    1
    55   103   102    1
    56    36    37    2
    57    36    38   am
    58   171   169   ar
    59     3     4    2
    60   168   166   ar
    61   121   122    2
    62   121   123   am
    63   144   142   ar
    64   123   124    1
    65   169   167   ar
    66   166   167   ar
    67   166   165    1
    68   141   142    1
    69   141   138    1
    70   102    96   am
    71    97    96    2
    72    19    17   ar
    73   124   127    1
    74   124   125    1
    75   142   143   ar
    76   165   162    1
    77    77    76    1
    78    96    95    1
    79   127   128    1
    80    11    12    1
    81    58    56   ar
    82    58    59   ar
    83   139   140    2
    84   139   138    1
    85    92    90    1
    86    17    16    1
    87    17    18   ar
    88   138   137    1
    89    16    15    1
    90    56    55   ar
    91   125   126    2
    92   125   129   am
    93    99   101    1
    94    99    98    1
    95    74    76   ar
    96    74    72   ar
    97    76    75   ar
    98   100    98    1
    99   137   131   am
   100    59    57   ar
   101   162   161    1
   102   162   163    1
   103    89    88    2
   104    95    98    1
   105    95    94    1
   106    12    15    1
   107    12    13    1
   108    90    91    1
   109    90    87    1
   110    88    87    1
   111   129   130    1
   112    93    91    1
   113    63    62    2
   114   163   164    2
   115    72    71   ar
   116    55    57   ar
   117    55    54    1
   118    75    73   ar
   119   160   158   ar
   120   131   130    1
   121   131   132    2
   122    87    86    1
   123    13    14    2
   124   130   133    1
   125    62    66   am
   126    62    61    1
   127    66    67    1
   128    54    51    1
   129    71    73   ar
   130    71    70    1
   131    69    68    2
   132   158   159   ar
   133   158   157    1
   134   134   133    1
   135   134   136    1
   136    65    64    1
   137   133   135    1
   138    60    61    1
   139    60    52   am
   140    51    52    1
   141    51    50    1
   142    84    83    1
   143   150   149    1
   144    61    64    1
   145    67    68    1
   146    67    70    1
   147   151   149    1
   148   157   156    1
   149    52    53    2
   150   149   146    1
   151    83    85    1
   152    83    82    1
   153    82    79    1
   154   156   153    1
   155   146   145    1
   156   146   147    1
   157   153   152    1
   158   153   154    1
   159   147   148    2
   160    79    80    1
   161    79    78    1
   162    80    81    2
   163   154   155    2
