@<TRIPOS>MOLECULE
tmp/3i1yA00.pdb
 208 205 0 0 0
SMALL
GASTEIGER

@<TRIPOS>ATOM
      1  N         68.9500   -9.6020   65.2340 N.3   264  PHE264     -0.1228
      2  CA        69.2610  -11.0190   65.3360 C.3   264  PHE264      0.1721
      3  C         69.6850  -11.3880   66.7490 C.2   264  PHE264      0.2437
      4  O         70.5210  -10.7050   67.3370 O.2   264  PHE264     -0.2733
      5  CB        70.3900  -11.3730   64.3730 C.3   264  PHE264      0.0547
      6  CG        70.8500  -12.7930   64.4850 C.ar  264  PHE264     -0.0202
      7  CD1       71.7860  -13.1590   65.4390 C.ar  264  PHE264     -0.0042
      8  CD2       70.3420  -13.7670   63.6440 C.ar  264  PHE264     -0.0042
      9  CE1       72.2090  -14.4710   65.5490 C.ar  264  PHE264     -0.0003
     10  CE2       70.7620  -15.0820   63.7460 C.ar  264  PHE264     -0.0003
     11  CZ        71.6950  -15.4350   64.7010 C.ar  264  PHE264     -0.0000
     12  N         69.1140  -12.4720   67.3020 N.am  265  PRO265     -0.2729
     13  CA        68.0250  -13.2840   66.7570 C.3   265  PRO265      0.1401
     14  C         66.7870  -13.0380   67.5990 C.2   265  PRO265      0.2269
     15  O         66.6720  -13.6260   68.6730 O.2   265  PRO265     -0.2865
     16  CB        68.5120  -14.7130   67.0140 C.3   265  PRO265      0.0296
     17  CG        69.6980  -14.5820   68.0040 C.3   265  PRO265      0.0237
     18  CD        69.7260  -13.1510   68.4510 C.3   265  PRO265      0.0939
     19  N         69.8960   -3.4070   65.5460 N.3   332  ASP332     -0.1225
     20  CA        70.7880   -4.4730   65.1070 C.3   332  ASP332      0.1805
     21  C         70.7090   -4.6600   63.5920 C.2   332  ASP332      0.2597
     22  O         70.9900   -3.7390   62.8340 O.2   332  ASP332     -0.2718
     23  CB        70.4440   -5.7780   65.8280 C.3   332  ASP332      0.1424
     24  CG        71.4860   -6.8470   65.6120 C.2   332  ASP332      0.3668
     25  OD1       71.1860   -7.8360   64.9070 O.co2 332  ASP332     -0.2456
     26  OD2       72.6100   -6.6820   66.1300 O.co2 332  ASP332     -0.2456
     27  N         70.3220   -5.8510   63.1500 N.am  333  TRP333     -0.1976
     28  CA        70.1690   -6.1030   61.7210 C.3   333  TRP333      0.1640
     29  C         69.0330   -5.2790   61.1350 C.2   333  TRP333      0.2290
     30  O         69.1000   -4.8520   59.9820 O.2   333  TRP333     -0.2864
     31  CB        69.9620   -7.5950   61.4330 C.3   333  TRP333      0.0576
     32  CG        71.2490   -8.3310   61.2130 C.ar  333  TRP333      0.0006
     33  CD1       71.8790   -9.1620   62.0940 C.ar  333  TRP333      0.0946
     34  CD2       72.0750   -8.2840   60.0450 C.ar  333  TRP333      0.0152
     35  NE1       73.0400   -9.6420   61.5430 N.ar  333  TRP333     -0.2442
     36  CE2       73.1850   -9.1200   60.2850 C.ar  333  TRP333      0.0810
     37  CE3       71.9830   -7.6220   58.8170 C.ar  333  TRP333      0.0012
     38  CZ2       74.1980   -9.3120   59.3410 C.ar  333  TRP333      0.0191
     39  CZ3       72.9900   -7.8130   57.8780 C.ar  333  TRP333      0.0001
     40  CH2       74.0830   -8.6500   58.1480 C.ar  333  TRP333      0.0015
     41  N         70.3260   -1.9840   60.2160 N.3   336  MET336     -0.1245
     42  CA        70.9940   -2.0830   58.9240 C.3   336  MET336      0.1570
     43  C         69.9670   -1.9400   57.8120 C.2   336  MET336      0.2261
     44  O         70.1190   -1.1240   56.9020 O.2   336  MET336     -0.2867
     45  CB        71.6840   -3.4400   58.8070 C.3   336  MET336      0.0387
     46  CG        72.6330   -3.5710   57.6350 C.3   336  MET336      0.0595
     47  SD        74.1260   -2.5910   57.8690 S.3   336  MET336     -0.1393
     48  CE        74.5910   -3.0630   59.5310 C.3   336  MET336      0.0692
     49  N         73.0090    0.3140   65.6590 N.3   357  THR357     -0.1218
     50  CA        73.5660    0.0490   64.3390 C.3   357  THR357      0.1862
     51  C         73.8980    1.3270   63.5840 C.2   357  THR357      0.2287
     52  O         73.0040    2.0660   63.1800 O.2   357  THR357     -0.2866
     53  CB        72.6230   -0.8250   63.4900 C.3   357  THR357      0.1770
     54  OG1       72.2440   -1.9780   64.2460 O.3   357  THR357     -0.2211
     55  CG2       73.3110   -1.2780   62.2160 C.3   357  THR357      0.0375
     56  N         83.9930   -9.3690   65.3060 N.3   378  PHE378     -0.1241
     57  CA        83.1420   -9.9570   64.2730 C.3   378  PHE378      0.1605
     58  C         83.5940  -11.3590   63.8750 C.2   378  PHE378      0.2264
     59  O         83.2670  -11.8390   62.7880 O.2   378  PHE378     -0.2867
     60  CB        83.1020   -9.0670   63.0250 C.3   378  PHE378      0.0534
     61  CG        82.3410   -7.7810   63.2110 C.ar  378  PHE378     -0.0203
     62  CD1       81.2300   -7.7270   64.0370 C.ar  378  PHE378     -0.0042
     63  CD2       82.7240   -6.6310   62.5370 C.ar  378  PHE378     -0.0042
     64  CE1       80.5270   -6.5470   64.2020 C.ar  378  PHE378     -0.0003
     65  CE2       82.0250   -5.4490   62.6950 C.ar  378  PHE378     -0.0003
     66  CZ        80.9250   -5.4060   63.5300 C.ar  378  PHE378     -0.0000
     67  N         82.6500  -14.2020   65.1250 N.3   380  TYR380     -0.1227
     68  CA        81.5150  -15.1180   65.0990 C.3   380  TYR380      0.1736
     69  C         80.7350  -15.0370   63.7840 C.2   380  TYR380      0.2595
     70  O         79.8770  -15.8760   63.5080 O.2   380  TYR380     -0.2718
     71  CB        80.5760  -14.8190   66.2670 C.3   380  TYR380      0.0548
     72  CG        79.9370  -13.4540   66.1800 C.ar  380  TYR380     -0.0200
     73  CD1       78.7550  -13.2620   65.4740 C.ar  380  TYR380     -0.0009
     74  CD2       80.5200  -12.3530   66.7920 C.ar  380  TYR380     -0.0009
     75  CE1       78.1690  -12.0140   65.3850 C.ar  380  TYR380      0.0417
     76  CE2       79.9420  -11.1010   66.7100 C.ar  380  TYR380      0.0417
     77  CZ        78.7680  -10.9350   66.0040 C.ar  380  TYR380      0.1957
     78  OH        78.1940   -9.6850   65.9230 O.3   380  TYR380     -0.2866
     79  N         81.0230  -14.0230   62.9770 N.am  381  GLN381     -0.1979
     80  CA        80.3220  -13.8620   61.7100 C.3   381  GLN381      0.1601
     81  C         80.9060  -14.7620   60.6220 C.2   381  GLN381      0.2287
     82  O         80.2350  -15.0810   59.6400 O.2   381  GLN381     -0.2864
     83  CB        80.3050  -12.3930   61.2850 C.3   381  GLN381      0.0394
     84  CG        79.8120  -11.4670   62.3920 C.3   381  GLN381      0.0908
     85  CD        79.4940  -10.0630   61.9130 C.2   381  GLN381      0.2608
     86  OE1       79.7640   -9.7020   60.7680 O.2   381  GLN381     -0.2717
     87  NE2       78.9130   -9.2590   62.7980 N.am  381  GLN381     -0.0878
     88  N         79.2350  -17.9950   61.2870 N.3   384  PHE384     -0.1241
     89  CA        77.8610  -18.0700   60.7910 C.3   384  PHE384      0.1605
     90  C         77.7670  -18.4130   59.3070 C.2   384  PHE384      0.2264
     91  O         76.6960  -18.7660   58.8140 O.2   384  PHE384     -0.2867
     92  CB        77.1020  -16.7660   61.0600 C.3   384  PHE384      0.0534
     93  CG        76.8010  -16.5280   62.5070 C.ar  384  PHE384     -0.0203
     94  CD1       76.9010  -17.5580   63.4260 C.ar  384  PHE384     -0.0042
     95  CD2       76.3940  -15.2790   62.9470 C.ar  384  PHE384     -0.0042
     96  CE1       76.6210  -17.3440   64.7590 C.ar  384  PHE384     -0.0003
     97  CE2       76.1100  -15.0580   64.2820 C.ar  384  PHE384     -0.0003
     98  CZ        76.2240  -16.0930   65.1890 C.ar  384  PHE384     -0.0000
     99  N         72.7790  -23.5700   67.9210 N.3   394  LEU394     -0.1245
    100  CA        71.7850  -22.5870   68.3290 C.3   394  LEU394      0.1561
    101  C         70.4190  -23.2410   68.5290 C.2   394  LEU394      0.2260
    102  O         69.6570  -22.8430   69.4100 O.2   394  LEU394     -0.2867
    103  CB        71.7090  -21.4370   67.3210 C.3   394  LEU394      0.0270
    104  CG        72.9480  -20.5370   67.2970 C.3   394  LEU394      0.0019
    105  CD1       72.9480  -19.6080   66.0890 C.3   394  LEU394      0.0001
    106  CD2       73.0570  -19.7470   68.5930 C.3   394  LEU394      0.0001
    107  N         72.3030  -15.3920   75.5380 N.3   405  LEU405     -0.1245
    108  CA        72.3940  -14.1870   74.7200 C.3   405  LEU405      0.1561
    109  C         71.8140  -12.9610   75.4170 C.2   405  LEU405      0.2260
    110  O         72.5090  -11.9640   75.6220 O.2   405  LEU405     -0.2867
    111  CB        71.6870  -14.3990   73.3820 C.3   405  LEU405      0.0270
    112  CG        72.4120  -15.2770   72.3620 C.3   405  LEU405      0.0019
    113  CD1       71.5440  -15.4970   71.1390 C.3   405  LEU405      0.0001
    114  CD2       73.7450  -14.6530   71.9760 C.3   405  LEU405      0.0001
    115  N         79.1600  -15.1210   77.4900 N.3   414  LEU414     -0.1245
    116  CA        79.6350  -15.5800   76.1880 C.3   414  LEU414      0.1561
    117  C         81.0190  -15.0670   75.8100 C.2   414  LEU414      0.2260
    118  O         81.2810  -13.8640   75.8500 O.2   414  LEU414     -0.2867
    119  CB        78.6450  -15.1890   75.0900 C.3   414  LEU414      0.0270
    120  CG        77.3480  -15.9870   75.0250 C.3   414  LEU414      0.0019
    121  CD1       76.4570  -15.4520   73.9160 C.3   414  LEU414      0.0001
    122  CD2       77.6490  -17.4650   74.8200 C.3   414  LEU414      0.0001
    123  N         82.8630  -14.0750   72.9860 N.3   416  MET416     -0.1245
    124  CA        82.4560  -13.6760   71.6410 C.3   416  MET416      0.1570
    125  C         83.6320  -13.5310   70.6740 C.2   416  MET416      0.2261
    126  O         83.4420  -13.4250   69.4600 O.2   416  MET416     -0.2867
    127  CB        81.6270  -12.3900   71.6970 C.3   416  MET416      0.0387
    128  CG        80.7150  -12.1870   70.4960 C.3   416  MET416      0.0595
    129  SD        79.1200  -11.4780   70.9580 S.3   416  MET416     -0.1393
    130  CE        78.4340  -12.8070   71.9430 C.3   416  MET416      0.0692
    131  N         79.7570  -20.8560   69.5540 N.3   425  LEU425     -0.1245
    132  CA        79.3250  -19.6470   70.2330 C.3   425  LEU425      0.1561
    133  C         79.3210  -19.8720   71.7420 C.2   425  LEU425      0.2260
    134  O         79.6320  -18.9640   72.5130 O.2   425  LEU425     -0.2867
    135  CB        77.9300  -19.2470   69.7390 C.3   425  LEU425      0.0270
    136  CG        77.5570  -17.7610   69.7290 C.3   425  LEU425      0.0019
    137  CD1       77.2420  -17.2670   71.1310 C.3   425  LEU425      0.0001
    138  CD2       78.6530  -16.9200   69.0830 C.3   425  LEU425      0.0001
    139  N         73.2460  -13.2220   57.5010 N.3   463  TYR463     -0.1241
    140  CA        74.7020  -13.0930   57.5620 C.3   463  TYR463      0.1605
    141  C         75.3910  -13.6220   56.3080 C.2   463  TYR463      0.2264
    142  O         76.5910  -13.4220   56.1270 O.2   463  TYR463     -0.2867
    143  CB        75.2630  -13.8600   58.7640 C.3   463  TYR463      0.0534
    144  CG        74.9970  -13.2500   60.1270 C.ar  463  TYR463     -0.0201
    145  CD1       75.9140  -12.3870   60.7170 C.ar  463  TYR463     -0.0009
    146  CD2       73.8480  -13.5650   60.8370 C.ar  463  TYR463     -0.0009
    147  CE1       75.6830  -11.8410   61.9700 C.ar  463  TYR463      0.0417
    148  CE2       73.6060  -13.0260   62.0890 C.ar  463  TYR463      0.0417
    149  CZ        74.5260  -12.1650   62.6490 C.ar  463  TYR463      0.1957
    150  OH        74.2850  -11.6310   63.8910 O.3   463  TYR463     -0.2866
    151  N         77.5420   -1.5440   74.4190 N.3   493  ASP493     -0.1225
    152  CA        77.4440   -2.4730   73.3040 C.3   493  ASP493      0.1805
    153  C         78.8510   -2.6940   72.7720 C.2   493  ASP493      0.2598
    154  O         79.4390   -1.8030   72.1630 O.2   493  ASP493     -0.2718
    155  CB        76.5230   -1.9380   72.2090 C.3   493  ASP493      0.1424
    156  CG        76.1440   -3.0050   71.1980 C.2   493  ASP493      0.3668
    157  OD1       76.9220   -3.9660   71.0250 O.co2 493  ASP493     -0.2456
    158  OD2       75.0670   -2.8870   70.5790 O.co2 493  ASP493     -0.2456
    159  N         79.3910   -3.8830   73.0100 N.am  494  PHE494     -0.1962
    160  CA        80.8060   -4.1320   72.7670 C.3   494  PHE494      0.1771
    161  C         81.1230   -4.6780   71.3780 C.2   494  PHE494      0.2619
    162  O         82.2770   -4.9860   71.0790 O.2   494  PHE494     -0.2715
    163  CB        81.3840   -5.0260   73.8650 C.3   494  PHE494      0.0574
    164  CG        81.3190   -4.4070   75.2360 C.ar  494  PHE494     -0.0200
    165  CD1       80.6660   -5.0500   76.2750 C.ar  494  PHE494     -0.0042
    166  CD2       81.8940   -3.1670   75.4790 C.ar  494  PHE494     -0.0042
    167  CE1       80.6010   -4.4750   77.5400 C.ar  494  PHE494     -0.0003
    168  CE2       81.8320   -2.5860   76.7390 C.ar  494  PHE494     -0.0003
    169  CZ        81.1840   -3.2420   77.7700 C.ar  494  PHE494     -0.0000
    170  N         80.1040   -4.7850   70.5310 N.am  495  VAL495     -0.1963
    171  CA        80.3270   -5.1150   69.1240 C.3   495  VAL495      0.1727
    172  C         79.7830   -4.0200   68.2080 C.2   495  VAL495      0.2616
    173  O         80.4640   -3.5920   67.2750 O.2   495  VAL495     -0.2715
    174  CB        79.7730   -6.5130   68.7420 C.3   495  VAL495      0.0290
    175  CG1       78.9290   -7.0840   69.8620 C.3   495  VAL495      0.0023
    176  CG2       79.0080   -6.4570   67.4220 C.3   495  VAL495      0.0023
    177  N         78.5630   -3.5650   68.4840 N.am  496  LEU496     -0.1977
    178  CA        78.0330   -2.3690   67.8400 C.3   496  LEU496      0.1596
    179  C         78.3670   -1.1660   68.7190 C.2   496  LEU496      0.2287
    180  O         77.4910   -0.5680   69.3480 O.2   496  LEU496     -0.2864
    181  CB        76.5220   -2.4820   67.6120 C.3   496  LEU496      0.0297
    182  CG        76.0230   -3.5840   66.6680 C.3   496  LEU496      0.0022
    183  CD1       74.5050   -3.5820   66.5960 C.3   496  LEU496      0.0001
    184  CD2       76.6220   -3.4380   65.2720 C.3   496  LEU496      0.0001
    185  N         73.7050   -4.3570   74.4390 N.3   521  HIS521     -0.1226
    186  CA        73.3270   -4.5260   73.0450 C.3   521  HIS521      0.1752
    187  C         71.8300   -4.7280   72.8470 C.2   521  HIS521      0.2596
    188  O         71.3050   -4.4680   71.7650 O.2   521  HIS521     -0.2718
    189  CB        74.0740   -5.7090   72.4400 C.3   521  HIS521      0.0759
    190  CG        73.5140   -6.1670   71.1320 C.ar  521  HIS521      0.0818
    191  ND1       73.8980   -5.6220   69.9260 N.ar  521  HIS521     -0.2268
    192  CD2       72.5940   -7.1170   70.8380 C.ar  521  HIS521      0.1154
    193  CE1       73.2420   -6.2170   68.9470 C.ar  521  HIS521      0.1986
    194  NE2       72.4450   -7.1290   69.4740 N.ar  521  HIS521     -0.2212
    195  N         71.1510   -5.2100   73.8820 N.am  522  TRP522     -0.1976
    196  CA        69.7130   -5.4560   73.8110 C.3   522  TRP522      0.1640
    197  C         68.9610   -4.2280   74.3010 C.2   522  TRP522      0.2290
    198  O         68.2290   -4.2780   75.2840 O.2   522  TRP522     -0.2864
    199  CB        69.3370   -6.6910   74.6290 C.3   522  TRP522      0.0576
    200  CG        70.2760   -7.8330   74.3940 C.ar  522  TRP522      0.0006
    201  CD1       71.2760   -8.2550   75.2220 C.ar  522  TRP522      0.0946
    202  CD2       70.3260   -8.6830   73.2400 C.ar  522  TRP522      0.0152
    203  NE1       71.9380   -9.3180   74.6600 N.ar  522  TRP522     -0.2442
    204  CE2       71.3730   -9.6040   73.4450 C.ar  522  TRP522      0.0810
    205  CE3       69.5830   -8.7600   72.0570 C.ar  522  TRP522      0.0012
    206  CZ2       71.6970  -10.5870   72.5120 C.ar  522  TRP522      0.0191
    207  CZ3       69.9060   -9.7380   71.1310 C.ar  522  TRP522      0.0001
    208  CH2       70.9540  -10.6360   71.3630 C.ar  522  TRP522      0.0015
@<TRIPOS>BOND
     1   142   141    2
     2   141   140    1
     3    44    43    2
     4   139   140    1
     5   140   143    1
     6    46    47    1
     7    46    45    1
     8    43    42    1
     9    47    48    1
    10    39    40   ar
    11    39    37   ar
    12    40    38   ar
    13   143   144    1
    14    45    42    1
    15    91    90    2
    16    37    34   ar
    17    42    41    1
    18    90    89    1
    19    38    36   ar
    20    82    81    2
    21    30    29    2
    22    34    36   ar
    23    34    32   ar
    24   144   145   ar
    25   144   146   ar
    26    36    35   ar
    27    81    80    1
    28   145   147   ar
    29    86    85    2
    30    89    92    1
    31    89    88    1
    32   146   148   ar
    33    92    93    1
    34    29    28    1
    35    32    31    1
    36    32    33   ar
    37    83    80    1
    38    83    84    1
    39    31    28    1
    40    35    33   ar
    41    80    79    1
    42    28    27    1
    43    85    84    1
    44    85    87   am
    45   147   149   ar
    46   148   149   ar
    47    55    53    1
    48    93    95   ar
    49    93    94   ar
    50    63    65   ar
    51    63    61   ar
    52   149   150    1
    53    65    66   ar
    54    59    58    2
    55    22    21    2
    56    95    97   ar
    57    79    69   am
    58    60    61    1
    59    60    57    1
    60    27    21   am
    61    52    51    2
    62    61    62   ar
    63    94    96   ar
    64    53    54    1
    65    53    50    1
    66    70    69    2
    67    66    64   ar
    68    51    50    1
    69    21    20    1
    70     8    10   ar
    71     8     6   ar
    72    10    11   ar
    73    69    68    1
    74    58    57    1
    75    62    64   ar
    76    57    56    1
    77    97    98   ar
    78    50    49    1
    79     5     6    1
    80     5     2    1
    81     6     7   ar
    82    11     9   ar
    83    96    98   ar
    84    25    24   ar
    85    68    67    1
    86    68    71    1
    87    20    19    1
    88    20    23    1
    89     1     2    1
    90   184   182    1
    91     2     3    1
    92    75    73   ar
    93    75    77   ar
    94     7     9   ar
    95    73    72   ar
    96    24    23    1
    97    24    26   ar
    98    78    77    1
    99    77    76   ar
   100   105   104    1
   101    72    71    1
   102    72    74   ar
   103   183   182    1
   104   182   181    1
   105    76    74   ar
   106     3    12   am
   107     3     4    2
   108    13    16    1
   109    13    12    1
   110    13    14    1
   111    16    17    1
   112   173   172    2
   113   104   103    1
   114   104   106    1
   115    12    18    1
   116   103   100    1
   117   176   174    1
   118    14    15    2
   119   181   178    1
   120   178   177    1
   121   178   179    1
   122    99   100    1
   123    17    18    1
   124   172   177   am
   125   172   171    1
   126   100   101    1
   127   101   102    2
   128   179   180    2
   129   174   171    1
   130   174   175    1
   131   193   194   ar
   132   193   191   ar
   133   138   136    1
   134   171   170    1
   135   126   125    2
   136   194   192   ar
   137   131   132    1
   138   136   135    1
   139   136   137    1
   140   135   132    1
   141   191   190   ar
   142   132   133    1
   143   128   129    1
   144   128   127    1
   145   170   161   am
   146   158   156   ar
   147   125   124    1
   148   192   190   ar
   149   129   130    1
   150   157   156   ar
   151   162   161    2
   152   207   208   ar
   153   207   205   ar
   154   190   189    1
   155   113   112    1
   156   156   155    1
   157   208   206   ar
   158   161   160    1
   159   124   127    1
   160   124   123    1
   161   133   134    2
   162   188   187    2
   163   114   112    1
   164   205   202   ar
   165   154   153    2
   166   155   152    1
   167   112   111    1
   168   189   186    1
   169   206   204   ar
   170   160   159    1
   171   160   163    1
   172   153   159   am
   173   153   152    1
   174   187   186    1
   175   187   195   am
   176   186   185    1
   177   202   204   ar
   178   202   200   ar
   179   152   151    1
   180   111   108    1
   181   204   203   ar
   182   196   195    1
   183   196   197    1
   184   196   199    1
   185   163   164    1
   186   121   120    1
   187   197   198    2
   188   200   199    1
   189   200   201   ar
   190   203   201   ar
   191   108   109    1
   192   108   107    1
   193   122   120    1
   194   120   119    1
   195   119   116    1
   196   164   166   ar
   197   164   165   ar
   198   109   110    2
   199   166   168   ar
   200   117   118    2
   201   117   116    1
   202   116   115    1
   203   165   167   ar
   204   168   169   ar
   205   167   169   ar
