@<TRIPOS>MOLECULE
tmp/3i26A00.pdb
 83 78 0 0 0
SMALL
GASTEIGER

@<TRIPOS>ATOM
      1  N         20.9100    3.2220  -46.7600 N.3    27  THR27      -0.1218
      2  CA        21.8150    4.3230  -47.0690 C.3    27  THR27       0.1862
      3  C         23.2260    4.0510  -46.5390 C.2    27  THR27       0.2287
      4  O         24.1670    4.7160  -46.9500 O.2    27  THR27      -0.2866
      5  CB        21.3030    5.6840  -46.5120 C.3    27  THR27       0.1770
      6  OG1       21.3310    5.6980  -45.0730 O.3    27  THR27      -0.2211
      7  CG2       19.8730    5.9700  -47.0020 C.3    27  THR27       0.0375
      8  N         18.0660    4.7470  -39.1330 N.3    48  LYS48      -0.1245
      9  CA        19.3390    5.4200  -39.3440 C.3    48  LYS48       0.1561
     10  C         20.4600    4.7030  -38.6110 C.2    48  LYS48       0.2260
     11  O         20.3490    4.4050  -37.4150 O.2    48  LYS48      -0.2867
     12  CB        19.2830    6.8660  -38.8690 C.3    48  LYS48       0.0271
     13  CG        20.5410    7.6950  -39.2550 C.3    48  LYS48       0.0035
     14  CD        20.6070    8.0270  -40.7500 C.3    48  LYS48       0.0206
     15  CE        20.3110    9.5060  -41.0090 C.3    48  LYS48       0.1093
     16  NZ        20.4390    9.8160  -42.4460 N.3    48  LYS48      -0.1314
     17  N         19.8660   15.4130  -29.3850 N.3    60  ASN60      -0.1225
     18  CA        20.1670   15.7900  -30.7630 C.3    60  ASN60       0.1785
     19  C         21.5970   15.3530  -31.1290 C.2    60  ASN60       0.2597
     20  O         22.1770   14.5360  -30.4430 O.2    60  ASN60      -0.2718
     21  CB        19.9730   17.2810  -30.9350 C.3    60  ASN60       0.1169
     22  CG        18.5700   17.6850  -30.6270 C.2    60  ASN60       0.2627
     23  OD1       17.6210   17.0040  -31.0420 O.2    60  ASN60      -0.2716
     24  ND2       18.4160   18.7810  -29.9130 N.am   60  ASN60      -0.0877
     25  N         22.1270   15.8390  -32.2360 N.am   61  ASN61      -0.1974
     26  CA        23.4530   15.4080  -32.6940 C.3    61  ASN61       0.1688
     27  C         24.6340   15.9030  -31.8370 C.2    61  ASN61       0.2292
     28  O         24.7290   17.0840  -31.5470 O.2    61  ASN61      -0.2864
     29  CB        23.6490   15.8900  -34.1250 C.3    61  ASN61       0.1181
     30  CG        23.0560   14.9350  -35.1610 C.2    61  ASN61       0.2629
     31  OD1       23.1080   13.7050  -35.0280 O.2    61  ASN61      -0.2716
     32  ND2       22.5090   15.5060  -36.1990 N.am   61  ASN61      -0.0877
     33  N         24.1380   10.0160  -32.5900 N.3    66  VAL66      -0.1231
     34  CA        23.5560   10.1700  -33.9280 C.3    66  VAL66       0.1692
     35  C         22.0320   10.2050  -33.7590 C.2    66  VAL66       0.2593
     36  O         21.3990    9.1850  -33.4910 O.2    66  VAL66      -0.2718
     37  CB        24.0190    9.0540  -34.9270 C.3    66  VAL66       0.0266
     38  CG1       23.4290    9.2840  -36.2980 C.3    66  VAL66       0.0020
     39  CG2       25.5200    9.0260  -35.0600 C.3    66  VAL66       0.0020
     40  N         21.4710   11.4060  -33.8630 N.am   67  SER67      -0.1938
     41  CA        20.0520   11.6330  -33.6560 C.3    67  SER67       0.2055
     42  C         19.3650   11.6000  -35.0130 C.2    67  SER67       0.2643
     43  O         19.8390   12.2280  -35.9580 O.2    67  SER67      -0.2714
     44  CB        19.8300   12.9970  -32.9890 C.3    67  SER67       0.2130
     45  OG        18.5320   13.0770  -32.4530 O.3    67  SER67      -0.2179
     46  N         18.2370   10.9080  -35.0710 N.am   68  TYR68      -0.1959
     47  CA        17.4700   10.7410  -36.2930 C.3    68  TYR68       0.1771
     48  C         16.0110   11.1780  -36.0960 C.2    68  TYR68       0.2619
     49  O         15.4110   10.9070  -35.0650 O.2    68  TYR68      -0.2715
     50  CB        17.5310    9.2760  -36.7080 C.3    68  TYR68       0.0574
     51  CG        16.7840    8.9680  -37.9910 C.ar   68  TYR68      -0.0198
     52  CD1       15.8020    7.9750  -38.0320 C.ar   68  TYR68      -0.0009
     53  CD2       17.0670    9.6590  -39.1600 C.ar   68  TYR68      -0.0009
     54  CE1       15.1170    7.6860  -39.2070 C.ar   68  TYR68       0.0417
     55  CE2       16.3850    9.3790  -40.3350 C.ar   68  TYR68       0.0417
     56  CZ        15.4130    8.3890  -40.3470 C.ar   68  TYR68       0.1957
     57  OH        14.7650    8.0890  -41.5380 O.3    68  TYR68      -0.2866
     58  N         15.4500   11.8370  -37.1080 N.am   69  ASP69      -0.1971
     59  CA        14.0440   12.2430  -37.0920 C.3    69  ASP69       0.1709
     60  C         13.1230   11.0680  -37.4370 C.2    69  ASP69       0.2293
     61  O         12.5120   11.0610  -38.4980 O.2    69  ASP69      -0.2864
     62  CB        13.7790   13.4790  -38.0160 C.3    69  ASP69       0.1436
     63  CG        14.3640   13.3410  -39.4500 C.2    69  ASP69       0.3671
     64  OD1       13.7190   13.8620  -40.3890 O.co2  69  ASP69      -0.2456
     65  OD2       15.4540   12.7370  -39.6590 O.co2  69  ASP69      -0.2456
     66  N         10.6910   18.1410  -33.2230 N.3   126  GLN126     -0.1245
     67  CA        11.3400   19.1930  -32.4600 C.3   126  GLN126      0.1566
     68  C         10.2560   20.1710  -32.0570 C.2   126  GLN126      0.2260
     69  O          9.6140   20.7530  -32.9150 O.2   126  GLN126     -0.2867
     70  CB        12.3680   19.9160  -33.3090 C.3   126  GLN126      0.0367
     71  CG        13.5390   19.0550  -33.7540 C.3   126  GLN126      0.0905
     72  CD        14.5420   18.7590  -32.6190 C.2   126  GLN126      0.2608
     73  OE1       14.3070   19.0910  -31.4560 O.2   126  GLN126     -0.2717
     74  NE2       15.6500   18.1250  -32.9660 N.am  126  GLN126     -0.0878
     75  N         11.4740   17.9310  -27.4390 N.3   251  LYS251     -0.1245
     76  CA        11.1060   16.9710  -28.4830 C.3   251  LYS251      0.1561
     77  C         10.0110   16.0620  -27.9300 C.2   251  LYS251      0.2260
     78  O          9.9270   15.8330  -26.7200 O.2   251  LYS251     -0.2867
     79  CB        12.3090   16.0920  -28.9420 C.3   251  LYS251      0.0271
     80  CG        13.6120   16.8370  -29.1770 C.3   251  LYS251      0.0035
     81  CD        14.7880   15.9030  -29.5480 C.3   251  LYS251      0.0206
     82  CE        14.6600   15.3480  -30.9770 C.3   251  LYS251      0.1093
     83  NZ        15.8290   14.5530  -31.4890 N.3   251  LYS251     -0.1314
@<TRIPOS>BOND
     1     2     1    1
     2     2     3    1
     3     2     5    1
     4     7     5    1
     5     4     3    2
     6     5     6    1
     7    16    15    1
     8    57    56    1
     9    15    14    1
    10    14    13    1
    11    64    63   ar
    12    56    55   ar
    13    56    54   ar
    14    55    53   ar
    15    65    63   ar
    16    63    62    1
    17     9     8    1
    18     9    12    1
    19     9    10    1
    20    13    12    1
    21    54    52   ar
    22    53    51   ar
    23    10    11    2
    24    61    60    2
    25    52    51   ar
    26    62    59    1
    27    51    50    1
    28    60    59    1
    29    58    59    1
    30    58    48   am
    31    50    47    1
    32    38    37    1
    33    47    48    1
    34    47    46    1
    35    32    30   am
    36    48    49    2
    37    43    42    2
    38    30    31    2
    39    30    29    1
    40    46    42   am
    41    39    37    1
    42    42    41    1
    43    37    34    1
    44    29    26    1
    45    34    35    1
    46    34    33    1
    47    40    35   am
    48    40    41    1
    49    35    36    2
    50    71    70    1
    51    71    72    1
    52    41    44    1
    53    70    67    1
    54    66    67    1
    55    44    45    1
    56    74    72   am
    57    69    68    2
    58    26    25    1
    59    26    27    1
    60    72    73    2
    61    67    68    1
    62    25    19   am
    63    27    28    2
    64    83    82    1
    65    19    18    1
    66    19    20    2
    67    23    22    2
    68    82    81    1
    69    21    18    1
    70    21    22    1
    71    18    17    1
    72    22    24   am
    73    81    80    1
    74    80    79    1
    75    79    76    1
    76    76    77    1
    77    76    75    1
    78    77    78    2
