@<TRIPOS>MOLECULE
tmp/3i26C00.pdb
 82 76 0 0 0
SMALL
GASTEIGER

@<TRIPOS>ATOM
      1  N          6.0530   57.3120  -68.7320 N.3   267  GLN267     -0.1245
      2  CA         6.0530   56.0280  -69.4430 C.3   267  GLN267      0.1566
      3  C          6.7030   56.1100  -70.8430 C.2   267  GLN267      0.2260
      4  O          6.4260   57.0370  -71.6280 O.2   267  GLN267     -0.2867
      5  CB         4.6220   55.4760  -69.5650 C.3   267  GLN267      0.0367
      6  CG         4.4920   54.0950  -70.2140 C.3   267  GLN267      0.0905
      7  CD         5.3560   53.0390  -69.5430 C.2   267  GLN267      0.2608
      8  OE1        6.5770   53.0190  -69.7110 O.2   267  GLN267     -0.2717
      9  NE2        4.7250   52.1530  -68.7820 N.am  267  GLN267     -0.0878
     10  N          7.3320   53.6590  -74.0430 N.3   269  ILE269     -0.1245
     11  CA         6.9640   52.4080  -74.7110 C.3   269  ILE269      0.1561
     12  C          6.9300   52.5650  -76.2390 C.2   269  ILE269      0.2260
     13  O          7.0680   53.6790  -76.7660 O.2   269  ILE269     -0.2867
     14  CB         5.5730   51.8920  -74.2180 C.3   269  ILE269      0.0252
     15  CG1        4.4710   52.9410  -74.4390 C.3   269  ILE269      0.0019
     16  CG2        5.6330   51.5060  -72.7510 C.3   269  ILE269      0.0019
     17  CD1        3.0560   52.4170  -74.1510 C.3   269  ILE269      0.0001
     18  N          7.1660   47.1570  -68.6750 N.3   278  ASP278     -0.1239
     19  CA         6.7910   48.1160  -67.6400 C.3   278  ASP278      0.1674
     20  C          7.9100   48.2920  -66.6080 C.2   278  ASP278      0.2266
     21  O          7.6360   48.4540  -65.4250 O.2   278  ASP278     -0.2867
     22  CB         5.4950   47.6820  -66.9390 C.3   278  ASP278      0.1410
     23  CG         4.7670   48.8460  -66.2800 C.2   278  ASP278      0.3668
     24  OD1        5.0760   50.0160  -66.6180 O.co2 278  ASP278     -0.2456
     25  OD2        3.8890   48.5920  -65.4180 O.co2 278  ASP278     -0.2456
     26  N          7.7300   51.8720  -65.0770 N.3   281  GLY281     -0.1210
     27  CA         6.5900   51.9070  -64.1550 C.3   281  GLY281      0.1956
     28  C          6.7970   51.1230  -62.8750 C.2   281  GLY281      0.2611
     29  O          6.3070   51.5170  -61.8070 O.2   281  GLY281     -0.2717
     30  N          7.5220   50.0170  -62.9650 N.am  282  GLN282     -0.1979
     31  CA         7.8100   49.2260  -61.7730 C.3   282  GLN282      0.1601
     32  C          8.9710   49.8150  -60.9520 C.2   282  GLN282      0.2287
     33  O          8.9960   49.6630  -59.7400 O.2   282  GLN282     -0.2864
     34  CB         8.0860   47.7590  -62.1470 C.3   282  GLN282      0.0394
     35  CG         6.8860   47.0100  -62.7350 C.3   282  GLN282      0.0908
     36  CD         5.6050   47.2270  -61.9340 C.2   282  GLN282      0.2608
     37  OE1        5.5880   47.0750  -60.7050 O.2   282  GLN282     -0.2717
     38  NE2        4.5370   47.6140  -62.6220 N.am  282  GLN282     -0.0878
     39  N          8.5610   54.4280  -58.2310 N.3   285  LYS285     -0.1245
     40  CA         7.6070   54.2140  -57.1360 C.3   285  LYS285      0.1561
     41  C          7.8330   55.1870  -55.9740 C.2   285  LYS285      0.2260
     42  O          8.9390   55.7140  -55.7880 O.2   285  LYS285     -0.2867
     43  CB         7.6910   52.7680  -56.6400 C.3   285  LYS285      0.0271
     44  CG         7.1870   51.7610  -57.6730 C.3   285  LYS285      0.0035
     45  CD         6.9710   50.3540  -57.0830 C.3   285  LYS285      0.0206
     46  CE         6.2510   49.4180  -58.0890 C.3   285  LYS285      0.1093
     47  NZ         5.1520   50.1160  -58.8570 N.3   285  LYS285     -0.1314
     48  N          5.4850   58.7390  -61.0200 N.3   291  PHE291     -0.1241
     49  CA         5.2900   58.0460  -62.3040 C.3   291  PHE291      0.1605
     50  C          4.0770   58.6130  -63.0470 C.2   291  PHE291      0.2264
     51  O          2.9640   58.6320  -62.5090 O.2   291  PHE291     -0.2867
     52  CB         5.0970   56.5290  -62.0950 C.3   291  PHE291      0.0534
     53  CG         4.9660   55.7460  -63.3790 C.ar  291  PHE291     -0.0203
     54  CD1        5.9690   55.7900  -64.3510 C.ar  291  PHE291     -0.0042
     55  CD2        3.8460   54.9660  -63.6120 C.ar  291  PHE291     -0.0042
     56  CE1        5.8570   55.0800  -65.5350 C.ar  291  PHE291     -0.0003
     57  CE2        3.7160   54.2440  -64.8040 C.ar  291  PHE291     -0.0003
     58  CZ         4.7320   54.3020  -65.7660 C.ar  291  PHE291     -0.0000
     59  N          2.0760   57.6240  -66.0860 N.3   293  ASN293     -0.1225
     60  CA         1.8140   56.5890  -67.0740 C.3   293  ASN293      0.1785
     61  C          1.0460   57.1290  -68.2730 C.2   293  ASN293      0.2597
     62  O          0.5410   58.2510  -68.2470 O.2   293  ASN293     -0.2718
     63  CB         1.0070   55.4650  -66.4350 C.3   293  ASN293      0.1169
     64  CG         1.2560   54.1310  -67.0780 C.2   293  ASN293      0.2627
     65  OD1        1.9560   54.0110  -68.0970 O.2   293  ASN293     -0.2716
     66  ND2        0.6850   53.1010  -66.4720 N.am  293  ASN293     -0.0877
     67  N          0.9820   56.3130  -69.3250 N.am  294  LYS294     -0.1966
     68  CA         0.1070   56.5500  -70.4610 C.3   294  LYS294      0.1728
     69  C         -1.1810   55.7470  -70.2960 C.2   294  LYS294      0.2616
     70  O         -1.1660   54.5710  -69.9120 O.2   294  LYS294     -0.2715
     71  CB         0.7960   56.1730  -71.7720 C.3   294  LYS294      0.0311
     72  CG         1.7490   57.2360  -72.2840 C.3   294  LYS294      0.0038
     73  CD         2.4730   56.7700  -73.5440 C.3   294  LYS294      0.0206
     74  CE         1.5200   56.4660  -74.7120 C.3   294  LYS294      0.1093
     75  NZ         0.3780   57.4250  -74.8430 N.3   294  LYS294     -0.1314
     76  N         -2.2890   56.4230  -70.5700 N.am  295  THR295     -0.1951
     77  CA        -3.6300   55.8510  -70.5400 C.3   295  THR295      0.1897
     78  C         -4.0360   55.3310  -71.9360 C.2   295  THR295      0.2313
     79  O         -4.8470   54.4080  -72.0440 O.2   295  THR295     -0.2863
     80  CB        -4.6290   56.9240  -70.0690 C.3   295  THR295      0.1794
     81  OG1       -4.4300   58.1170  -70.8360 O.3   295  THR295     -0.2208
     82  CG2       -4.4120   57.2640  -68.5910 C.3   295  THR295      0.0378
@<TRIPOS>BOND
     1    13    12    2
     2    12    11    1
     3    75    74    1
     4    74    73    1
     5    11    14    1
     6    11    10    1
     7    15    14    1
     8    15    17    1
     9    14    16    1
    10    73    72    1
    11    72    71    1
    12    79    78    2
    13    78    77    1
    14    71    68    1
    15     4     3    2
    16     3     2    1
    17    81    80    1
    18    76    77    1
    19    76    69   am
    20    77    80    1
    21    68    69    1
    22    68    67    1
    23    69    70    2
    24     6     5    1
    25     6     7    1
    26    80    82    1
    27     8     7    2
    28     5     2    1
    29     7     9   am
    30     2     1    1
    31    67    61   am
    32    18    19    1
    33    61    62    2
    34    61    60    1
    35    65    64    2
    36    19    22    1
    37    19    20    1
    38    64    66   am
    39    64    63    1
    40    60    63    1
    41    60    59    1
    42    22    23    1
    43    24    23   ar
    44    20    21    2
    45    23    25   ar
    46    58    56   ar
    47    58    57   ar
    48    56    54   ar
    49    26    27    1
    50    57    55   ar
    51    54    53   ar
    52    27    28    1
    53    55    53   ar
    54    53    52    1
    55    50    51    2
    56    50    49    1
    57    30    28   am
    58    30    31    1
    59    28    29    2
    60    35    34    1
    61    35    36    1
    62    38    36   am
    63    49    52    1
    64    49    48    1
    65    34    31    1
    66    36    37    2
    67    31    32    1
    68    32    33    2
    69    47    46    1
    70    39    40    1
    71    46    45    1
    72    44    45    1
    73    44    43    1
    74    40    43    1
    75    40    41    1
    76    41    42    2
