@<TRIPOS>MOLECULE
tmp/3i27D01.pdb
 137 132 0 0 0
SMALL
GASTEIGER

@<TRIPOS>ATOM
      1  N         33.9180   40.4150  -31.6980 N.3    94  TRP94      -0.1241
      2  CA        35.2210   40.1730  -32.2890 C.3    94  TRP94       0.1605
      3  C         35.9670   41.5040  -32.3320 C.2    94  TRP94       0.2264
      4  O         35.7870   42.2890  -31.4160 O.2    94  TRP94      -0.2867
      5  CB        35.0750   39.3800  -33.6060 C.3    94  TRP94       0.0550
      6  CG        34.9850   37.9440  -33.2500 C.ar   94  TRP94       0.0003
      7  CD1       33.8830   37.2770  -32.8430 C.ar   94  TRP94       0.0946
      8  CD2       36.0730   37.0100  -33.1760 C.ar   94  TRP94       0.0152
      9  NE1       34.1970   35.9850  -32.5330 N.ar   94  TRP94      -0.2442
     10  CE2       35.5400   35.7890  -32.7370 C.ar   94  TRP94       0.0810
     11  CE3       37.4540   37.0930  -33.4370 C.ar   94  TRP94       0.0012
     12  CZ2       36.3210   34.6470  -32.5610 C.ar   94  TRP94       0.0191
     13  CZ3       38.2340   35.9490  -33.2660 C.ar   94  TRP94       0.0001
     14  CH2       37.6670   34.7470  -32.8210 C.ar   94  TRP94       0.0015
     15  N         29.0690   22.9790  -32.3580 N.3   137  GLN137     -0.1231
     16  CA        29.6410   23.6070  -31.1930 C.3   137  GLN137      0.1698
     17  C         29.3520   25.1060  -31.3050 C.2   137  GLN137      0.2592
     18  O         29.6140   25.7190  -32.3510 O.2   137  GLN137     -0.2718
     19  CB        31.1410   23.3280  -31.1430 C.3   137  GLN137      0.0381
     20  CG        31.8860   24.0470  -30.0310 C.3   137  GLN137      0.0905
     21  CD        33.4040   23.8090  -30.0890 C.2   137  GLN137      0.2608
     22  OE1       33.8590   22.6960  -30.3510 O.2   137  GLN137     -0.2717
     23  NE2       34.1840   24.8550  -29.8500 N.am  137  GLN137     -0.0878
     24  N         28.8070   25.6920  -30.2400 N.am  138  ALA138     -0.1966
     25  CA        28.5530   27.1310  -30.2300 C.3   138  ALA138      0.1728
     26  C         29.8190   27.9210  -30.5280 C.2   138  ALA138      0.2617
     27  O         30.9200   27.5950  -30.0720 O.2   138  ALA138     -0.2715
     28  CB        27.9520   27.5730  -28.8880 C.3   138  ALA138      0.0334
     29  N         29.6690   28.9580  -31.3310 N.am  139  GLY139     -0.1940
     30  CA        30.7430   29.9110  -31.4940 C.3   139  GLY139      0.2014
     31  C         30.8670   30.7350  -30.2320 C.2   139  GLY139      0.2638
     32  O         30.0470   30.6090  -29.3130 O.2   139  GLY139     -0.2714
     33  N         31.8850   31.5860  -30.1870 N.am  140  VAL140     -0.1977
     34  CA        32.0830   32.4920  -29.0620 C.3   140  VAL140      0.1596
     35  C         32.5800   33.8470  -29.5560 C.2   140  VAL140      0.2287
     36  O         33.0700   33.9580  -30.6900 O.2   140  VAL140     -0.2864
     37  CB        33.1420   31.9330  -28.0850 C.3   140  VAL140      0.0276
     38  CG1       32.6090   30.6520  -27.3580 C.3   140  VAL140      0.0022
     39  CG2       34.4620   31.6600  -28.8280 C.3   140  VAL140      0.0022
     40  N         35.5220   36.6530  -29.2160 N.3   142  ARG142     -0.1245
     41  CA        36.9000   36.8120  -28.7670 C.3   142  ARG142      0.1563
     42  C         36.9490   37.6180  -27.4810 C.2   142  ARG142      0.2260
     43  O         37.7720   37.3530  -26.6120 O.2   142  ARG142     -0.2867
     44  CB        37.7240   37.5120  -29.8350 C.3   142  ARG142      0.0307
     45  CG        39.1800   37.7560  -29.4380 C.3   142  ARG142      0.0489
     46  CD        39.9970   38.2810  -30.6140 C.3   142  ARG142      0.2205
     47  NE        40.7680   37.1930  -31.2130 N.pl3 142  ARG142     -0.0865
     48  CZ        41.3280   37.2050  -32.4210 C.cat 142  ARG142      0.5346
     49  NH1       41.2300   38.2670  -33.2220 N.pl3 142  ARG142      0.1354
     50  NH2       41.9800   36.1200  -32.8370 N.pl3 142  ARG142      0.1354
     51  N         25.7530   31.4190  -34.9460 N.3   153  LEU153     -0.1245
     52  CA        27.1020   31.1060  -35.4660 C.3   153  LEU153      0.1561
     53  C         27.5590   29.8860  -34.7280 C.2   153  LEU153      0.2260
     54  O         27.6670   29.8940  -33.4920 O.2   153  LEU153     -0.2867
     55  CB        28.0950   32.2230  -35.2460 C.3   153  LEU153      0.0270
     56  CG        29.5770   31.8910  -35.5460 C.3   153  LEU153      0.0019
     57  CD1       29.7980   31.4480  -37.0230 C.3   153  LEU153      0.0001
     58  CD2       30.4380   33.0880  -35.2080 C.3   153  LEU153      0.0001
     59  N         29.8220   25.8470  -35.1050 N.3   155  LEU155     -0.1245
     60  CA        30.8940   25.1300  -35.7530 C.3   155  LEU155      0.1561
     61  C         30.6040   23.6600  -35.8960 C.2   155  LEU155      0.2260
     62  O         30.3900   22.9470  -34.9030 O.2   155  LEU155     -0.2867
     63  CB        32.1950   25.3160  -34.9790 C.3   155  LEU155      0.0270
     64  CG        32.9130   26.6290  -35.2920 C.3   155  LEU155      0.0019
     65  CD1       32.1700   27.7430  -34.6390 C.3   155  LEU155      0.0001
     66  CD2       34.3530   26.5370  -34.7660 C.3   155  LEU155      0.0001
     67  N         32.1730   36.5880  -39.8940 N.3   187  LEU187     -0.1245
     68  CA        33.4550   37.0570  -39.3840 C.3   187  LEU187      0.1561
     69  C         34.3350   37.3650  -40.5810 C.2   187  LEU187      0.2260
     70  O         34.6840   36.4790  -41.3690 O.2   187  LEU187     -0.2867
     71  CB        34.0890   35.9970  -38.4710 C.3   187  LEU187      0.0270
     72  CG        33.2500   35.5570  -37.2660 C.3   187  LEU187      0.0019
     73  CD1       33.9590   34.5300  -36.4170 C.3   187  LEU187      0.0001
     74  CD2       32.8410   36.7400  -36.4160 C.3   187  LEU187      0.0001
     75  N         40.0450   31.7370  -41.3440 N.3   192  PHE192     -0.1227
     76  CA        39.8240   31.7670  -39.9150 C.3   192  PHE192      0.1736
     77  C         40.4480   30.5280  -39.2950 C.2   192  PHE192      0.2596
     78  O         40.1930   29.4120  -39.7350 O.2   192  PHE192     -0.2718
     79  CB        38.3260   31.8490  -39.6310 C.3   192  PHE192      0.0547
     80  CG        37.9940   31.9830  -38.1840 C.ar  192  PHE192     -0.0202
     81  CD1       37.6580   33.2190  -37.6450 C.ar  192  PHE192     -0.0042
     82  CD2       38.0250   30.8780  -37.3400 C.ar  192  PHE192     -0.0042
     83  CE1       37.3520   33.3420  -36.3060 C.ar  192  PHE192     -0.0003
     84  CE2       37.7260   31.0060  -36.0070 C.ar  192  PHE192     -0.0003
     85  CZ        37.3880   32.2380  -35.4890 C.ar  192  PHE192     -0.0000
     86  N         41.2750   30.7190  -38.2790 N.am  193  THR193     -0.1939
     87  CA        41.9810   29.5840  -37.6870 C.3   193  THR193      0.2028
     88  C         41.1030   28.8810  -36.6630 C.2   193  THR193      0.2643
     89  O         40.7110   29.4720  -35.6570 O.2   193  THR193     -0.2714
     90  CB        43.2840   30.0240  -37.0320 C.3   193  THR193      0.1808
     91  OG1       44.0560   30.7500  -37.9890 O.3   193  THR193     -0.2208
     92  CG2       44.0820   28.8120  -36.5200 C.3   193  THR193      0.0379
     93  N         40.7740   27.6220  -36.9290 N.am  194  THR194     -0.1936
     94  CA        40.1430   26.7910  -35.9140 C.3   194  THR194      0.2028
     95  C         40.6300   25.3590  -35.9980 C.2   194  THR194      0.2643
     96  O         40.8210   24.8320  -37.0980 O.2   194  THR194     -0.2714
     97  CB        38.6070   26.8080  -36.0090 C.3   194  THR194      0.1808
     98  OG1       38.0720   26.0260  -34.9360 O.3   194  THR194     -0.2208
     99  CG2       38.1280   26.2520  -37.3430 C.3   194  THR194      0.0379
    100  N         40.8550   24.7630  -34.8210 N.am  195  GLY195     -0.1939
    101  CA        41.2830   23.3690  -34.6690 C.3   195  GLY195      0.2014
    102  C         42.3180   22.8690  -35.6610 C.2   195  GLY195      0.2639
    103  O         42.3060   21.6960  -36.0460 O.2   195  GLY195     -0.2714
    104  N         43.2350   23.7420  -36.0550 N.am  196  GLY196     -0.1954
    105  CA        44.1570   23.4600  -37.1650 C.3   196  GLY196      0.1869
    106  C         44.8990   24.7590  -37.4000 C.2   196  GLY196      0.2309
    107  O         45.3060   25.3350  -36.3920 O.2   196  GLY196     -0.2863
    108  N         46.1640   37.5790  -36.2240 N.3   225  GLU225     -0.1245
    109  CA        44.9680   37.4290  -37.0610 C.3   225  GLU225      0.1567
    110  C         43.7560   38.1630  -36.4830 C.2   225  GLU225      0.2260
    111  O         43.4470   38.0090  -35.3100 O.2   225  GLU225     -0.2867
    112  CB        44.6570   35.9380  -37.1960 C.3   225  GLU225      0.0388
    113  CG        43.3090   35.5790  -37.8080 C.3   225  GLU225      0.1160
    114  CD        43.0640   34.0750  -37.8180 C.2   225  GLU225      0.3649
    115  OE1       41.8900   33.6800  -37.8430 O.co2 225  GLU225     -0.2457
    116  OE2       44.0450   33.2870  -37.7880 O.co2 225  GLU225     -0.2457
    117  N         39.4860   39.5550  -36.9900 N.3   227  HIS227     -0.1241
    118  CA        38.1700   39.4720  -37.6380 C.3   227  HIS227      0.1621
    119  C         37.1450   40.3780  -36.9540 C.2   227  HIS227      0.2264
    120  O         37.1840   40.5450  -35.7420 O.2   227  HIS227     -0.2867
    121  CB        37.6430   38.0440  -37.6110 C.3   227  HIS227      0.0745
    122  CG        38.6340   37.0250  -38.0770 C.ar  227  HIS227      0.0817
    123  ND1       39.0070   36.9040  -39.3990 N.ar  227  HIS227     -0.2268
    124  CD2       39.3420   36.0910  -37.3980 C.ar  227  HIS227      0.1154
    125  CE1       39.8970   35.9310  -39.5130 C.ar  227  HIS227      0.1986
    126  NE2       40.1100   35.4150  -38.3140 N.ar  227  HIS227     -0.2212
    127  N         32.0300   26.5640  -40.6470 N.3   249  PHE249     -0.1241
    128  CA        31.2500   27.6210  -40.0220 C.3   249  PHE249      0.1605
    129  C         29.8140   27.5740  -40.5370 C.2   249  PHE249      0.2264
    130  O         29.6080   27.3980  -41.7220 O.2   249  PHE249     -0.2867
    131  CB        31.8960   28.9750  -40.2890 C.3   249  PHE249      0.0534
    132  CG        33.3720   28.9930  -40.0060 C.ar  249  PHE249     -0.0203
    133  CD1       34.2860   28.8760  -41.0410 C.ar  249  PHE249     -0.0042
    134  CD2       33.8420   29.0660  -38.7010 C.ar  249  PHE249     -0.0042
    135  CE1       35.6240   28.8560  -40.7880 C.ar  249  PHE249     -0.0003
    136  CE2       35.1800   29.0510  -38.4460 C.ar  249  PHE249     -0.0003
    137  CZ        36.0770   28.9520  -39.4880 C.ar  249  PHE249     -0.0000
@<TRIPOS>BOND
     1   130   129    2
     2    70    69    2
     3    75    76    1
     4   133   135   ar
     5   133   132   ar
     6   135   137   ar
     7   127   128    1
     8    69    68    1
     9   129   128    1
    10   131   128    1
    11   131   132    1
    12   132   134   ar
    13    76    79    1
    14    76    77    1
    15    67    68    1
    16    78    77    2
    17    79    80    1
    18   125   123   ar
    19   125   126   ar
    20   137   136   ar
    21   123   122   ar
    22    68    71    1
    23    77    86   am
    24   134   136   ar
    25    71    72    1
    26   126   124   ar
    27    86    87    1
    28    80    81   ar
    29    80    82   ar
    30   122   121    1
    31   122   124   ar
    32    91    90    1
    33   115   114   ar
    34   114   113    1
    35   114   116   ar
    36   113   112    1
    37    87    90    1
    38    87    88    1
    39    81    83   ar
    40   118   121    1
    41   118   117    1
    42   118   119    1
    43   106   105    1
    44   106   107    2
    45    99    97    1
    46    82    84   ar
    47    72    73    1
    48    72    74    1
    49   112   109    1
    50   105   104    1
    51    96    95    2
    52   109   110    1
    53   109   108    1
    54    90    92    1
    55    57    56    1
    56   119   120    2
    57    93    88   am
    58    93    94    1
    59    88    89    2
    60   110   111    2
    61    83    85   ar
    62   104   102   am
    63   103   102    2
    64    97    94    1
    65    97    98    1
    66    84    85   ar
    67    95    94    1
    68    95   100   am
    69    61    60    1
    70    61    62    2
    71    60    59    1
    72    60    63    1
    73   102   101    1
    74    56    55    1
    75    56    58    1
    76    52    55    1
    77    52    51    1
    78    52    53    1
    79    64    63    1
    80    64    66    1
    81    64    65    1
    82   100   101    1
    83    53    54    2
    84     5     6    1
    85     5     2    1
    86    11    13   ar
    87    11     8   ar
    88    13    14   ar
    89     6     8   ar
    90     6     7   ar
    91    49    48    1
    92     8    10   ar
    93     7     9   ar
    94    50    48    1
    95    14    12   ar
    96    10    12   ar
    97    10     9   ar
    98    48    47    2
    99    15    16    1
   100    18    17    2
   101     3     2    1
   102     3     4    2
   103     2     1    1
   104    30    29    1
   105    30    31    1
   106    29    26   am
   107    17    16    1
   108    17    24   am
   109    47    46    1
   110    16    19    1
   111    19    20    1
   112    36    35    2
   113    46    45    1
   114    26    25    1
   115    26    27    2
   116    22    21    2
   117    24    25    1
   118    31    33   am
   119    31    32    2
   120    25    28    1
   121    33    34    1
   122    21    20    1
   123    21    23   am
   124    44    45    1
   125    44    41    1
   126    35    34    1
   127    40    41    1
   128    34    37    1
   129    39    37    1
   130    41    42    1
   131    37    38    1
   132    42    43    2
