@<TRIPOS>MOLECULE
tmp/3i27B00.pdb
 83 78 0 0 0
SMALL
GASTEIGER

@<TRIPOS>ATOM
      1  N        -28.3970  -12.4910   -0.4880 N.3    27  THR27      -0.1218
      2  CA       -28.8010  -12.1200    0.8820 C.3    27  THR27       0.1862
      3  C        -29.8390  -10.9830    0.9000 C.2    27  THR27       0.2287
      4  O        -30.5020  -10.7660    1.8990 O.2    27  THR27      -0.2866
      5  CB       -27.5710  -11.7620    1.7750 C.3    27  THR27       0.1770
      6  OG1      -27.0160  -10.5120    1.3710 O.3    27  THR27      -0.2211
      7  CG2      -26.4800  -12.8520    1.6700 C.3    27  THR27       0.0375
      8  N        -22.5010   -7.0120   -2.5750 N.3    48  LYS48      -0.1245
      9  CA       -23.2430   -6.4040   -1.4880 C.3    48  LYS48       0.1561
     10  C        -24.2680   -5.3550   -1.9630 C.2    48  LYS48       0.2260
     11  O        -23.8920   -4.4050   -2.5780 O.2    48  LYS48      -0.2867
     12  CB       -22.2400   -5.8810   -0.4500 C.3    48  LYS48       0.0271
     13  CG       -22.7430   -5.0420    0.6840 C.3    48  LYS48       0.0035
     14  CD       -24.0930   -5.3630    1.1370 C.3    48  LYS48       0.0206
     15  CE       -24.1680   -6.5380    2.0030 C.3    48  LYS48       0.1093
     16  NZ       -24.2700   -6.0780    3.3930 N.3    48  LYS48      -0.1314
     17  N        -15.8040    3.7060    4.3520 N.3    60  ASN60      -0.1225
     18  CA       -16.4500    2.7060    5.2030 C.3    60  ASN60       0.1785
     19  C        -17.9370    3.0630    5.2940 C.2    60  ASN60       0.2597
     20  O        -18.3910    3.9130    4.5310 O.2    60  ASN60      -0.2718
     21  CB       -15.7570    2.6540    6.5540 C.3    60  ASN60       0.1169
     22  CG       -14.2670    2.4540    6.3890 C.2    60  ASN60       0.2627
     23  OD1      -13.8320    1.5910    5.6200 O.2    60  ASN60      -0.2716
     24  ND2      -13.4890    3.2690    7.0450 N.am   60  ASN60      -0.0877
     25  N        -18.6750    2.4370    6.2010 N.am   61  ASN61      -0.1974
     26  CA       -20.1280    2.6660    6.3240 C.3    61  ASN61       0.1688
     27  C        -20.4950    4.0460    6.9010 C.2    61  ASN61       0.2292
     28  O        -19.9640    4.4470    7.9200 O.2    61  ASN61      -0.2864
     29  CB       -20.7690    1.6050    7.2070 C.3    61  ASN61       0.1181
     30  CG       -21.1300    0.3480    6.4660 C.2    61  ASN61       0.2629
     31  OD1      -21.4430    0.3420    5.2800 O.2    61  ASN61      -0.2716
     32  ND2      -21.0900   -0.7460    7.1920 N.am   61  ASN61      -0.0877
     33  N        -22.8100    2.3920    1.6880 N.3    66  VAL66      -0.1231
     34  CA       -22.7580    0.9870    2.0920 C.3    66  VAL66       0.1692
     35  C        -21.4110    0.4400    1.5590 C.2    66  VAL66       0.2593
     36  O        -21.2050    0.3030    0.3500 O.2    66  VAL66      -0.2718
     37  CB       -23.9900    0.1570    1.6160 C.3    66  VAL66       0.0266
     38  CG1      -23.8750   -1.3150    2.1530 C.3    66  VAL66       0.0020
     39  CG2      -25.3370    0.7850    2.1080 C.3    66  VAL66       0.0020
     40  N        -20.4840    0.2350    2.4840 N.am   67  SER67      -0.1938
     41  CA       -19.1610   -0.2850    2.2130 C.3    67  SER67       0.2055
     42  C        -19.1220   -1.8000    2.4200 C.2    67  SER67       0.2643
     43  O        -19.7320   -2.3250    3.3520 O.2    67  SER67      -0.2714
     44  CB       -18.1780    0.3870    3.1860 C.3    67  SER67       0.2130
     45  OG       -16.8270    0.1560    2.8280 O.3    67  SER67      -0.2179
     46  N        -18.3930   -2.4940    1.5500 N.am   68  TYR68      -0.1959
     47  CA       -18.2880   -3.9400    1.5730 C.3    68  TYR68       0.1771
     48  C        -16.8560   -4.3950    1.3720 C.2    68  TYR68       0.2619
     49  O        -16.1110   -3.8500    0.5200 O.2    68  TYR68      -0.2715
     50  CB       -19.1610   -4.5500    0.4860 C.3    68  TYR68       0.0574
     51  CG       -19.1570   -6.0720    0.4570 C.ar   68  TYR68      -0.0198
     52  CD1      -18.7090   -6.7670   -0.6600 C.ar   68  TYR68      -0.0009
     53  CD2      -19.6310   -6.8040    1.5360 C.ar   68  TYR68      -0.0009
     54  CE1      -18.7140   -8.1480   -0.6980 C.ar   68  TYR68       0.0417
     55  CE2      -19.6380   -8.1970    1.5160 C.ar   68  TYR68       0.0417
     56  CZ       -19.1830   -8.8530    0.3850 C.ar   68  TYR68       0.1957
     57  OH       -19.1860  -10.2040    0.3580 O.3    68  TYR68      -0.2866
     58  N        -16.4600   -5.3850    2.1650 N.am   69  ASP69      -0.1971
     59  CA       -15.1190   -5.9180    2.0600 C.3    69  ASP69       0.1709
     60  C        -15.0540   -6.8650    0.8730 C.2    69  ASP69       0.2293
     61  O        -14.9830   -8.0800    1.0280 O.2    69  ASP69      -0.2864
     62  CB       -14.7140   -6.6100    3.3620 C.3    69  ASP69       0.1436
     63  CG       -14.3670   -5.6130    4.4750 C.2    69  ASP69       0.3671
     64  OD1      -14.2700   -4.3920    4.2270 O.co2  69  ASP69      -0.2456
     65  OD2      -14.1850   -6.0680    5.6100 O.co2  69  ASP69      -0.2456
     66  N         -8.2060   -3.3850    5.1060 N.3   126  GLN126     -0.1245
     67  CA        -7.9420   -2.2250    5.9410 C.3   126  GLN126      0.1566
     68  C         -6.4340   -2.1800    6.2320 C.2   126  GLN126      0.2260
     69  O         -5.8180   -3.1990    6.5510 O.2   126  GLN126     -0.2867
     70  CB        -8.7160   -2.3410    7.2530 C.3   126  GLN126      0.0367
     71  CG       -10.2440   -2.2550    7.1260 C.3   126  GLN126      0.0905
     72  CD       -10.7400   -0.8170    6.9060 C.2   126  GLN126      0.2608
     73  OE1       -9.9720    0.1530    7.0320 O.2   126  GLN126     -0.2717
     74  NE2      -12.0230   -0.6820    6.5660 N.am  126  GLN126     -0.0878
     75  N         -6.9780    2.0180    3.3430 N.3   255  LYS255     -0.1245
     76  CA        -7.4510    0.7710    2.7260 C.3   255  LYS255      0.1561
     77  C         -6.7380    0.5710    1.3890 C.2   255  LYS255      0.2260
     78  O         -6.2650    1.5260    0.8000 O.2   255  LYS255     -0.2867
     79  CB        -8.9930    0.7820    2.4710 C.3   255  LYS255      0.0271
     80  CG        -9.8510    1.3370    3.5920 C.3   255  LYS255      0.0035
     81  CD       -11.3160    1.4860    3.2090 C.3   255  LYS255      0.0206
     82  CE       -12.0490    0.1540    3.0580 C.3   255  LYS255      0.1093
     83  NZ       -13.5420    0.3490    3.1190 N.3   255  LYS255     -0.1314
@<TRIPOS>BOND
     1    11    10    2
     2     8     9    1
     3    10     9    1
     4     9    12    1
     5    54    52   ar
     6    54    56   ar
     7    52    51   ar
     8     1     2    1
     9    12    13    1
    10    36    35    2
    11    57    56    1
    12    56    55   ar
    13    51    50    1
    14    51    53   ar
    15    50    47    1
    16    49    48    2
    17    13    14    1
    18    78    77    2
    19    60    61    2
    20    60    59    1
    21     2     3    1
    22     2     5    1
    23     3     4    2
    24    14    15    1
    25     6     5    1
    26    48    47    1
    27    48    58   am
    28    77    76    1
    29    55    53   ar
    30    46    47    1
    31    46    42   am
    32    35    34    1
    33    35    40   am
    34    37    34    1
    35    37    39    1
    36    37    38    1
    37     7     5    1
    38    33    34    1
    39    15    16    1
    40    59    58    1
    41    59    62    1
    42    41    42    1
    43    41    40    1
    44    41    44    1
    45    42    43    2
    46    79    76    1
    47    79    80    1
    48    76    75    1
    49    45    44    1
    50    82    83    1
    51    82    81    1
    52    81    80    1
    53    62    63    1
    54    64    63   ar
    55    17    18    1
    56    63    65   ar
    57    20    19    2
    58    66    67    1
    59    18    19    1
    60    18    21    1
    61    31    30    2
    62    19    25   am
    63    23    22    2
    64    67    68    1
    65    67    70    1
    66    25    26    1
    67    68    69    2
    68    26    27    1
    69    26    29    1
    70    22    21    1
    71    22    24   am
    72    30    32   am
    73    30    29    1
    74    74    72   am
    75    27    28    2
    76    72    73    2
    77    72    71    1
    78    71    70    1
