@<TRIPOS>MOLECULE
tmp/3i27B02.pdb
 98 91 0 0 0
SMALL
GASTEIGER

@<TRIPOS>ATOM
      1  N        -22.3350   -3.4640  -18.2270 N.3   272  GLN272     -0.1245
      2  CA       -22.8250   -2.1040  -17.9810 C.3   272  GLN272      0.1566
      3  C        -23.7460   -2.0670  -16.7630 C.2   272  GLN272      0.2260
      4  O        -24.6560   -2.8840  -16.6520 O.2   272  GLN272     -0.2867
      5  CB       -23.5560   -1.5650  -19.2140 C.3   272  GLN272      0.0367
      6  CG       -24.2000   -0.1940  -19.0730 C.3   272  GLN272      0.0905
      7  CD       -23.2250    0.9310  -18.7550 C.2   272  GLN272      0.2608
      8  OE1      -22.5110    0.8980  -17.7610 O.2   272  GLN272     -0.2717
      9  NE2      -23.2030    1.9410  -19.6120 N.am  272  GLN272     -0.0878
     10  N        -26.1250    0.3640  -14.5910 N.3   274  ILE274     -0.1245
     11  CA       -26.8630    1.6580  -14.6670 C.3   274  ILE274      0.1561
     12  C        -28.1860    1.6200  -13.9320 C.2   274  ILE274      0.2260
     13  O        -28.6430    0.5510  -13.5280 O.2   274  ILE274     -0.2867
     14  CB       -27.0870    2.1430  -16.1270 C.3   274  ILE274      0.0252
     15  CG1      -27.9470    1.1480  -16.9420 C.3   274  ILE274      0.0019
     16  CG2      -25.7410    2.4540  -16.7860 C.3   274  ILE274      0.0019
     17  CD1      -28.2180    1.5910  -18.3610 C.3   274  ILE274      0.0001
     18  N        -34.2060    4.7790  -16.3040 N.3   277  GLU277     -0.1245
     19  CA       -34.1570    6.1400  -16.7930 C.3   277  GLU277      0.1567
     20  C        -34.9590    7.1210  -15.9590 C.2   277  GLU277      0.2260
     21  O        -35.0910    8.2370  -16.3410 O.2   277  GLU277     -0.2867
     22  CB       -34.4990    6.2280  -18.2780 C.3   277  GLU277      0.0388
     23  CG       -33.5670    5.4440  -19.1440 C.3   277  GLU277      0.1160
     24  CD       -33.8120    5.6030  -20.6210 C.2   277  GLU277      0.3649
     25  OE1      -34.9180    6.0130  -20.9940 O.co2 277  GLU277     -0.2457
     26  OE2      -32.8840    5.2980  -21.4100 O.co2 277  GLU277     -0.2457
     27  N        -21.3570    6.6890  -17.6780 N.3   283  ASP283     -0.1239
     28  CA       -20.6910    5.6820  -18.5110 C.3   283  ASP283      0.1674
     29  C        -19.2480    5.4190  -18.0510 C.2   283  ASP283      0.2266
     30  O        -18.4000    5.0660  -18.8570 O.2   283  ASP283     -0.2867
     31  CB       -20.7000    6.1540  -19.9770 C.3   283  ASP283      0.1410
     32  CG       -20.4470    5.0070  -20.9670 C.2   283  ASP283      0.3668
     33  OD1      -20.6110    3.8130  -20.6310 O.co2 283  ASP283     -0.2456
     34  OD2      -20.0330    5.3180  -22.0710 O.co2 283  ASP283     -0.2456
     35  N        -18.1480    1.7910  -18.9790 N.3   286  GLY286     -0.1210
     36  CA       -17.7910    1.7390  -20.4040 C.3   286  GLY286      0.1956
     37  C        -16.5030    2.4700  -20.8030 C.2   286  GLY286      0.2611
     38  O        -15.8040    2.0530  -21.7070 O.2   286  GLY286     -0.2717
     39  N        -16.2200    3.6020  -20.1810 N.am  287  GLN287     -0.1979
     40  CA       -14.9860    4.3200  -20.4310 C.3   287  GLN287      0.1601
     41  C        -13.7630    3.6570  -19.8080 C.2   287  GLN287      0.2287
     42  O        -12.6730    3.8090  -20.3430 O.2   287  GLN287     -0.2864
     43  CB       -15.0840    5.7670  -19.9680 C.3   287  GLN287      0.0394
     44  CG       -16.1400    6.5740  -20.7040 C.3   287  GLN287      0.0908
     45  CD       -16.0590    6.4310  -22.2200 C.2   287  GLN287      0.2608
     46  OE1      -17.0610    6.1230  -22.8980 O.2   287  GLN287     -0.2717
     47  NE2      -14.8670    6.6280  -22.7600 N.am  287  GLN287     -0.0878
     48  N        -11.8080   -1.1260  -21.4410 N.3   290  LYS290     -0.1245
     49  CA       -11.2960   -0.9500  -22.7790 C.3   290  LYS290      0.1561
     50  C        -10.3730   -2.0850  -23.2060 C.2   290  LYS290      0.2260
     51  O         -9.6990   -2.6910  -22.3870 O.2   290  LYS290     -0.2867
     52  CB       -10.4930    0.3480  -22.8210 C.3   290  LYS290      0.0271
     53  CG       -11.3160    1.5960  -22.5840 C.3   290  LYS290      0.0035
     54  CD       -12.3560    1.7630  -23.6590 C.3   290  LYS290      0.0206
     55  CE       -12.8010    3.2000  -23.8070 C.3   290  LYS290      0.1093
     56  NZ       -13.6630    3.3020  -24.9890 N.3   290  LYS290     -0.1314
     57  N        -15.9960   -5.3010  -22.6060 N.3   296  PHE296     -0.1241
     58  CA       -17.1780   -4.5790  -22.1390 C.3   296  PHE296      0.1605
     59  C        -18.4420   -5.1070  -22.7970 C.2   296  PHE296      0.2264
     60  O        -18.5770   -5.0890  -24.0200 O.2   296  PHE296     -0.2867
     61  CB       -17.0530   -3.0860  -22.4440 C.3   296  PHE296      0.0534
     62  CG       -18.1770   -2.2560  -21.9080 C.ar  296  PHE296     -0.0203
     63  CD1      -18.6260   -2.4020  -20.6040 C.ar  296  PHE296     -0.0042
     64  CD2      -18.7710   -1.2750  -22.7070 C.ar  296  PHE296     -0.0042
     65  CE1      -19.6780   -1.6120  -20.1140 C.ar  296  PHE296     -0.0003
     66  CE2      -19.8100   -0.4830  -22.2140 C.ar  296  PHE296     -0.0003
     67  CZ       -20.2460   -0.6410  -20.9220 C.ar  296  PHE296     -0.0000
     68  N        -21.9300   -3.9830  -23.0740 N.3   298  ASN298     -0.1225
     69  CA       -22.8390   -2.8450  -22.8630 C.3   298  ASN298      0.1785
     70  C        -24.2650   -3.3230  -22.9830 C.2   298  ASN298      0.2597
     71  O        -24.5250   -4.3630  -23.5940 O.2   298  ASN298     -0.2718
     72  CB       -22.5530   -1.7410  -23.8960 C.3   298  ASN298      0.1169
     73  CG       -22.9620   -0.3290  -23.4150 C.2   298  ASN298      0.2627
     74  OD1      -23.4860   -0.1370  -22.3270 O.2   298  ASN298     -0.2716
     75  ND2      -22.7010    0.6500  -24.2500 N.am  298  ASN298     -0.0877
     76  N        -25.1910   -2.5430  -22.4460 N.am  299  LYS299     -0.1966
     77  CA       -26.6290   -2.7460  -22.6640 C.3   299  LYS299      0.1728
     78  C        -27.0830   -1.9660  -23.8840 C.2   299  LYS299      0.2616
     79  O        -26.6630   -0.8270  -24.0750 O.2   299  LYS299     -0.2715
     80  CB       -27.4380   -2.2510  -21.4390 C.3   299  LYS299      0.0311
     81  CG       -27.4620   -3.2300  -20.2450 C.3   299  LYS299      0.0038
     82  CD       -28.1640   -2.6840  -18.9740 C.3   299  LYS299      0.0206
     83  CE       -29.5810   -2.1720  -19.2350 C.3   299  LYS299      0.1093
     84  NZ       -30.4160   -3.0780  -20.0470 N.3   299  LYS299     -0.1314
     85  N        -27.9140   -2.6000  -24.7160 N.am  300  THR300     -0.1951
     86  CA       -28.5120   -1.9560  -25.8590 C.3   300  THR300      0.1897
     87  C        -29.9000   -1.4380  -25.5120 C.2   300  THR300      0.2313
     88  O        -30.4950   -0.7570  -26.3090 O.2   300  THR300     -0.2863
     89  CB       -28.6030   -2.9400  -27.0680 C.3   300  THR300      0.1794
     90  OG1      -29.5320   -3.9820  -26.7560 O.3   300  THR300     -0.2208
     91  CG2      -27.2250   -3.5830  -27.3630 C.3   300  THR300      0.0378
     92  N        -32.3950    0.3550  -22.1840 N.3   302  PRO302     -0.2116
     93  CA       -32.3690    0.8590  -20.8090 C.3   302  PRO302      0.1372
     94  C        -32.5970   -0.2790  -19.8030 C.2   302  PRO302      0.2244
     95  O        -32.9410   -1.4040  -20.1940 O.2   302  PRO302     -0.2868
     96  CB       -33.5130    1.8870  -20.7700 C.3   302  PRO302      0.0268
     97  CG       -34.4190    1.5280  -21.8650 C.3   302  PRO302      0.0207
     98  CD       -33.6250    0.7390  -22.9030 C.3   302  PRO302      0.0892
@<TRIPOS>BOND
     1    91    89    1
     2    89    90    1
     3    89    86    1
     4    88    87    2
     5    86    87    1
     6    86    85    1
     7    56    55    1
     8    85    78   am
     9    75    73   am
    10    79    78    2
    11    60    59    2
    12    72    73    1
    13    72    69    1
    14    78    77    1
    15    55    54    1
    16    54    53    1
    17    71    70    2
    18    73    74    2
    19    50    49    1
    20    50    51    2
    21    68    69    1
    22    70    69    1
    23    70    76   am
    24    98    92    1
    25    98    97    1
    26    46    45    2
    27    52    49    1
    28    52    53    1
    29    59    58    1
    30    49    48    1
    31    47    45   am
    32    64    66   ar
    33    64    62   ar
    34    77    76    1
    35    77    80    1
    36    57    58    1
    37    61    58    1
    38    61    62    1
    39    45    44    1
    40    66    67   ar
    41    92    93    1
    42    34    32   ar
    43    62    63   ar
    44    97    96    1
    45    38    37    2
    46    80    81    1
    47    26    24   ar
    48    25    24   ar
    49    32    33   ar
    50    32    31    1
    51    67    65   ar
    52    93    96    1
    53    93    94    1
    54    37    36    1
    55    37    39   am
    56    44    43    1
    57    24    23    1
    58    63    65   ar
    59    40    39    1
    60    40    43    1
    61    40    41    1
    62    36    35    1
    63    42    41    2
    64    81    82    1
    65    95    94    2
    66    84    83    1
    67    31    28    1
    68     9     7   am
    69    83    82    1
    70     5     6    1
    71     5     2    1
    72    23    22    1
    73     6     7    1
    74    30    29    2
    75     7     8    2
    76    28    29    1
    77    28    27    1
    78    17    15    1
    79    22    19    1
    80     1     2    1
    81     2     3    1
    82    15    14    1
    83    19    18    1
    84    19    20    1
    85    16    14    1
    86     3     4    2
    87    21    20    2
    88    14    11    1
    89    11    10    1
    90    11    12    1
    91    12    13    2
