@<TRIPOS>MOLECULE
tmp/3i27D05.pdb
 136 130 0 0 0
SMALL
GASTEIGER

@<TRIPOS>ATOM
      1  N         26.7660   52.9410  -26.5370 N.3    87  PRO87      -0.2116
      2  CA        28.1640   52.7500  -26.0890 C.3    87  PRO87       0.1372
      3  C         28.3410   52.5450  -24.5690 C.2    87  PRO87       0.2244
      4  O         29.3010   51.9080  -24.1660 O.2    87  PRO87      -0.2868
      5  CB        28.8770   54.0070  -26.5880 C.3    87  PRO87       0.0268
      6  CG        28.0350   54.5020  -27.7590 C.3    87  PRO87       0.0207
      7  CD        26.6220   54.0970  -27.4410 C.3    87  PRO87       0.0892
      8  N         14.3130   60.7480  -30.5940 N.3   272  GLN272     -0.1245
      9  CA        15.6760   60.5620  -30.0980 C.3   272  GLN272      0.1566
     10  C         15.6890   59.8340  -28.7660 C.2   272  GLN272      0.2260
     11  O         15.0300   60.2590  -27.8400 O.2   272  GLN272     -0.2867
     12  CB        16.3710   61.9200  -29.9680 C.3   272  GLN272      0.0367
     13  CG        17.7330   61.9340  -29.2650 C.3   272  GLN272      0.0905
     14  CD        18.8550   61.3510  -30.0940 C.2   272  GLN272      0.2608
     15  OE1       18.7410   60.2550  -30.6370 O.2   272  GLN272     -0.2717
     16  NE2       19.9850   62.0720  -30.1410 N.am  272  GLN272     -0.0878
     17  N         18.1800   58.5520  -25.8610 N.3   274  ILE274     -0.1245
     18  CA        19.5010   58.6900  -25.2750 C.3   274  ILE274      0.1561
     19  C         19.4880   58.6250  -23.7390 C.2   274  ILE274      0.2260
     20  O         18.4280   58.6580  -23.0780 O.2   274  ILE274     -0.2867
     21  CB        20.1770   60.0380  -25.7480 C.3   274  ILE274      0.0252
     22  CG1       19.3790   61.2610  -25.2540 C.3   274  ILE274      0.0019
     23  CG2       20.3480   60.0570  -27.2720 C.3   274  ILE274      0.0019
     24  CD1       20.0150   62.6360  -25.5860 C.3   274  ILE274      0.0001
     25  N         23.5800   62.8420  -19.3830 N.3   277  GLU277     -0.1245
     26  CA        24.9650   63.1640  -19.7560 C.3   277  GLU277      0.1567
     27  C         26.0370   62.3370  -19.0800 C.2   277  GLU277      0.2260
     28  O         27.1500   62.2750  -19.5770 O.2   277  GLU277     -0.2867
     29  CB        25.2490   64.6550  -19.5150 C.3   277  GLU277      0.0388
     30  CG        24.5090   65.5220  -20.4820 C.3   277  GLU277      0.1160
     31  CD        24.5560   66.9900  -20.1290 C.2   277  GLU277      0.3649
     32  OE1       24.5010   67.8100  -21.0720 O.co2 277  GLU277     -0.2457
     33  OE2       24.6350   67.3090  -18.9250 O.co2 277  GLU277     -0.2457
     34  N         26.2580   59.1220  -18.9340 N.3   279  TYR279     -0.1227
     35  CA        26.5200   57.9320  -19.7280 C.3   279  TYR279      0.1736
     36  C         26.7510   58.2380  -21.2160 C.2   279  TYR279      0.2595
     37  O         26.2640   59.2430  -21.7360 O.2   279  TYR279     -0.2718
     38  CB        25.3380   56.9790  -19.5780 C.3   279  TYR279      0.0548
     39  CG        25.0940   56.6040  -18.1450 C.ar  279  TYR279     -0.0200
     40  CD1       23.8530   56.8160  -17.5350 C.ar  279  TYR279     -0.0009
     41  CD2       26.1150   56.0470  -17.3880 C.ar  279  TYR279     -0.0009
     42  CE1       23.6490   56.4610  -16.1920 C.ar  279  TYR279      0.0417
     43  CE2       25.9300   55.7000  -16.0740 C.ar  279  TYR279      0.0417
     44  CZ        24.7100   55.9040  -15.4740 C.ar  279  TYR279      0.1957
     45  OH        24.5850   55.5350  -14.1540 O.3   279  TYR279     -0.2866
     46  N         27.4690   57.3410  -21.8930 N.am  280  ALA280     -0.1966
     47  CA        27.7410   57.4640  -23.3200 C.3   280  ALA280      0.1728
     48  C         26.5120   57.0210  -24.1780 C.2   280  ALA280      0.2617
     49  O         26.0030   55.8890  -24.0760 O.2   280  ALA280     -0.2715
     50  CB        29.0220   56.6790  -23.7070 C.3   280  ALA280      0.0334
     51  N         26.0360   57.9440  -25.0140 N.am  281  SER281     -0.1936
     52  CA        24.9690   57.6600  -25.9830 C.3   281  SER281      0.2055
     53  C         25.5260   57.6090  -27.4000 C.2   281  SER281      0.2643
     54  O         26.7260   57.7800  -27.5960 O.2   281  SER281     -0.2714
     55  CB        23.8910   58.7350  -25.8760 C.3   281  SER281      0.2130
     56  OG        23.3320   58.7110  -24.5810 O.3   281  SER281     -0.2179
     57  N         24.6510   57.3480  -28.3750 N.am  282  ASP282     -0.1957
     58  CA        25.0130   57.3890  -29.7890 C.3   282  ASP282      0.1840
     59  C         23.9400   58.1300  -30.5950 C.2   282  ASP282      0.2622
     60  O         22.9040   58.4820  -30.0680 O.2   282  ASP282     -0.2715
     61  CB        25.2190   55.9740  -30.3610 C.3   282  ASP282      0.1450
     62  CG        23.9650   55.1110  -30.2790 C.2   282  ASP282      0.3671
     63  OD1       23.9370   54.2090  -29.4190 O.co2 282  ASP282     -0.2456
     64  OD2       22.9930   55.3390  -31.0480 O.co2 282  ASP282     -0.2456
     65  N         24.1920   58.3300  -31.8800 N.am  283  ASP283     -0.1971
     66  CA        23.2080   58.9630  -32.7640 C.3   283  ASP283      0.1709
     67  C         22.6610   57.9710  -33.8110 C.2   283  ASP283      0.2293
     68  O         22.3330   58.3750  -34.9220 O.2   283  ASP283     -0.2864
     69  CB        23.8450   60.1820  -33.4660 C.3   283  ASP283      0.1436
     70  CG        22.8130   61.1490  -34.0680 C.2   283  ASP283      0.3671
     71  OD1       21.6480   61.1910  -33.6260 O.co2 283  ASP283     -0.2456
     72  OD2       23.1830   61.8810  -35.0090 O.co2 283  ASP283     -0.2456
     73  N         19.0440   58.7780  -34.9870 N.3   286  GLY286     -0.1210
     74  CA        19.0470   59.9400  -35.8670 C.3   286  GLY286      0.1956
     75  C         19.6540   59.6800  -37.2430 C.2   286  GLY286      0.2611
     76  O         19.1740   60.2060  -38.2570 O.2   286  GLY286     -0.2717
     77  N         20.7560   58.9340  -37.2750 N.am  287  GLN287     -0.1979
     78  CA        21.3890   58.5850  -38.5290 C.3   287  GLN287      0.1601
     79  C         20.5300   57.6370  -39.3620 C.2   287  GLN287      0.2287
     80  O         20.5790   57.6870  -40.5930 O.2   287  GLN287     -0.2864
     81  CB        22.7840   57.9760  -38.2850 C.3   287  GLN287      0.0394
     82  CG        23.8090   58.9650  -37.7280 C.3   287  GLN287      0.0908
     83  CD        23.8120   60.3100  -38.4570 C.2   287  GLN287      0.2608
     84  OE1       24.1900   60.3860  -39.6330 O.2   287  GLN287     -0.2717
     85  NE2       23.4130   61.3920  -37.7460 N.am  287  GLN287     -0.0878
     86  N         15.7450   58.7290  -41.5650 N.3   290  LYS290     -0.1245
     87  CA        15.9880   59.6710  -42.6700 C.3   290  LYS290      0.1561
     88  C         14.8000   59.7530  -43.6230 C.2   290  LYS290      0.2260
     89  O         14.0670   58.7740  -43.8240 O.2   290  LYS290     -0.2867
     90  CB        17.1740   59.1870  -43.5260 C.3   290  LYS290      0.0271
     91  CG        18.5570   59.2240  -42.8760 C.3   290  LYS290      0.0035
     92  CD        18.9740   60.6490  -42.5450 C.3   290  LYS290      0.0206
     93  CE        20.3960   60.7390  -41.9530 C.3   290  LYS290      0.1093
     94  NZ        20.4670   61.8600  -40.9750 N.3   290  LYS290     -0.1314
     95  N         12.2720   62.2240  -38.0870 N.3   296  PHE296     -0.1241
     96  CA        13.0770   62.1800  -36.8520 C.3   296  PHE296      0.1605
     97  C         12.7320   63.3570  -35.9620 C.2   296  PHE296      0.2264
     98  O         12.7860   64.4960  -36.4210 O.2   296  PHE296     -0.2867
     99  CB        14.5650   62.1980  -37.1870 C.3   296  PHE296      0.0534
    100  CG        15.4750   62.0870  -35.9730 C.ar  296  PHE296     -0.0203
    101  CD1       15.3000   61.0590  -35.0380 C.ar  296  PHE296     -0.0042
    102  CD2       16.5210   62.9890  -35.7870 C.ar  296  PHE296     -0.0042
    103  CE1       16.1420   60.9470  -33.9290 C.ar  296  PHE296     -0.0003
    104  CE2       17.3740   62.8800  -34.6860 C.ar  296  PHE296     -0.0003
    105  CZ        17.1750   61.8590  -33.7550 C.ar  296  PHE296     -0.0000
    106  N         14.3160   65.0410  -32.9680 N.3   298  ASN298     -0.1225
    107  CA        15.5080   65.0810  -32.1380 C.3   298  ASN298      0.1785
    108  C         15.2460   65.8680  -30.8570 C.2   298  ASN298      0.2597
    109  O         14.3190   66.6980  -30.7800 O.2   298  ASN298     -0.2718
    110  CB        16.6510   65.7140  -32.9140 C.3   298  ASN298      0.1169
    111  CG        18.0400   65.2610  -32.4310 C.2   298  ASN298      0.2627
    112  OD1       18.2050   64.4780  -31.4820 O.2   298  ASN298     -0.2716
    113  ND2       19.0370   65.7400  -33.1150 N.am  298  ASN298     -0.0877
    114  N         16.0450   65.5920  -29.8330 N.am  299  LYS299     -0.1966
    115  CA        16.0640   66.4350  -28.6340 C.3   299  LYS299      0.1728
    116  C         17.0070   67.6240  -28.8460 C.2   299  LYS299      0.2616
    117  O         18.0830   67.4730  -29.4410 O.2   299  LYS299     -0.2715
    118  CB        16.5040   65.6280  -27.4210 C.3   299  LYS299      0.0311
    119  CG        15.3920   64.8510  -26.7350 C.3   299  LYS299      0.0038
    120  CD        15.9490   63.9040  -25.6600 C.3   299  LYS299      0.0206
    121  CE        16.5530   64.6390  -24.4620 C.3   299  LYS299      0.1093
    122  NZ        15.7350   65.8050  -23.9830 N.3   299  LYS299     -0.1314
    123  N         16.5900   68.8040  -28.3730 N.am  300  THR300     -0.1951
    124  CA        17.4790   69.9710  -28.3240 C.3   300  THR300      0.1897
    125  C         18.0770   70.2300  -26.9390 C.2   300  THR300      0.2313
    126  O         18.9040   71.1480  -26.7760 O.2   300  THR300     -0.2863
    127  CB        16.7140   71.2180  -28.7590 C.3   300  THR300      0.1794
    128  OG1       15.6220   71.4310  -27.8580 O.3   300  THR300     -0.2208
    129  CG2       16.1460   70.9940  -30.1300 C.3   300  THR300      0.0378
    130  N         19.5760   68.1070  -23.1830 N.3   302  PRO302     -0.2116
    131  CA        20.0080   66.8000  -22.6900 C.3   302  PRO302      0.1372
    132  C         18.8450   66.0800  -22.0220 C.2   302  PRO302      0.2244
    133  O         17.8270   66.7010  -21.7570 O.2   302  PRO302     -0.2868
    134  CB        21.1050   67.1350  -21.6430 C.3   302  PRO302      0.0268
    135  CG        21.3090   68.6080  -21.6760 C.3   302  PRO302      0.0207
    136  CD        20.1260   69.2260  -22.3850 C.3   302  PRO302      0.0892
@<TRIPOS>BOND
     1    89    88    2
     2    88    87    1
     3    90    91    1
     4    90    87    1
     5    91    92    1
     6    87    86    1
     7    92    93    1
     8    93    94    1
     9    80    79    2
    10    84    83    2
    11    79    78    1
    12    78    81    1
    13    78    77    1
    14    83    85   am
    15    83    82    1
    16    81    82    1
    17    76    75    2
    18    95    96    1
    19    77    75   am
    20    75    74    1
    21    99    96    1
    22    99   100    1
    23    96    97    1
    24    98    97    2
    25   100   102   ar
    26   100   101   ar
    27    74    73    1
    28   102   104   ar
    29   101   103   ar
    30    72    70   ar
    31    68    67    2
    32   104   105   ar
    33    70    71   ar
    34    70    69    1
    35   103   105   ar
    36    67    66    1
    37    69    66    1
    38   113   111   am
    39   106   107    1
    40   110   111    1
    41   110   107    1
    42    66    65    1
    43   111   112    2
    44   107   108    1
    45    65    59   am
    46    64    62   ar
    47   108   109    2
    48   108   114   am
    49    15    14    2
    50    59    60    2
    51    59    58    1
    52     8     9    1
    53    61    62    1
    54    61    58    1
    55    62    63   ar
    56    16    14   am
    57   129   127    1
    58     9    12    1
    59     9    10    1
    60    14    13    1
    61    12    13    1
    62   114   115    1
    63    58    57    1
    64   117   116    2
    65   116   115    1
    66   116   123   am
    67    10    11    2
    68   127   124    1
    69   127   128    1
    70   115   118    1
    71    57    53   am
    72   123   124    1
    73   124   125    1
    74     6     7    1
    75     6     5    1
    76    54    53    2
    77     7     1    1
    78   118   119    1
    79    53    52    1
    80    23    21    1
    81   125   126    2
    82   119   120    1
    83     5     2    1
    84     1     2    1
    85     2     3    1
    86    52    55    1
    87    52    51    1
    88    55    56    1
    89    17    18    1
    90    21    18    1
    91    21    22    1
    92   120   121    1
    93    24    22    1
    94    18    19    1
    95    51    48   am
    96     3     4    2
    97   121   122    1
    98    48    49    2
    99    48    47    1
   100    19    20    2
   101    50    47    1
   102    47    46    1
   103   130   131    1
   104   130   136    1
   105   131   132    1
   106   131   134    1
   107   136   135    1
   108   132   133    2
   109    46    36   am
   110    37    36    2
   111   135   134    1
   112    36    35    1
   113    32    31   ar
   114    30    31    1
   115    30    29    1
   116    31    33   ar
   117    26    29    1
   118    26    25    1
   119    26    27    1
   120    35    38    1
   121    35    34    1
   122    38    39    1
   123    28    27    2
   124    39    40   ar
   125    39    41   ar
   126    40    42   ar
   127    41    43   ar
   128    42    44   ar
   129    43    44   ar
   130    44    45    1
