@<TRIPOS>MOLECULE
tmp/3i28A00.pdb
 253 249 0 0 0
SMALL
GASTEIGER

@<TRIPOS>ATOM
      1  N         68.8340   -9.7990   65.4470 N.3   264  PHE264     -0.1228
      2  CA        69.1180  -11.2290   65.5660 C.3   264  PHE264      0.1721
      3  C         69.4670  -11.6290   67.0140 C.2   264  PHE264      0.2437
      4  O         70.2610  -10.9470   67.6690 O.2   264  PHE264     -0.2733
      5  CB        70.2720  -11.5970   64.6300 C.3   264  PHE264      0.0547
      6  CG        70.6990  -13.0460   64.7330 C.ar  264  PHE264     -0.0202
      7  CD1       71.6120  -13.4500   65.7000 C.ar  264  PHE264     -0.0042
      8  CD2       70.1760  -13.9920   63.8710 C.ar  264  PHE264     -0.0042
      9  CE1       72.0080  -14.7930   65.8050 C.ar  264  PHE264     -0.0003
     10  CE2       70.5550  -15.3340   63.9570 C.ar  264  PHE264     -0.0003
     11  CZ        71.4770  -15.7340   64.9300 C.ar  264  PHE264     -0.0000
     12  N         68.8600  -12.7180   67.5340 N.am  265  PRO265     -0.2729
     13  CA        67.7850  -13.5330   66.9730 C.3   265  PRO265      0.1401
     14  C         66.5500  -13.2000   67.7830 C.2   265  PRO265      0.2269
     15  O         66.3220  -13.7800   68.8450 O.2   265  PRO265     -0.2865
     16  CB        68.2330  -14.9640   67.2990 C.3   265  PRO265      0.0296
     17  CG        69.2650  -14.8060   68.4720 C.3   265  PRO265      0.0237
     18  CD        69.3490  -13.3260   68.7860 C.3   265  PRO265      0.0939
     19  N         69.8520   -3.4440   65.7430 N.3   332  ASP332     -0.1225
     20  CA        70.7100   -4.5440   65.3150 C.3   332  ASP332      0.1805
     21  C         70.5820   -4.7560   63.8010 C.2   332  ASP332      0.2597
     22  O         70.6950   -3.7980   63.0340 O.2   332  ASP332     -0.2718
     23  CB        70.3750   -5.8240   66.1080 C.3   332  ASP332      0.1424
     24  CG        71.3930   -6.9240   65.8920 C.2   332  ASP332      0.3668
     25  OD1       71.0460   -7.9310   65.2440 O.co2 332  ASP332     -0.2456
     26  OD2       72.5540   -6.7700   66.3340 O.co2 332  ASP332     -0.2456
     27  N         70.3590   -5.9960   63.3440 N.am  333  TRP333     -0.1976
     28  CA        70.1460   -6.2130   61.9100 C.3   333  TRP333      0.1640
     29  C         68.9750   -5.3940   61.3510 C.2   333  TRP333      0.2290
     30  O         69.0060   -4.9750   60.1880 O.2   333  TRP333     -0.2864
     31  CB        69.9460   -7.7040   61.5700 C.3   333  TRP333      0.0576
     32  CG        71.2130   -8.4390   61.3210 C.ar  333  TRP333      0.0006
     33  CD1       71.8230   -9.3290   62.1580 C.ar  333  TRP333      0.0946
     34  CD2       72.0490   -8.3390   60.1610 C.ar  333  TRP333      0.0152
     35  NE1       72.9770   -9.8020   61.5850 N.ar  333  TRP333     -0.2442
     36  CE2       73.1380   -9.2130   60.3580 C.ar  333  TRP333      0.0810
     37  CE3       71.9730   -7.6110   58.9680 C.ar  333  TRP333      0.0012
     38  CZ2       74.1500   -9.3680   59.4130 C.ar  333  TRP333      0.0191
     39  CZ3       72.9870   -7.7670   58.0290 C.ar  333  TRP333      0.0001
     40  CH2       74.0580   -8.6370   58.2580 C.ar  333  TRP333      0.0015
     41  N         70.3020   -2.0280   60.4320 N.3   336  MET336     -0.1245
     42  CA        70.9730   -1.9690   59.1400 C.3   336  MET336      0.1570
     43  C         69.9510   -1.9180   57.9950 C.2   336  MET336      0.2261
     44  O         70.1100   -1.1950   57.0030 O.2   336  MET336     -0.2867
     45  CB        71.8790   -3.1830   58.9650 C.3   336  MET336      0.0387
     46  CG        72.6080   -3.2000   57.6390 C.3   336  MET336      0.0595
     47  SD        74.2790   -2.5300   57.7310 S.3   336  MET336     -0.1393
     48  CE        74.0890   -1.0020   58.6490 C.3   336  MET336      0.0692
     49  N         73.0140    0.0900   65.7910 N.3   357  THR357     -0.1218
     50  CA        73.6440   -0.1700   64.5000 C.3   357  THR357      0.1862
     51  C         73.9540    1.1130   63.7550 C.2   357  THR357      0.2287
     52  O         73.0570    1.8770   63.4230 O.2   357  THR357     -0.2866
     53  CB        72.7610   -1.0570   63.6060 C.3   357  THR357      0.1770
     54  OG1       72.3220   -2.1840   64.3650 O.3   357  THR357     -0.2211
     55  CG2       73.5420   -1.5330   62.3810 C.3   357  THR357      0.0375
     56  N         84.1380   -9.4920   65.9560 N.3   378  PHE378     -0.1241
     57  CA        83.2690   -9.9250   64.8660 C.3   378  PHE378      0.1605
     58  C         83.4570  -11.4000   64.5130 C.2   378  PHE378      0.2264
     59  O         82.8500  -11.8820   63.5650 O.2   378  PHE378     -0.2867
     60  CB        83.5130   -9.0690   63.6180 C.3   378  PHE378      0.0534
     61  CG        82.7830   -7.7490   63.6250 C.ar  378  PHE378     -0.0203
     62  CD1       82.2090   -7.2600   64.7880 C.ar  378  PHE378     -0.0042
     63  CD2       82.6890   -6.9890   62.4680 C.ar  378  PHE378     -0.0042
     64  CE1       81.5400   -6.0440   64.7940 C.ar  378  PHE378     -0.0003
     65  CE2       82.0240   -5.7730   62.4680 C.ar  378  PHE378     -0.0003
     66  CZ        81.4480   -5.3000   63.6350 C.ar  378  PHE378     -0.0000
     67  N         82.4600  -14.2800   65.6350 N.3   380  TYR380     -0.1227
     68  CA        81.2940  -15.1470   65.5950 C.3   380  TYR380      0.1736
     69  C         80.6150  -15.1040   64.2210 C.2   380  TYR380      0.2595
     70  O         79.9440  -16.0520   63.8410 O.2   380  TYR380     -0.2718
     71  CB        80.3060  -14.7740   66.7080 C.3   380  TYR380      0.0548
     72  CG        79.6900  -13.4100   66.5140 C.ar  380  TYR380     -0.0200
     73  CD1       78.4670  -13.2670   65.8620 C.ar  380  TYR380     -0.0009
     74  CD2       80.3400  -12.2690   66.9520 C.ar  380  TYR380     -0.0009
     75  CE1       77.9020  -12.0270   65.6770 C.ar  380  TYR380      0.0417
     76  CE2       79.7860  -11.0250   66.7730 C.ar  380  TYR380      0.0417
     77  CZ        78.5690  -10.9080   66.1300 C.ar  380  TYR380      0.1957
     78  OH        78.0190   -9.6700   65.9350 O.3   380  TYR380     -0.2866
     79  N         80.8010  -14.0210   63.4620 N.am  381  GLN381     -0.1979
     80  CA        80.1350  -13.9270   62.1650 C.3   381  GLN381      0.1601
     81  C         80.7060  -14.9280   61.1700 C.2   381  GLN381      0.2287
     82  O         79.9760  -15.4540   60.3270 O.2   381  GLN381     -0.2864
     83  CB        80.1670  -12.5010   61.6090 C.3   381  GLN381      0.0394
     84  CG        79.6040  -11.4620   62.5740 C.3   381  GLN381      0.0908
     85  CD        79.5740  -10.0710   61.9700 C.2   381  GLN381      0.2608
     86  OE1       79.5150   -9.9220   60.7550 O.2   381  GLN381     -0.2717
     87  NE2       79.6130   -9.0470   62.8160 N.am  381  GLN381     -0.0878
     88  N         79.1830  -18.2100   61.7290 N.3   384  PHE384     -0.1241
     89  CA        77.8290  -18.2680   61.1650 C.3   384  PHE384      0.1605
     90  C         77.7710  -18.5890   59.6700 C.2   384  PHE384      0.2264
     91  O         76.7110  -18.9520   59.1470 O.2   384  PHE384     -0.2867
     92  CB        77.0860  -16.9450   61.3990 C.3   384  PHE384      0.0534
     93  CG        76.6870  -16.7110   62.8160 C.ar  384  PHE384     -0.0203
     94  CD1       76.8440  -17.7050   63.7750 C.ar  384  PHE384     -0.0042
     95  CD2       76.1460  -15.4990   63.1990 C.ar  384  PHE384     -0.0042
     96  CE1       76.4750  -17.4830   65.0840 C.ar  384  PHE384     -0.0003
     97  CE2       75.7640  -15.2720   64.5200 C.ar  384  PHE384     -0.0003
     98  CZ        75.9270  -16.2730   65.4610 C.ar  384  PHE384     -0.0000
     99  N         72.5420  -23.5410   68.0380 N.3   394  LEU394     -0.1245
    100  CA        71.4980  -22.6690   68.5610 C.3   394  LEU394      0.1561
    101  C         70.1700  -23.3800   68.7810 C.2   394  LEU394      0.2260
    102  O         69.4080  -22.9990   69.6710 O.2   394  LEU394     -0.2867
    103  CB        71.3070  -21.4470   67.6590 C.3   394  LEU394      0.0270
    104  CG        72.5220  -20.5290   67.5890 C.3   394  LEU394      0.0019
    105  CD1       72.4340  -19.6290   66.3650 C.3   394  LEU394      0.0001
    106  CD2       72.6250  -19.7190   68.8700 C.3   394  LEU394      0.0001
    107  N         71.9750  -15.6320   75.6630 N.3   405  LEU405     -0.1245
    108  CA        72.0740  -14.4210   74.8430 C.3   405  LEU405      0.1561
    109  C         71.5540  -13.1770   75.5650 C.2   405  LEU405      0.2260
    110  O         72.2590  -12.1690   75.6800 O.2   405  LEU405     -0.2867
    111  CB        71.3310  -14.6160   73.5050 C.3   405  LEU405      0.0270
    112  CG        71.9750  -15.6060   72.5320 C.3   405  LEU405      0.0019
    113  CD1       71.0740  -15.8200   71.3130 C.3   405  LEU405      0.0001
    114  CD2       73.3580  -15.1410   72.1130 C.3   405  LEU405      0.0001
    115  N         71.2360  -11.0970   78.1640 N.3   407  ARG407     -0.1245
    116  CA        71.8320  -10.7680   79.4610 C.3   407  ARG407      0.1563
    117  C         72.3470   -9.3290   79.4970 C.2   407  ARG407      0.2260
    118  O         72.9020   -8.8460   78.5120 O.2   407  ARG407     -0.2867
    119  CB        72.9980  -11.7200   79.7700 C.3   407  ARG407      0.0307
    120  CG        72.7640  -13.1610   79.3370 C.3   407  ARG407      0.0489
    121  CD        73.9070  -14.0800   79.7350 C.3   407  ARG407      0.2205
    122  NE        73.4780  -14.9940   80.7800 N.pl3 407  ARG407     -0.0865
    123  CZ        73.2630  -14.6210   82.0310 C.cat 407  ARG407      0.5346
    124  NH1       72.8600  -15.4970   82.9350 N.pl3 407  ARG407      0.1354
    125  NH2       73.4490  -13.3580   82.3690 N.pl3 407  ARG407      0.1354
    126  N         74.7910   -6.0980   80.6870 N.3   409  SER409     -0.1217
    127  CA        76.2440   -5.9750   80.4850 C.3   409  SER409      0.1889
    128  C         77.0960   -6.6050   81.5920 C.2   409  SER409      0.2288
    129  O         78.2100   -7.0730   81.3470 O.2   409  SER409     -0.2866
    130  CB        76.6610   -4.5160   80.2520 C.3   409  SER409      0.2089
    131  OG        76.2110   -3.6740   81.3000 O.3   409  SER409     -0.2183
    132  N         77.1790  -11.0050   81.7260 N.3   412  SER412     -0.1202
    133  CA        77.7390  -11.7550   80.5900 C.3   412  SER412      0.2020
    134  C         78.1150  -13.1890   80.9830 C.2   412  SER412      0.2619
    135  O         78.0560  -13.5310   82.1650 O.2   412  SER412     -0.2717
    136  CB        78.9140  -10.9950   79.9640 C.3   412  SER412      0.2103
    137  OG        78.4810  -10.2140   78.8560 O.3   412  SER412     -0.2182
    138  N         78.5550  -14.0210   80.0400 N.am  413  VAL413     -0.1965
    139  CA        79.0150  -13.6140   78.7090 C.3   413  VAL413      0.1727
    140  C         77.8540  -13.3510   77.7070 C.2   413  VAL413      0.2616
    141  O         76.8290  -12.8150   78.1280 O.2   413  VAL413     -0.2715
    142  CB        80.1400  -14.5740   78.2230 C.3   413  VAL413      0.0290
    143  CG1       81.5200  -13.9720   78.5030 C.3   413  VAL413      0.0023
    144  CG2       79.9950  -15.9600   78.8620 C.3   413  VAL413      0.0023
    145  N         77.9580  -13.6940   76.4170 N.am  414  LEU414     -0.1963
    146  CA        79.0360  -14.4620   75.8030 C.3   414  LEU414      0.1728
    147  C         80.2120  -13.5880   75.3710 C.2   414  LEU414      0.2617
    148  O         80.1120  -12.3590   75.3470 O.2   414  LEU414     -0.2715
    149  CB        78.5040  -15.2440   74.5990 C.3   414  LEU414      0.0311
    150  CG        77.6760  -16.5080   74.8220 C.3   414  LEU414      0.0022
    151  CD1       76.8450  -16.4360   76.0910 C.3   414  LEU414      0.0001
    152  CD2       76.7960  -16.7290   73.6140 C.3   414  LEU414      0.0001
    153  N         81.3230  -14.2400   75.0360 N.am  415  SER415     -0.1936
    154  CA        82.4910  -13.5640   74.4820 C.3   415  SER415      0.2055
    155  C         82.6560  -13.9410   73.0120 C.2   415  SER415      0.2642
    156  O         83.2690  -14.9550   72.6850 O.2   415  SER415     -0.2714
    157  CB        83.7470  -13.9460   75.2600 C.3   415  SER415      0.2130
    158  OG        83.9410  -15.3480   75.2330 O.3   415  SER415     -0.2179
    159  N         82.1170  -13.1110   72.1280 N.am  416  MET416     -0.1976
    160  CA        82.0660  -13.4340   70.7060 C.3   416  MET416      0.1605
    161  C         83.4190  -13.4140   69.9890 C.2   416  MET416      0.2287
    162  O         83.4750  -13.4380   68.7550 O.2   416  MET416     -0.2864
    163  CB        81.0770  -12.5190   69.9810 C.3   416  MET416      0.0413
    164  CG        79.6190  -12.9600   70.0620 C.3   416  MET416      0.0598
    165  SD        78.6570  -11.9100   71.1370 S.3   416  MET416     -0.1393
    166  CE        78.9730  -12.6730   72.7110 C.3   416  MET416      0.0692
    167  N         79.4800  -21.1460   70.0620 N.3   425  LEU425     -0.1245
    168  CA        79.0400  -20.0110   70.8630 C.3   425  LEU425      0.1561
    169  C         79.0300  -20.3290   72.3490 C.2   425  LEU425      0.2260
    170  O         79.4220  -19.4980   73.1760 O.2   425  LEU425     -0.2867
    171  CB        77.6180  -19.5870   70.4550 C.3   425  LEU425      0.0270
    172  CG        77.4440  -18.3690   69.5500 C.3   425  LEU425      0.0019
    173  CD1       78.1090  -17.1420   70.1600 C.3   425  LEU425      0.0001
    174  CD2       78.0090  -18.6560   68.1860 C.3   425  LEU425      0.0001
    175  N         73.1550  -13.2420   57.7670 N.3   463  TYR463     -0.1241
    176  CA        74.6110  -13.0990   57.7990 C.3   463  TYR463      0.1605
    177  C         75.3210  -13.6540   56.5640 C.2   463  TYR463      0.2264
    178  O         76.5290  -13.4640   56.4030 O.2   463  TYR463     -0.2867
    179  CB        75.1760  -13.8820   58.9930 C.3   463  TYR463      0.0534
    180  CG        74.8870  -13.3220   60.3540 C.ar  463  TYR463     -0.0201
    181  CD1       75.7560  -12.4130   60.9490 C.ar  463  TYR463     -0.0009
    182  CD2       73.7680  -13.7350   61.0730 C.ar  463  TYR463     -0.0009
    183  CE1       75.5120  -11.9240   62.2210 C.ar  463  TYR463      0.0417
    184  CE2       73.5180  -13.2600   62.3410 C.ar  463  TYR463      0.0417
    185  CZ        74.3960  -12.3500   62.9100 C.ar  463  TYR463      0.1957
    186  OH        74.1400  -11.8750   64.1670 O.3   463  TYR463     -0.2866
    187  N         77.4240    0.2480   76.5290 N.3   492  LYS492     -0.1231
    188  CA        77.9850   -1.0650   76.8230 C.3   492  LYS492      0.1693
    189  C         77.6340   -2.1620   75.8290 C.2   492  LYS492      0.2592
    190  O         77.6170   -3.3460   76.1910 O.2   492  LYS492     -0.2718
    191  CB        77.5710   -1.5080   78.2280 C.3   492  LYS492      0.0285
    192  CG        77.9110   -0.5100   79.3220 C.3   492  LYS492      0.0035
    193  CD        79.3450   -0.6580   79.7760 C.3   492  LYS492      0.0206
    194  CE        79.6190    0.2090   80.9960 C.3   492  LYS492      0.1093
    195  NZ        78.7660   -0.1730   82.1540 N.3   492  LYS492     -0.1314
    196  N         77.3400   -1.7800   74.5860 N.am  493  ASP493     -0.1960
    197  CA        77.2400   -2.7650   73.5170 C.3   493  ASP493      0.1840
    198  C         78.6560   -3.0350   73.0290 C.2   493  ASP493      0.2622
    199  O         79.2790   -2.1630   72.4290 O.2   493  ASP493     -0.2715
    200  CB        76.3710   -2.2460   72.3700 C.3   493  ASP493      0.1450
    201  CG        76.0730   -3.3100   71.3460 C.2   493  ASP493      0.3671
    202  OD1       76.9250   -4.2040   71.1470 O.co2 493  ASP493     -0.2456
    203  OD2       74.9830   -3.2540   70.7310 O.co2 493  ASP493     -0.2456
    204  N         79.1640   -4.2360   73.2880 N.am  494  PHE494     -0.1960
    205  CA        80.5770   -4.4940   73.1130 C.3   494  PHE494      0.1771
    206  C         80.8670   -4.9970   71.7160 C.2   494  PHE494      0.2619
    207  O         82.0050   -5.3300   71.4020 O.2   494  PHE494     -0.2715
    208  CB        81.1040   -5.4770   74.1720 C.3   494  PHE494      0.0574
    209  CG        80.9580   -4.9860   75.5880 C.ar  494  PHE494     -0.0200
    210  CD1       80.2980   -5.7470   76.5390 C.ar  494  PHE494     -0.0042
    211  CD2       81.4780   -3.7640   75.9650 C.ar  494  PHE494     -0.0042
    212  CE1       80.1650   -5.2960   77.8440 C.ar  494  PHE494     -0.0003
    213  CE2       81.3510   -3.3060   77.2560 C.ar  494  PHE494     -0.0003
    214  CZ        80.6920   -4.0720   78.2030 C.ar  494  PHE494     -0.0000
    215  N         79.8310   -5.0630   70.8790 N.am  495  VAL495     -0.1963
    216  CA        80.0130   -5.4030   69.4770 C.3   495  VAL495      0.1727
    217  C         79.6920   -4.2050   68.5870 C.2   495  VAL495      0.2616
    218  O         80.4970   -3.7970   67.7490 O.2   495  VAL495     -0.2715
    219  CB        79.1260   -6.5870   69.0590 C.3   495  VAL495      0.0290
    220  CG1       79.2290   -6.8100   67.5610 C.3   495  VAL495      0.0023
    221  CG2       79.5270   -7.8400   69.8300 C.3   495  VAL495      0.0023
    222  N         78.4990   -3.6520   68.7770 N.am  496  LEU496     -0.1977
    223  CA        78.0930   -2.4500   68.0690 C.3   496  LEU496      0.1596
    224  C         78.4510   -1.2740   68.9700 C.2   496  LEU496      0.2287
    225  O         77.5890   -0.6590   69.5870 O.2   496  LEU496     -0.2864
    226  CB        76.5890   -2.4920   67.7680 C.3   496  LEU496      0.0297
    227  CG        76.1540   -3.6860   66.9110 C.3   496  LEU496      0.0022
    228  CD1       74.6220   -3.7380   66.7400 C.3   496  LEU496      0.0001
    229  CD2       76.8290   -3.6350   65.5400 C.3   496  LEU496      0.0001
    230  N         73.7440   -4.5360   74.7100 N.3   521  HIS521     -0.1226
    231  CA        73.2470   -4.7420   73.3430 C.3   521  HIS521      0.1752
    232  C         71.7140   -4.8180   73.2260 C.2   521  HIS521      0.2596
    233  O         71.1510   -4.4120   72.2140 O.2   521  HIS521     -0.2718
    234  CB        73.8790   -5.9820   72.7030 C.3   521  HIS521      0.0759
    235  CG        73.3230   -6.3050   71.3480 C.ar  521  HIS521      0.0818
    236  ND1       73.6990   -5.6250   70.2060 N.ar  521  HIS521     -0.2268
    237  CD2       72.4080   -7.2210   70.9570 C.ar  521  HIS521      0.1154
    238  CE1       73.0370   -6.1130   69.1720 C.ar  521  HIS521      0.1986
    239  NE2       72.2390   -7.0740   69.5970 N.ar  521  HIS521     -0.2212
    240  N         71.0480   -5.3560   74.2420 N.am  522  TRP522     -0.1976
    241  CA        69.5950   -5.5700   74.1850 C.3   522  TRP522      0.1640
    242  C         68.8410   -4.3340   74.6620 C.2   522  TRP522      0.2290
    243  O         68.0930   -4.3500   75.6410 O.2   522  TRP522     -0.2864
    244  CB        69.2270   -6.8230   74.9790 C.3   522  TRP522      0.0576
    245  CG        70.1720   -7.9380   74.6490 C.ar  522  TRP522      0.0006
    246  CD1       71.2460   -8.3640   75.3870 C.ar  522  TRP522      0.0946
    247  CD2       70.1580   -8.7330   73.4650 C.ar  522  TRP522      0.0152
    248  NE1       71.8930   -9.3900   74.7310 N.ar  522  TRP522     -0.2442
    249  CE2       71.2390   -9.6390   73.5520 C.ar  522  TRP522      0.0810
    250  CE3       69.3300   -8.7770   72.3410 C.ar  522  TRP522      0.0012
    251  CZ2       71.5150  -10.5720   72.5500 C.ar  522  TRP522      0.0191
    252  CZ3       69.6040   -9.7080   71.3500 C.ar  522  TRP522      0.0001
    253  CH2       70.6830  -10.5960   71.4640 C.ar  522  TRP522      0.0015
@<TRIPOS>BOND
     1   178   177    2
     2   177   176    1
     3    44    43    2
     4    46    47    1
     5    46    45    1
     6    47    48    1
     7   175   176    1
     8   176   179    1
     9    43    42    1
    10    39    40   ar
    11    39    37   ar
    12    40    38   ar
    13    45    42    1
    14    37    34   ar
    15   179   180    1
    16    42    41    1
    17    91    90    2
    18    38    36   ar
    19    90    89    1
    20    34    36   ar
    21    34    32   ar
    22    30    29    2
    23    82    81    2
    24   180   181   ar
    25   180   182   ar
    26    36    35   ar
    27    86    85    2
    28   181   183   ar
    29   182   184   ar
    30    89    92    1
    31    89    88    1
    32    81    80    1
    33    32    31    1
    34    32    33   ar
    35    29    28    1
    36    92    93    1
    37    31    28    1
    38    35    33   ar
    39    83    80    1
    40    83    84    1
    41    28    27    1
    42    85    84    1
    43    85    87   am
    44    80    79    1
    45   183   185   ar
    46   184   185   ar
    47    55    53    1
    48    65    63   ar
    49    65    66   ar
    50    63    61   ar
    51    93    95   ar
    52    93    94   ar
    53   185   186    1
    54    22    21    2
    55    95    97   ar
    56    27    21   am
    57    52    51    2
    58    79    69   am
    59    59    58    2
    60    53    54    1
    61    53    50    1
    62    60    61    1
    63    60    57    1
    64    61    62   ar
    65    66    64   ar
    66    51    50    1
    67    94    96   ar
    68    21    20    1
    69    70    69    2
    70     8    10   ar
    71     8     6   ar
    72    10    11   ar
    73    69    68    1
    74    50    49    1
    75    58    57    1
    76    97    98   ar
    77     5     6    1
    78     5     2    1
    79     6     7   ar
    80    62    64   ar
    81    57    56    1
    82    11     9   ar
    83    96    98   ar
    84    25    24   ar
    85    20    19    1
    86    20    23    1
    87     1     2    1
    88   229   227    1
    89     2     3    1
    90    68    67    1
    91    68    71    1
    92    75    73   ar
    93    75    77   ar
    94     7     9   ar
    95    73    72   ar
    96    24    23    1
    97    24    26   ar
    98    78    77    1
    99    77    76   ar
   100   105   104    1
   101    72    71    1
   102    72    74   ar
   103   228   227    1
   104    76    74   ar
   105   227   226    1
   106    13    16    1
   107    13    12    1
   108    13    14    1
   109     3    12   am
   110     3     4    2
   111    16    17    1
   112    12    18    1
   113   220   219    1
   114   104   103    1
   115   104   106    1
   116   103   100    1
   117   218   217    2
   118   226   223    1
   119    14    15    2
   120    99   100    1
   121   223   222    1
   122   223   224    1
   123   174   172    1
   124    17    18    1
   125   100   101    1
   126   217   222   am
   127   217   216    1
   128   162   161    2
   129   101   102    2
   130   224   225    2
   131   219   216    1
   132   219   221    1
   133   238   239   ar
   134   238   236   ar
   135   216   215    1
   136   172   173    1
   137   172   171    1
   138   239   237   ar
   139   163   164    1
   140   163   160    1
   141   161   160    1
   142   167   168    1
   143   164   165    1
   144   236   235   ar
   145   171   168    1
   146   160   159    1
   147   203   201   ar
   148   168   169    1
   149   215   206   am
   150   237   235   ar
   151   165   166    1
   152   202   201   ar
   153   113   112    1
   154   201   200    1
   155   235   234    1
   156   252   253   ar
   157   252   250   ar
   158   207   206    2
   159   253   251   ar
   160   206   205    1
   161   114   112    1
   162   159   155   am
   163   233   232    2
   164   250   247   ar
   165   169   170    2
   166   200   197    1
   167   199   198    2
   168   112   111    1
   169   251   249   ar
   170   156   155    2
   171   234   231    1
   172   155   154    1
   173   198   204   am
   174   198   197    1
   175   205   204    1
   176   205   208    1
   177   232   231    1
   178   232   240   am
   179   231   230    1
   180   247   249   ar
   181   247   245   ar
   182   111   108    1
   183   197   196    1
   184   249   248   ar
   185   152   150    1
   186   208   209    1
   187   241   240    1
   188   241   242    1
   189   241   244    1
   190   154   153    1
   191   154   157    1
   192   196   189   am
   193   149   150    1
   194   149   146    1
   195   245   244    1
   196   245   246   ar
   197   242   243    2
   198   248   246   ar
   199   150   151    1
   200   108   109    1
   201   108   107    1
   202   153   147   am
   203   158   157    1
   204   148   147    2
   205   147   146    1
   206   109   110    2
   207   209   211   ar
   208   209   210   ar
   209   146   145    1
   210   189   190    2
   211   189   188    1
   212   211   213   ar
   213   145   140   am
   214   187   188    1
   215   210   212   ar
   216   188   191    1
   217   213   214   ar
   218   140   141    2
   219   140   139    1
   220   212   214   ar
   221   115   116    1
   222   142   143    1
   223   142   139    1
   224   142   144    1
   225   191   192    1
   226   118   117    2
   227   139   138    1
   228   137   136    1
   229   192   193    1
   230   120   121    1
   231   120   119    1
   232   116   117    1
   233   116   119    1
   234   121   122    1
   235   193   194    1
   236   136   133    1
   237   138   134   am
   238   130   127    1
   239   130   131    1
   240   127   126    1
   241   127   128    1
   242   133   134    1
   243   133   132    1
   244   122   123    2
   245   134   135    2
   246   194   195    1
   247   129   128    2
   248   123   125    1
   249   123   124    1
