@<TRIPOS>MOLECULE
tmp/3i2kA00.pdb
 135 135 0 0 0
SMALL
GASTEIGER

@<TRIPOS>ATOM
      1  N         -1.5490   67.5550   -5.5620 N.3    43  TYR43      -0.1241
      2  CA        -1.3490   68.3500   -6.7830 C.3    43  TYR43       0.1605
      3  C         -2.4050   68.0710   -7.8550 C.2    43  TYR43       0.2264
      4  O         -2.1160   68.2000   -9.0510 O.2    43  TYR43      -0.2867
      5  CB         0.0450   68.1000   -7.3560 C.3    43  TYR43       0.0534
      6  CG         1.1840   68.1600   -6.3430 C.ar   43  TYR43      -0.0201
      7  CD1        1.4930   69.3420   -5.6660 C.ar   43  TYR43      -0.0009
      8  CD2        1.9590   67.0340   -6.0730 C.ar   43  TYR43      -0.0009
      9  CE1        2.5370   69.3950   -4.7550 C.ar   43  TYR43       0.0417
     10  CE2        2.9990   67.0790   -5.1650 C.ar   43  TYR43       0.0417
     11  CZ         3.2880   68.2580   -4.5060 C.ar   43  TYR43       0.1957
     12  OH         4.3240   68.3090   -3.5960 O.3    43  TYR43      -0.2866
     13  N          1.0730   67.2140    5.9280 N.3    86  HIS86      -0.1241
     14  CA         1.5080   66.0680    6.7510 C.3    86  HIS86       0.1621
     15  C          0.5920   65.6020    7.8900 C.2    86  HIS86       0.2264
     16  O          0.5200   64.4040    8.1620 O.2    86  HIS86      -0.2867
     17  CB         2.9040   66.2850    7.3540 C.3    86  HIS86       0.0745
     18  CG         3.9090   66.8390    6.3920 C.ar   86  HIS86       0.0817
     19  ND1        4.1210   66.2970    5.1400 N.ar   86  HIS86      -0.2268
     20  CD2        4.7840   67.8670    6.5130 C.ar   86  HIS86       0.1154
     21  CE1        5.0810   66.9750    4.5320 C.ar   86  HIS86       0.1986
     22  NE2        5.5020   67.9270    5.3430 N.ar   86  HIS86      -0.2212
     23  N          7.8010   61.7780   -4.1790 N.3   116  SER116     -0.1202
     24  CA         7.8190   63.0310   -3.4230 C.3   116  SER116      0.2020
     25  C          6.6860   63.0000   -2.3790 C.2   116  SER116      0.2618
     26  O          6.6800   62.1220   -1.5370 O.2   116  SER116     -0.2717
     27  CB         7.7490   64.2260   -4.3920 C.3   116  SER116      0.2103
     28  OG         8.1770   65.4430   -3.8000 O.3   116  SER116     -0.2182
     29  N          5.7220   63.9160   -2.4060 N.am  117  TYR117     -0.1975
     30  CA         4.6660   63.9060   -1.3790 C.3   117  TYR117      0.1639
     31  C          3.8310   62.6180   -1.5400 C.2   117  TYR117      0.2290
     32  O          3.2960   62.0940   -0.5660 O.2   117  TYR117     -0.2864
     33  CB         3.7860   65.1500   -1.5310 C.3   117  TYR117      0.0560
     34  CG         2.9550   65.5450   -0.3200 C.ar  117  TYR117     -0.0198
     35  CD1        1.7570   64.9030   -0.0220 C.ar  117  TYR117     -0.0009
     36  CD2        3.3440   66.6010    0.4870 C.ar  117  TYR117     -0.0009
     37  CE1        0.9810   65.2950    1.0550 C.ar  117  TYR117      0.0417
     38  CE2        2.5780   66.9980    1.5750 C.ar  117  TYR117      0.0417
     39  CZ         1.4000   66.3450    1.8500 C.ar  117  TYR117      0.1957
     40  OH         0.6330   66.7450    2.9260 O.3   117  TYR117     -0.2866
     41  N          6.0250   60.2430    0.5490 N.3   120  VAL120     -0.1245
     42  CA         5.9420   60.4690    1.9920 C.3   120  VAL120      0.1561
     43  C          4.6390   59.8820    2.5390 C.2   120  VAL120      0.2260
     44  O          4.6290   59.2310    3.5900 O.2   120  VAL120     -0.2867
     45  CB         6.0030   61.9860    2.3170 C.3   120  VAL120      0.0252
     46  CG1        5.6770   62.2520    3.7900 C.3   120  VAL120      0.0019
     47  CG2        7.3720   62.5750    1.9440 C.3   120  VAL120      0.0019
     48  N         10.2960   64.2030    8.3380 N.3   145  LEU145     -0.1245
     49  CA        10.1100   65.4440    7.5740 C.3   145  LEU145      0.1561
     50  C         11.0560   66.5600    8.0190 C.2   145  LEU145      0.2260
     51  O         11.3740   67.4610    7.2270 O.2   145  LEU145     -0.2867
     52  CB         8.6530   65.9050    7.6260 C.3   145  LEU145      0.0270
     53  CG         7.6700   65.1110    6.7570 C.3   145  LEU145      0.0019
     54  CD1        8.1240   64.9970    5.2900 C.3   145  LEU145      0.0001
     55  CD2        7.3680   63.7430    7.3560 C.3   145  LEU145      0.0001
     56  N         12.1550   67.0860    3.8540 N.3   149  PRO149     -0.2102
     57  CA        12.9400   68.1010    3.1660 C.3   149  PRO149      0.1504
     58  C         13.1120   69.4160    3.9070 C.2   149  PRO149      0.2575
     59  O         13.7350   70.3160    3.3560 O.2   149  PRO149     -0.2718
     60  CB        12.1080   68.3440    1.9130 C.3   149  PRO149      0.0282
     61  CG        10.7040   68.2510    2.4190 C.3   149  PRO149      0.0208
     62  CD        10.7220   67.2150    3.5240 C.3   149  PRO149      0.0893
     63  N         12.5640   69.5680    5.1150 N.am  150  TRP150     -0.1977
     64  CA        12.4260   70.9210    5.6550 C.3   150  TRP150      0.1640
     65  C         13.6360   71.4420    6.4150 C.2   150  TRP150      0.2290
     66  O         13.9490   72.6270    6.2990 O.2   150  TRP150     -0.2864
     67  CB        11.1400   71.0600    6.4780 C.3   150  TRP150      0.0576
     68  CG         9.9170   70.6410    5.7250 C.ar  150  TRP150      0.0006
     69  CD1        8.9910   69.7470    6.1470 C.ar  150  TRP150      0.0946
     70  CD2        9.5190   71.0240    4.3930 C.ar  150  TRP150      0.0152
     71  NE1        8.0260   69.5700    5.1980 N.ar  150  TRP150     -0.2442
     72  CE2        8.3160   70.3400    4.1080 C.ar  150  TRP150      0.0810
     73  CE3       10.0480   71.8830    3.4240 C.ar  150  TRP150      0.0012
     74  CZ2        7.6490   70.4660    2.8960 C.ar  150  TRP150      0.0191
     75  CZ3        9.3700   72.0140    2.2180 C.ar  150  TRP150      0.0001
     76  CH2        8.1900   71.3110    1.9640 C.ar  150  TRP150      0.0015
     77  N         13.7890   75.1640   -0.2450 N.3   161  ALA161     -0.1245
     78  CA        12.7790   74.1200   -0.3870 C.3   161  ALA161      0.1562
     79  C         11.4410   74.5710    0.2020 C.2   161  ALA161      0.2260
     80  O         10.3900   74.4090   -0.4150 O.2   161  ALA161     -0.2867
     81  CB        13.2420   72.8330    0.2870 C.3   161  ALA161      0.0290
     82  N          8.2830   75.3960   -2.2530 N.3   165  TRP165     -0.1241
     83  CA         7.1530   74.4800   -2.1940 C.3   165  TRP165      0.1605
     84  C          5.9030   75.1880   -1.7100 C.2   165  TRP165      0.2264
     85  O          4.8250   74.9740   -2.2430 O.2   165  TRP165     -0.2867
     86  CB         7.4560   73.3040   -1.2840 C.3   165  TRP165      0.0550
     87  CG         6.4050   72.2410   -1.3460 C.ar  165  TRP165      0.0003
     88  CD1        6.1730   71.3930   -2.3770 C.ar  165  TRP165      0.0946
     89  CD2        5.4330   71.9270   -0.3390 C.ar  165  TRP165      0.0152
     90  NE1        5.1210   70.5570   -2.0810 N.ar  165  TRP165     -0.2442
     91  CE2        4.6580   70.8550   -0.8290 C.ar  165  TRP165      0.0810
     92  CE3        5.1490   72.4400    0.9320 C.ar  165  TRP165      0.0012
     93  CZ2        3.6140   70.2910   -0.1010 C.ar  165  TRP165      0.0191
     94  CZ3        4.1040   71.8730    1.6570 C.ar  165  TRP165      0.0001
     95  CH2        3.3600   70.8010    1.1420 C.ar  165  TRP165      0.0015
     96  N         15.8400   64.5290   -1.0430 N.3   260  PHE260     -0.1241
     97  CA        15.4920   63.4400   -0.1300 C.3   260  PHE260      0.1605
     98  C         16.4950   62.2960   -0.0320 C.2   260  PHE260      0.2264
     99  O         16.2330   61.3440    0.6980 O.2   260  PHE260     -0.2867
    100  CB        14.1580   62.8350   -0.5540 C.3   260  PHE260      0.0534
    101  CG        12.9830   63.7350   -0.3450 C.ar  260  PHE260     -0.0203
    102  CD1       12.5620   64.5910   -1.3340 C.ar  260  PHE260     -0.0042
    103  CD2       12.2720   63.6850    0.8310 C.ar  260  PHE260     -0.0042
    104  CE1       11.4520   65.4030   -1.1290 C.ar  260  PHE260     -0.0003
    105  CE2       11.1840   64.4800    1.0380 C.ar  260  PHE260     -0.0003
    106  CZ        10.7690   65.3340    0.0650 C.ar  260  PHE260     -0.0000
    107  N         15.4600   66.5690   -7.9740 N.3   286  HIS286     -0.1241
    108  CA        14.0180   66.3860   -7.8110 C.3   286  HIS286      0.1621
    109  C         13.2260   66.7730   -9.0530 C.2   286  HIS286      0.2264
    110  O         12.2050   66.1530   -9.3630 O.2   286  HIS286     -0.2867
    111  CB        13.5190   67.1940   -6.6030 C.3   286  HIS286      0.0745
    112  CG        12.3670   66.5640   -5.8790 C.ar  286  HIS286      0.0817
    113  ND1       12.4870   65.3660   -5.2110 N.ar  286  HIS286     -0.2268
    114  CD2       11.0950   66.9820   -5.6780 C.ar  286  HIS286      0.1154
    115  CE1       11.3290   65.0580   -4.6480 C.ar  286  HIS286      0.1986
    116  NE2       10.4680   66.0250   -4.9150 N.ar  286  HIS286     -0.2212
    117  N         16.2350   72.0380   -4.3860 N.3   406  LEU406     -0.1231
    118  CA        14.9130   71.5760   -4.8130 C.3   406  LEU406      0.1693
    119  C         14.2310   72.5450   -5.7790 C.2   406  LEU406      0.2592
    120  O         13.8270   72.1430   -6.8710 O.2   406  LEU406     -0.2718
    121  CB        14.0340   71.3190   -3.5810 C.3   406  LEU406      0.0284
    122  CG        14.3280   70.0190   -2.8240 C.3   406  LEU406      0.0019
    123  CD1       13.6350   69.9490   -1.4670 C.3   406  LEU406      0.0001
    124  CD2       13.9100   68.8130   -3.6260 C.3   406  LEU406      0.0001
    125  N         14.1280   73.8140   -5.3810 N.am  407  PHE407     -0.1976
    126  CA        13.3820   74.8370   -6.1220 C.3   407  PHE407      0.1639
    127  C         14.2210   75.9740   -6.6870 C.2   407  PHE407      0.2290
    128  O         13.9060   76.4890   -7.7530 O.2   407  PHE407     -0.2864
    129  CB        12.2740   75.4220   -5.2390 C.3   407  PHE407      0.0560
    130  CG        11.0950   74.5240   -5.1130 C.ar  407  PHE407     -0.0200
    131  CD1       10.0410   74.6140   -6.0110 C.ar  407  PHE407     -0.0042
    132  CD2       11.0380   73.5820   -4.1070 C.ar  407  PHE407     -0.0042
    133  CE1        8.9570   73.7600   -5.9040 C.ar  407  PHE407     -0.0003
    134  CE2        9.9660   72.7120   -4.0170 C.ar  407  PHE407     -0.0003
    135  CZ         8.9360   72.8020   -4.9010 C.ar  407  PHE407     -0.0000
@<TRIPOS>BOND
     1   110   109    2
     2   109   108    1
     3     4     3    2
     4   107   108    1
     5     3     2    1
     6   108   111    1
     7   128   127    2
     8     5     2    1
     9     5     6    1
    10   120   119    2
    11     2     1    1
    12   127   126    1
    13   111   112    1
    14     6     8   ar
    15     6     7   ar
    16   126   125    1
    17   126   129    1
    18     8    10   ar
    19   131   133   ar
    20   131   130   ar
    21   133   135   ar
    22   112   114   ar
    23   112   113   ar
    24   119   125   am
    25   119   118    1
    26   114   116   ar
    27     7     9   ar
    28   129   130    1
    29   113   115   ar
    30    10    11   ar
    31   130   132   ar
    32   116   115   ar
    33   135   134   ar
    34   118   117    1
    35   118   121    1
    36     9    11   ar
    37    11    12    1
    38    27    28    1
    39    27    24    1
    40    23    24    1
    41   132   134   ar
    42   124   122    1
    43   121   122    1
    44    24    25    1
    45   122   123    1
    46    29    25   am
    47    29    30    1
    48    25    26    2
    49    88    90   ar
    50    88    87   ar
    51    82    83    1
    52    85    84    2
    53    83    84    1
    54    83    86    1
    55    90    91   ar
    56    31    30    1
    57    31    32    2
    58    33    30    1
    59    33    34    1
    60    87    86    1
    61    87    89   ar
    62   102   104   ar
    63   102   101   ar
    64   104   106   ar
    65    96    97    1
    66    91    89   ar
    67    91    93   ar
    68   100   101    1
    69   100    97    1
    70    80    79    2
    71    78    77    1
    72    78    79    1
    73    78    81    1
    74   101   103   ar
    75    89    92   ar
    76    34    35   ar
    77    34    36   ar
    78    97    98    1
    79    93    95   ar
    80    98    99    2
    81    35    37   ar
    82   106   105   ar
    83    36    38   ar
    84    41    42    1
    85   103   105   ar
    86    92    94   ar
    87    37    39   ar
    88    95    94   ar
    89    38    39   ar
    90    39    40    1
    91    60    61    1
    92    60    57    1
    93    47    45    1
    94    76    75   ar
    95    76    74   ar
    96    42    45    1
    97    42    43    1
    98    75    73   ar
    99    45    46    1
   100    61    62    1
   101    43    44    2
   102    74    72   ar
   103    57    56    1
   104    57    58    1
   105    59    58    2
   106    73    70   ar
   107    62    56    1
   108    58    63   am
   109    72    70   ar
   110    72    71   ar
   111    70    68   ar
   112    21    19   ar
   113    21    22   ar
   114    63    64    1
   115    19    18   ar
   116    71    69   ar
   117    54    53    1
   118    22    20   ar
   119    64    65    1
   120    64    67    1
   121    68    69   ar
   122    68    67    1
   123    13    14    1
   124    66    65    2
   125    18    20   ar
   126    18    17    1
   127    14    17    1
   128    14    15    1
   129    53    55    1
   130    53    52    1
   131    51    50    2
   132    49    52    1
   133    49    50    1
   134    49    48    1
   135    15    16    2
