@<TRIPOS>MOLECULE
tmp/3i2tA00.pdb
 102 96 0 0 0
SMALL
GASTEIGER

@<TRIPOS>ATOM
      1  N        -37.0420  -68.1740   -6.7350 N.3   357  GLU357     -0.1245
      2  CA       -37.5740  -68.9890   -7.8100 C.3   357  GLU357      0.1567
      3  C        -38.2680  -68.0460   -8.8160 C.2   357  GLU357      0.2260
      4  O        -38.0710  -68.1670  -10.0200 O.2   357  GLU357     -0.2867
      5  CB       -38.5630  -69.9930   -7.2120 C.3   357  GLU357      0.0388
      6  CG       -38.4290  -71.4540   -7.5800 C.3   357  GLU357      0.1160
      7  CD       -39.6800  -72.2700   -7.1230 C.2   357  GLU357      0.3649
      8  OE1      -40.7380  -71.6360   -6.8380 O.co2 357  GLU357     -0.2457
      9  OE2      -39.6180  -73.5320   -7.0490 O.co2 357  GLU357     -0.2457
     10  N        -37.0570  -66.3830  -12.1230 N.3   360  GLU360     -0.1245
     11  CA       -37.0300  -67.1080  -13.3790 C.3   360  GLU360      0.1567
     12  C        -37.7060  -66.2880  -14.4910 C.2   360  GLU360      0.2260
     13  O        -37.4490  -66.4990  -15.6750 O.2   360  GLU360     -0.2867
     14  CB       -37.6590  -68.4910  -13.1970 C.3   360  GLU360      0.0388
     15  CG       -37.7100  -69.3820  -14.4400 C.3   360  GLU360      0.1160
     16  CD       -36.3540  -69.5900  -15.1400 C.2   360  GLU360      0.3649
     17  OE1      -35.2770  -69.6210  -14.4730 O.co2 360  GLU360     -0.2457
     18  OE2      -36.3830  -69.7370  -16.3840 O.co2 360  GLU360     -0.2457
     19  N        -31.4260  -69.7490   -1.0760 N.3   380  GLN380     -0.1245
     20  CA       -31.7010  -70.2690   -2.4210 C.3   380  GLN380      0.1566
     21  C        -31.3540  -69.3310   -3.5760 C.2   380  GLN380      0.2260
     22  O        -31.7050  -69.6200   -4.7150 O.2   380  GLN380     -0.2867
     23  CB       -33.1680  -70.6720   -2.5420 C.3   380  GLN380      0.0367
     24  CG       -33.4620  -72.0600   -2.0410 C.3   380  GLN380      0.0905
     25  CD       -33.2170  -72.2160   -0.5520 C.2   380  GLN380      0.2608
     26  OE1      -32.2360  -72.8400   -0.1370 O.2   380  GLN380     -0.2717
     27  NE2      -34.1080  -71.6490    0.2630 N.am  380  GLN380     -0.0878
     28  N        -28.4720  -68.5020   -5.4410 N.3   382  ARG382     -0.1231
     29  CA       -27.0900  -68.9690   -5.5730 C.3   382  ARG382      0.1694
     30  C        -26.3500  -68.6600   -6.8960 C.2   382  ARG382      0.2592
     31  O        -25.1380  -68.8890   -6.9820 O.2   382  ARG382     -0.2718
     32  CB       -26.9770  -70.4500   -5.1450 C.3   382  ARG382      0.0321
     33  CG       -26.9990  -70.6120   -3.6120 C.3   382  ARG382      0.0489
     34  CD       -27.0740  -72.0740   -3.1210 C.3   382  ARG382      0.2205
     35  NE       -25.7680  -72.7430   -3.1720 N.pl3 382  ARG382     -0.0865
     36  CZ       -25.3920  -73.6260   -4.1040 C.cat 382  ARG382      0.5346
     37  NH1      -26.2230  -73.9850   -5.0800 N.pl3 382  ARG382      0.1354
     38  NH2      -24.1810  -74.1750   -4.0530 N.pl3 382  ARG382      0.1354
     39  N        -27.0580  -68.1280   -7.8970 N.am  383  ASN383     -0.1974
     40  CA       -26.4610  -67.7940   -9.2070 C.3   383  ASN383      0.1688
     41  C        -27.3710  -66.9150  -10.0890 C.2   383  ASN383      0.2292
     42  O        -28.4670  -66.5410   -9.6700 O.2   383  ASN383     -0.2864
     43  CB       -26.0640  -69.0710   -9.9490 C.3   383  ASN383      0.1181
     44  CG       -27.2540  -69.8610  -10.3850 C.2   383  ASN383      0.2629
     45  OD1      -28.1280  -69.3240  -11.0800 O.2   383  ASN383     -0.2716
     46  ND2      -27.3310  -71.1360   -9.9630 N.am  383  ASN383     -0.0877
     47  N        -28.4100  -67.7250  -13.3430 N.3   385  SER385     -0.1202
     48  CA       -28.9930  -68.5050  -14.4350 C.3   385  SER385      0.2020
     49  C        -30.3670  -67.9820  -14.8700 C.2   385  SER385      0.2618
     50  O        -30.8210  -68.2670  -15.9790 O.2   385  SER385     -0.2717
     51  CB       -29.0750  -69.9960  -14.0760 C.3   385  SER385      0.2103
     52  OG       -29.8770  -70.2070  -12.9270 O.3   385  SER385     -0.2182
     53  N        -31.0220  -67.2190  -13.9970 N.am  386  TYR386     -0.1975
     54  CA       -32.2370  -66.4730  -14.3660 C.3   386  TYR386      0.1639
     55  C        -31.9680  -65.6070  -15.5920 C.2   386  TYR386      0.2290
     56  O        -32.8700  -65.3170  -16.3650 O.2   386  TYR386     -0.2864
     57  CB       -32.7160  -65.5940  -13.2020 C.3   386  TYR386      0.0560
     58  CG       -32.7340  -66.3260  -11.8830 C.ar  386  TYR386     -0.0198
     59  CD1      -31.8210  -66.0200  -10.8760 C.ar  386  TYR386     -0.0009
     60  CD2      -33.6370  -67.3670  -11.6630 C.ar  386  TYR386     -0.0009
     61  CE1      -31.8200  -66.7210   -9.6710 C.ar  386  TYR386      0.0417
     62  CE2      -33.6440  -68.0660  -10.4810 C.ar  386  TYR386      0.0417
     63  CZ       -32.7390  -67.7510   -9.4860 C.ar  386  TYR386      0.1957
     64  OH       -32.7870  -68.4650   -8.2990 O.3   386  TYR386     -0.2866
     65  N        -29.7310  -66.3550  -17.9530 N.3   388  ARG388     -0.1245
     66  CA       -29.0120  -67.2200  -18.8880 C.3   388  ARG388      0.1563
     67  C        -29.1770  -66.8430  -20.3620 C.2   388  ARG388      0.2260
     68  O        -28.4290  -67.3310  -21.1990 O.2   388  ARG388     -0.2867
     69  CB       -29.3940  -68.6770  -18.6800 C.3   388  ARG388      0.0307
     70  CG       -30.8040  -69.0420  -19.0590 C.3   388  ARG388      0.0489
     71  CD       -31.0930  -70.4540  -18.5630 C.3   388  ARG388      0.2205
     72  NE       -32.5200  -70.7380  -18.6420 N.pl3 388  ARG388     -0.0865
     73  CZ       -33.4120  -70.4420  -17.6970 C.cat 388  ARG388      0.5346
     74  NH1      -33.0520  -69.8670  -16.5600 N.pl3 388  ARG388      0.1354
     75  NH2      -34.6730  -70.7240  -17.8940 N.pl3 388  ARG388      0.1354
     76  N        -22.9210  -67.7470   -5.7810 N.3   414  TYR414     -0.1227
     77  CA       -21.8290  -68.7210   -5.8190 C.3   414  TYR414      0.1736
     78  C        -21.1870  -68.7350   -7.1970 C.2   414  TYR414      0.2596
     79  O        -19.9950  -69.0300   -7.3510 O.2   414  TYR414     -0.2718
     80  CB       -22.3620  -70.1130   -5.5270 C.3   414  TYR414      0.0548
     81  CG       -22.5230  -70.4450   -4.0600 C.ar  414  TYR414     -0.0200
     82  CD1      -21.7210  -71.4190   -3.4700 C.ar  414  TYR414     -0.0009
     83  CD2      -23.4920  -69.7960   -3.2550 C.ar  414  TYR414     -0.0009
     84  CE1      -21.8580  -71.7470   -2.1360 C.ar  414  TYR414      0.0417
     85  CE2      -23.6330  -70.1220   -1.9060 C.ar  414  TYR414      0.0417
     86  CZ       -22.8060  -71.1040   -1.3640 C.ar  414  TYR414      0.1957
     87  OH       -22.9100  -71.4620   -0.0450 O.3   414  TYR414     -0.2866
     88  N        -22.0030  -68.4250   -8.2010 N.am  415  SER415     -0.1952
     89  CA       -21.5650  -68.3870   -9.5860 C.3   415  SER415      0.1924
     90  C        -22.5020  -67.4660  -10.3220 C.2   415  SER415      0.2314
     91  O        -23.5670  -67.1560   -9.8130 O.2   415  SER415     -0.2863
     92  CB       -21.6110  -69.7810  -10.2040 C.3   415  SER415      0.2116
     93  OG       -22.9070  -70.3340  -10.0980 O.3   415  SER415     -0.2180
     94  N        -23.3130  -67.7830  -14.1010 N.3   417  GLU417     -0.1245
     95  CA       -24.0770  -68.6530  -15.0130 C.3   417  GLU417      0.1567
     96  C        -24.7170  -67.8640  -16.1450 C.2   417  GLU417      0.2260
     97  O        -25.6670  -68.3330  -16.7670 O.2   417  GLU417     -0.2867
     98  CB       -25.1740  -69.4660  -14.2920 C.3   417  GLU417      0.0388
     99  CG       -24.7570  -70.2600  -13.0610 C.3   417  GLU417      0.1160
    100  CD       -23.8690  -71.4390  -13.3840 C.2   417  GLU417      0.3649
    101  OE1      -24.1490  -72.1530  -14.3710 O.co2 417  GLU417     -0.2457
    102  OE2      -22.8900  -71.6660  -12.6480 O.co2 417  GLU417     -0.2457
@<TRIPOS>BOND
     1    68    67    2
     2    67    66    1
     3    70    69    1
     4    70    71    1
     5    66    69    1
     6    66    65    1
     7    72    71    1
     8    72    73    2
     9    75    73    1
    10    73    74    1
    11    97    96    2
    12    18    16   ar
    13    56    55    2
    14    96    95    1
    15    50    49    2
    16    13    12    2
    17    55    54    1
    18    16    17   ar
    19    16    15    1
    20    95    98    1
    21    95    94    1
    22    49    48    1
    23    49    53   am
    24    12    11    1
    25    15    14    1
    26    48    51    1
    27    48    47    1
    28   101   100   ar
    29    54    53    1
    30    54    57    1
    31    98    99    1
    32    51    52    1
    33   100    99    1
    34   100   102   ar
    35    11    14    1
    36    11    10    1
    37    57    58    1
    38    58    60   ar
    39    58    59   ar
    40    60    62   ar
    41    45    44    2
    42    59    61   ar
    43    62    63   ar
    44    44    46   am
    45    44    43    1
    46    90    91    2
    47    90    89    1
    48    92    93    1
    49    92    89    1
    50    41    42    2
    51    41    40    1
    52     4     3    2
    53    43    40    1
    54    61    63   ar
    55    89    88    1
    56    63    64    1
    57    40    39    1
    58     3     2    1
    59    88    78   am
    60    39    30   am
    61     2     5    1
    62     2     1    1
    63     6     5    1
    64     6     7    1
    65    79    78    2
    66    78    77    1
    67     7     9   ar
    68     7     8   ar
    69    31    30    2
    70    30    29    1
    71    77    76    1
    72    77    80    1
    73    29    28    1
    74    29    32    1
    75    80    81    1
    76    32    33    1
    77    37    36    1
    78    22    21    2
    79    36    38    1
    80    36    35    2
    81    81    82   ar
    82    81    83   ar
    83    33    34    1
    84    21    20    1
    85    82    84   ar
    86    83    85   ar
    87    35    34    1
    88    23    20    1
    89    23    24    1
    90    20    19    1
    91    84    86   ar
    92    24    25    1
    93    85    86   ar
    94    86    87    1
    95    25    26    2
    96    25    27   am
