@<TRIPOS>MOLECULE
tmp/3i3aB00.pdb
 113 109 0 0 0
SMALL
GASTEIGER

@<TRIPOS>ATOM
      1  N        -43.8730   19.0820  -50.6350 N.3    68  GLN68      -0.1245
      2  CA       -43.0890   20.1220  -49.9910 C.3    68  GLN68       0.1566
      3  C        -42.1820   19.4200  -48.9590 C.2    68  GLN68       0.2260
      4  O        -42.4450   19.3820  -47.7470 O.2    68  GLN68      -0.2867
      5  CB       -44.0040   21.2270  -49.4250 C.3    68  GLN68       0.0367
      6  CG       -44.4100   22.2690  -50.5090 C.3    68  GLN68       0.0905
      7  CD       -45.6050   23.1830  -50.1710 C.2    68  GLN68       0.2608
      8  OE1      -45.7230   24.2810  -50.7210 O.2    68  GLN68      -0.2717
      9  NE2      -46.4920   22.7300  -49.2940 N.am   68  GLN68      -0.0878
     10  N        -51.1890   17.6520  -52.6540 N.3    95  HIS95      -0.1241
     11  CA       -49.8750   17.1220  -53.0210 C.3    95  HIS95       0.1621
     12  C        -49.8990   15.6130  -53.1850 C.2    95  HIS95       0.2264
     13  O        -50.7030   14.9400  -52.5340 O.2    95  HIS95      -0.2867
     14  CB       -48.8370   17.5180  -51.9660 C.3    95  HIS95       0.0745
     15  CG       -48.4790   18.9710  -51.9930 C.ar   95  HIS95       0.0817
     16  ND1      -47.2260   19.4400  -51.6600 N.ar   95  HIS95      -0.2268
     17  CD2      -49.2150   20.0580  -52.3150 C.ar   95  HIS95       0.1154
     18  CE1      -47.2060   20.7530  -51.7850 C.ar   95  HIS95       0.1986
     19  NE2      -48.4000   21.1540  -52.1780 N.ar   95  HIS95      -0.2212
     20  N        -55.2730   23.0020  -48.1050 N.3   117  HIS117     -0.1241
     21  CA       -54.0650   22.2590  -48.4870 C.3   117  HIS117      0.1621
     22  C        -54.0250   20.8580  -47.8960 C.2   117  HIS117      0.2264
     23  O        -54.3020   20.6700  -46.7180 O.2   117  HIS117     -0.2867
     24  CB       -52.8180   23.0630  -48.1000 C.3   117  HIS117      0.0745
     25  CG       -51.5270   22.3120  -48.2310 C.ar  117  HIS117      0.0817
     26  ND1      -51.0770   21.7980  -49.4280 N.ar  117  HIS117     -0.2268
     27  CD2      -50.5880   21.9920  -47.3070 C.ar  117  HIS117      0.1154
     28  CE1      -49.9120   21.2030  -49.2390 C.ar  117  HIS117      0.1986
     29  NE2      -49.5950   21.3020  -47.9600 N.ar  117  HIS117     -0.2212
     30  N        -51.2070   17.9550  -47.5390 N.3   119  GLY119     -0.1210
     31  CA       -49.7890   17.6250  -47.6910 C.3   119  GLY119      0.1956
     32  C        -49.5460   16.2110  -48.2010 C.2   119  GLY119      0.2611
     33  O        -50.4710   15.3840  -48.2200 O.2   119  GLY119     -0.2717
     34  N        -48.3030   15.9450  -48.6150 N.am  120  HIS120     -0.1975
     35  CA       -47.8880   14.6420  -49.1350 C.3   120  HIS120      0.1656
     36  C        -48.2290   13.4890  -48.2080 C.2   120  HIS120      0.2291
     37  O        -48.0580   13.5900  -46.9920 O.2   120  HIS120     -0.2864
     38  CB       -46.3820   14.6220  -49.4700 C.3   120  HIS120      0.0771
     39  CG       -45.4810   14.8470  -48.2890 C.ar  120  HIS120      0.0820
     40  ND1      -44.9950   13.8170  -47.5130 N.ar  120  HIS120     -0.2267
     41  CD2      -44.9530   15.9830  -47.7730 C.ar  120  HIS120      0.1154
     42  CE1      -44.2320   14.3100  -46.5520 C.ar  120  HIS120      0.1986
     43  NE2      -44.1910   15.6230  -46.6860 N.ar  120  HIS120     -0.2212
     44  N        -54.7940   23.8990  -43.3230 N.3   135  VAL135     -0.1245
     45  CA       -53.6230   23.1560  -43.8080 C.3   135  VAL135      0.1561
     46  C        -53.4150   21.8160  -43.0890 C.2   135  VAL135      0.2260
     47  O        -53.3260   21.7670  -41.8590 O.2   135  VAL135     -0.2867
     48  CB       -52.3130   24.0280  -43.7640 C.3   135  VAL135      0.0252
     49  CG1      -52.4460   25.2820  -44.6310 C.3   135  VAL135      0.0019
     50  CG2      -51.9650   24.4540  -42.3410 C.3   135  VAL135      0.0019
     51  N        -50.5560   19.0500  -42.6850 N.3   137  ALA137     -0.1231
     52  CA       -49.1640   18.6870  -42.9900 C.3   137  ALA137      0.1694
     53  C        -49.1180   17.3120  -43.6400 C.2   137  ALA137      0.2592
     54  O        -50.1480   16.6440  -43.7700 O.2   137  ALA137     -0.2718
     55  CB       -48.2760   18.7300  -41.7320 C.3   137  ALA137      0.0304
     56  N        -47.9210   16.8940  -44.0570 N.am  138  GLY138     -0.1957
     57  CA       -47.7460   15.5780  -44.6760 C.3   138  GLY138      0.1869
     58  C        -48.1100   14.5130  -43.6640 C.2   138  GLY138      0.2309
     59  O        -48.0230   14.7620  -42.4600 O.2   138  GLY138     -0.2863
     60  N        -54.2920   24.4420  -38.5610 N.3   153  ALA153     -0.1231
     61  CA       -53.0670   23.6860  -38.9180 C.3   153  ALA153      0.1694
     62  C        -52.9900   22.3430  -38.1990 C.2   153  ALA153      0.2592
     63  O        -53.0860   22.2750  -36.9670 O.2   153  ALA153     -0.2718
     64  CB       -51.7950   24.5040  -38.6560 C.3   153  ALA153      0.0304
     65  N        -52.8180   21.2700  -38.9640 N.am  154  VAL154     -0.1966
     66  CA       -52.6570   19.9380  -38.3580 C.3   154  VAL154      0.1727
     67  C        -51.2560   19.3710  -38.5900 C.2   154  VAL154      0.2616
     68  O        -50.8230   19.2220  -39.7240 O.2   154  VAL154     -0.2715
     69  CB       -53.7400   18.9320  -38.8400 C.3   154  VAL154      0.0290
     70  CG1      -53.5910   17.5630  -38.1140 C.3   154  VAL154      0.0023
     71  CG2      -55.1420   19.5040  -38.6130 C.3   154  VAL154      0.0023
     72  N        -50.5850   19.0270  -37.4940 N.am  155  HIS155     -0.1959
     73  CA       -49.2050   18.5340  -37.4910 C.3   155  HIS155      0.1787
     74  C        -49.1360   17.1800  -38.1860 C.2   155  HIS155      0.2620
     75  O        -50.0940   16.4130  -38.1610 O.2   155  HIS155     -0.2715
     76  CB       -48.7580   18.3910  -36.0260 C.3   155  HIS155      0.0785
     77  CG       -47.2800   18.2580  -35.8170 C.ar  155  HIS155      0.0821
     78  ND1      -46.5680   17.1340  -36.1830 N.ar  155  HIS155     -0.2267
     79  CD2      -46.3920   19.0810  -35.2030 C.ar  155  HIS155      0.1154
     80  CE1      -45.2990   17.2850  -35.8390 C.ar  155  HIS155      0.1986
     81  NE2      -45.1680   18.4550  -35.2400 N.ar  155  HIS155     -0.2212
     82  N        -47.9980   16.8830  -38.7920 N.am  156  GLN156     -0.1977
     83  CA       -47.7850   15.5950  -39.4290 C.3   156  GLN156      0.1601
     84  C        -47.8900   14.4430  -38.4350 C.2   156  GLN156      0.2287
     85  O        -47.5510   14.5960  -37.2550 O.2   156  GLN156     -0.2864
     86  CB       -46.4360   15.5620  -40.1640 C.3   156  GLN156      0.0394
     87  CG       -45.1790   15.8620  -39.3110 C.3   156  GLN156      0.0908
     88  CD       -44.8460   17.3500  -39.1880 C.2   156  GLN156      0.2608
     89  OE1      -45.7330   18.2200  -39.2040 O.2   156  GLN156     -0.2717
     90  NE2      -43.5520   17.6460  -39.0250 N.am  156  GLN156     -0.0878
     91  N        -54.5820   24.8290  -33.4870 N.3   171  LYS171     -0.1231
     92  CA       -53.2610   24.3090  -33.8020 C.3   171  LYS171      0.1693
     93  C        -53.1970   22.8970  -33.2490 C.2   171  LYS171      0.2592
     94  O        -53.1040   22.7100  -32.0350 O.2   171  LYS171     -0.2718
     95  CB       -52.1650   25.1910  -33.1860 C.3   171  LYS171      0.0285
     96  CG       -50.7330   24.7410  -33.5150 C.3   171  LYS171      0.0035
     97  CD       -49.7890   25.0200  -32.3610 C.3   171  LYS171      0.0206
     98  CE       -48.3720   24.5920  -32.6940 C.3   171  LYS171      0.1093
     99  NZ       -47.4960   24.7400  -31.4710 N.3   171  LYS171     -0.1314
    100  N        -53.2810   21.9060  -34.1420 N.am  172  VAL172     -0.1966
    101  CA       -53.3600   20.5070  -33.7250 C.3   172  VAL172      0.1727
    102  C        -51.9730   19.8390  -33.7470 C.2   172  VAL172      0.2616
    103  O        -51.2810   19.8330  -34.7720 O.2   172  VAL172     -0.2715
    104  CB       -54.4110   19.7200  -34.5460 C.3   172  VAL172      0.0290
    105  CG1      -54.5260   18.2640  -34.0660 C.3   172  VAL172      0.0023
    106  CG2      -55.7770   20.4190  -34.4770 C.3   172  VAL172      0.0023
    107  N        -51.5750   19.3110  -32.5940 N.am  173  VAL173     -0.1977
    108  CA       -50.2710   18.6730  -32.4330 C.3   173  VAL173      0.1596
    109  C        -50.3730   17.1850  -32.0270 C.2   173  VAL173      0.2287
    110  O        -49.3730   16.4740  -32.0140 O.2   173  VAL173     -0.2864
    111  CB       -49.3480   19.4640  -31.4320 C.3   173  VAL173      0.0276
    112  CG1      -48.9250   20.8100  -32.0320 C.3   173  VAL173      0.0022
    113  CG2      -50.0300   19.6630  -30.0720 C.3   173  VAL173      0.0022
@<TRIPOS>BOND
     1    12    11    1
     2    12    13    2
     3    11    10    1
     4    11    14    1
     5    17    19   ar
     6    17    15   ar
     7    19    18   ar
     8    15    14    1
     9    15    16   ar
    10    18    16   ar
    11     8     7    2
    12     1     2    1
    13     6     7    1
    14     6     5    1
    15     7     9   am
    16     2     5    1
    17     2     3    1
    18    38    35    1
    19    38    39    1
    20    26    28   ar
    21    26    25   ar
    22    28    29   ar
    23    35    34    1
    24    35    36    1
    25     3     4    2
    26    34    32   am
    27    21    20    1
    28    21    24    1
    29    21    22    1
    30    39    41   ar
    31    39    40   ar
    32    25    24    1
    33    25    27   ar
    34    33    32    2
    35    36    37    2
    36    32    31    1
    37    29    27   ar
    38    22    23    2
    39    41    43   ar
    40    31    30    1
    41    40    42   ar
    42    43    42   ar
    43    57    56    1
    44    57    58    1
    45    49    48    1
    46    56    53   am
    47    45    48    1
    48    45    44    1
    49    45    46    1
    50    54    53    2
    51    48    50    1
    52    58    59    2
    53    53    52    1
    54    46    47    2
    55    52    51    1
    56    52    55    1
    57    86    83    1
    58    86    87    1
    59    68    67    2
    60    83    82    1
    61    83    84    1
    62    87    88    1
    63    89    88    2
    64    88    90   am
    65    65    66    1
    66    65    62   am
    67    61    64    1
    68    61    60    1
    69    61    62    1
    70    69    71    1
    71    69    66    1
    72    69    70    1
    73    82    74   am
    74    67    66    1
    75    67    72   am
    76    84    85    2
    77    62    63    2
    78    74    75    2
    79    74    73    1
    80    72    73    1
    81    73    76    1
    82    78    80   ar
    83    78    77   ar
    84    76    77    1
    85    80    81   ar
    86    77    79   ar
    87    81    79   ar
    88   103   102    2
    89   104   106    1
    90   104   105    1
    91   104   101    1
    92   100   101    1
    93   100    93   am
    94    92    91    1
    95    92    93    1
    96    92    95    1
    97   102   101    1
    98   102   107   am
    99    96    95    1
   100    96    97    1
   101    93    94    2
   102    98    97    1
   103    98    99    1
   104   107   108    1
   105   108   109    1
   106   108   111    1
   107   112   111    1
   108   109   110    2
   109   111   113    1
