@<TRIPOS>MOLECULE
tmp/3i3xC00.pdb
 161 158 0 0 0
SMALL
GASTEIGER

@<TRIPOS>ATOM
      1  N         13.1680   -8.5810   29.1160 N.3    68  GLN68      -0.1231
      2  CA        12.2920   -9.4690   28.3700 C.3    68  GLN68       0.1698
      3  C         13.1680  -10.1770   27.3120 C.2    68  GLN68       0.2592
      4  O         13.1250   -9.8950   26.1100 O.2    68  GLN68      -0.2718
      5  CB        11.0910   -8.6880   27.8090 C.3    68  GLN68       0.0381
      6  CG        10.1510   -8.2570   28.9550 C.3    68  GLN68       0.0905
      7  CD         9.0270   -7.2850   28.5880 C.2    68  GLN68       0.2608
      8  OE1        7.9900   -7.2860   29.2480 O.2    68  GLN68      -0.2717
      9  NE2        9.2300   -6.4450   27.5710 N.am   68  GLN68      -0.0878
     10  N         13.9990  -11.0780   27.8220 N.am   69  ASP69      -0.1960
     11  CA        15.0080  -11.7980   27.0630 C.3    69  ASP69       0.1840
     12  C         15.0330  -13.1780   27.7140 C.2    69  ASP69       0.2621
     13  O         15.3560  -13.3100   28.8990 O.2    69  ASP69      -0.2715
     14  CB        16.3700  -11.0800   27.1780 C.3    69  ASP69       0.1450
     15  CG        17.4990  -11.7850   26.3970 C.2    69  ASP69       0.3671
     16  OD1       18.6750  -11.5520   26.7290 O.co2  69  ASP69      -0.2456
     17  OD2       17.2350  -12.5740   25.4630 O.co2  69  ASP69      -0.2456
     18  N         14.6270  -14.1920   26.9540 N.am   70  LEU70      -0.1977
     19  CA        14.5800  -15.5740   27.4430 C.3    70  LEU70       0.1596
     20  C         15.9520  -16.1830   27.7720 C.2    70  LEU70       0.2287
     21  O         16.0320  -17.1900   28.4920 O.2    70  LEU70      -0.2864
     22  CB        13.8290  -16.4660   26.4450 C.3    70  LEU70       0.0297
     23  CG        12.3980  -16.9580   26.7320 C.3    70  LEU70       0.0022
     24  CD1       11.4780  -15.8780   27.2700 C.3    70  LEU70       0.0001
     25  CD2       11.8070  -17.5820   25.4760 C.3    70  LEU70       0.0001
     26  N         13.9020   -1.0820   31.1080 N.3    95  HIS95      -0.1241
     27  CA        14.4640   -2.3850   31.4340 C.3    95  HIS95       0.1621
     28  C         15.9700   -2.2820   31.5790 C.2    95  HIS95       0.2264
     29  O         16.5970   -1.5450   30.8390 O.2    95  HIS95      -0.2867
     30  CB        14.0450   -3.4230   30.3820 C.3    95  HIS95       0.0745
     31  CG        12.6110   -3.8490   30.4950 C.ar   95  HIS95       0.0817
     32  ND1       12.2080   -5.1620   30.3610 N.ar   95  HIS95      -0.2268
     33  CD2       11.4870   -3.1370   30.7430 C.ar   95  HIS95       0.1154
     34  CE1       10.9010   -5.2410   30.5330 C.ar   95  HIS95       0.1986
     35  NE2       10.4370   -4.0240   30.7580 N.ar   95  HIS95      -0.2212
     36  N          8.0230    2.1550   26.6450 N.3   117  HIS117     -0.1241
     37  CA         8.8940    1.0370   27.0070 C.3   117  HIS117      0.1621
     38  C         10.2850    1.1420   26.3690 C.2   117  HIS117      0.2264
     39  O         10.4190    1.3840   25.1650 O.2   117  HIS117     -0.2867
     40  CB         8.2230   -0.2870   26.6460 C.3   117  HIS117      0.0745
     41  CG         9.1350   -1.4710   26.7240 C.ar  117  HIS117      0.0817
     42  ND1        9.5830   -1.9920   27.9190 N.ar  117  HIS117     -0.2268
     43  CD2        9.6860   -2.2320   25.7500 C.ar  117  HIS117      0.1154
     44  CE1       10.3650   -3.0300   27.6780 C.ar  117  HIS117      0.1986
     45  NE2       10.4480   -3.1890   26.3700 N.ar  117  HIS117     -0.2212
     46  N         13.5230   -1.2330   26.1190 N.3   119  GLY119     -0.1210
     47  CA        14.0310   -2.5750   26.3150 C.3   119  GLY119      0.1956
     48  C         15.4870   -2.6300   26.7490 C.2   119  GLY119      0.2611
     49  O         16.2500   -1.6500   26.6400 O.2   119  GLY119     -0.2717
     50  N         15.8690   -3.7980   27.2370 N.am  120  HIS120     -0.1975
     51  CA        17.2360   -4.0680   27.6790 C.3   120  HIS120      0.1656
     52  C         18.3070   -3.5640   26.7120 C.2   120  HIS120      0.2291
     53  O         18.1780   -3.7230   25.4810 O.2   120  HIS120     -0.2864
     54  CB        17.4190   -5.5620   28.0040 C.3   120  HIS120      0.0771
     55  CG        17.2370   -6.4960   26.8350 C.ar  120  HIS120      0.0820
     56  ND1       18.2450   -6.7740   25.9320 N.ar  120  HIS120     -0.2267
     57  CD2       16.1840   -7.2690   26.4630 C.ar  120  HIS120      0.1154
     58  CE1       17.8180   -7.6510   25.0410 C.ar  120  HIS120      0.1986
     59  NE2       16.5740   -7.9800   25.3480 N.ar  120  HIS120     -0.2212
     60  N          7.1970    1.5650   21.9040 N.3   135  VAL135     -0.1245
     61  CA         8.0840    0.5090   22.4340 C.3   135  VAL135      0.1561
     62  C          9.4180    0.4450   21.6830 C.2   135  VAL135      0.2260
     63  O          9.4480    0.3710   20.4600 O.2   135  VAL135     -0.2867
     64  CB         7.4010   -0.9140   22.5140 C.3   135  VAL135      0.0252
     65  CG1        6.1090   -0.8750   23.3470 C.3   135  VAL135      0.0019
     66  CG2        7.0920   -1.5030   21.1430 C.3   135  VAL135      0.0019
     67  N         12.4630   -2.0770   21.3570 N.3   137  ALA137     -0.1231
     68  CA        12.9850   -3.4050   21.6330 C.3   137  ALA137      0.1694
     69  C         14.3540   -3.2540   22.2750 C.2   137  ALA137      0.2593
     70  O         14.9070   -2.1500   22.3140 O.2   137  ALA137     -0.2718
     71  CB        13.1070   -4.2160   20.3490 C.3   137  ALA137      0.0304
     72  N         14.9030   -4.3650   22.7610 N.am  138  GLY138     -0.1942
     73  CA        16.2490   -4.3820   23.2750 C.3   138  GLY138      0.2014
     74  C         17.2010   -3.8480   22.2250 C.2   138  GLY138      0.2638
     75  O         16.8950   -3.9020   21.0210 O.2   138  GLY138     -0.2714
     76  N         18.3500   -3.3260   22.6610 N.am  139  HIS139     -0.1973
     77  CA        19.3990   -2.9130   21.7260 C.3   139  HIS139      0.1656
     78  C         18.9890   -1.8560   20.6870 C.2   139  HIS139      0.2291
     79  O         19.4910   -1.8780   19.5540 O.2   139  HIS139     -0.2864
     80  CB        19.9680   -4.1370   20.9890 C.3   139  HIS139      0.0771
     81  CG        20.6920   -5.0970   21.8800 C.ar  139  HIS139      0.0820
     82  ND1       21.9290   -4.8150   22.4250 N.ar  139  HIS139     -0.2267
     83  CD2       20.3590   -6.3290   22.3220 C.ar  139  HIS139      0.1154
     84  CE1       22.3310   -5.8410   23.1510 C.ar  139  HIS139      0.1986
     85  NE2       21.3980   -6.7740   23.1020 N.ar  139  HIS139     -0.2212
     86  N          6.7420    1.1340   17.2070 N.3   153  ALA153     -0.1231
     87  CA         7.5570    0.0080   17.6150 C.3   153  ALA153      0.1694
     88  C          8.8710    0.0670   16.8570 C.2   153  ALA153      0.2592
     89  O          8.8660    0.1530   15.6260 O.2   153  ALA153     -0.2718
     90  CB         6.8450   -1.2880   17.3180 C.3   153  ALA153      0.0304
     91  N          9.9880   -0.0070   17.5900 N.am  154  VAL154     -0.1966
     92  CA        11.3480   -0.0340   16.9890 C.3   154  VAL154      0.1727
     93  C         12.0270   -1.3810   17.2490 C.2   154  VAL154      0.2616
     94  O         12.1210   -1.8540   18.4060 O.2   154  VAL154     -0.2715
     95  CB        12.2630    1.1120   17.5150 C.3   154  VAL154      0.0290
     96  CG1       13.5580    1.1730   16.7110 C.3   154  VAL154      0.0023
     97  CG2       11.5600    2.4460   17.4230 C.3   154  VAL154      0.0023
     98  N         12.4760   -1.9880   16.1530 N.am  155  HIS155     -0.1959
     99  CA        13.1610   -3.2800   16.1340 C.3   155  HIS155      0.1787
    100  C         14.5520   -3.2160   16.7860 C.2   155  HIS155      0.2620
    101  O         15.2570   -2.2160   16.6690 O.2   155  HIS155     -0.2715
    102  CB        13.3140   -3.6870   14.6710 C.3   155  HIS155      0.0785
    103  CG        13.6080   -5.1360   14.4480 C.ar  155  HIS155      0.0821
    104  ND1       14.8690   -5.6770   14.6100 N.ar  155  HIS155     -0.2267
    105  CD2       12.8180   -6.1430   14.0010 C.ar  155  HIS155      0.1154
    106  CE1       14.8330   -6.9630   14.3040 C.ar  155  HIS155      0.1986
    107  NE2       13.6020   -7.2700   13.9300 N.ar  155  HIS155     -0.2212
    108  N         14.9290   -4.3050   17.4500 N.am  156  GLN156     -0.1963
    109  CA        16.2840   -4.5370   17.9660 C.3   156  GLN156      0.1733
    110  C         17.3430   -4.1770   16.9370 C.2   156  GLN156      0.2616
    111  O         17.2150   -4.5270   15.7630 O.2   156  GLN156     -0.2715
    112  CB        16.5140   -6.0190   18.3520 C.3   156  GLN156      0.0408
    113  CG        15.3530   -6.7570   19.0070 C.3   156  GLN156      0.0908
    114  CD        14.2760   -7.2490   18.0220 C.2   156  GLN156      0.2608
    115  OE1       13.3610   -6.5080   17.6690 O.2   156  GLN156     -0.2717
    116  NE2       14.3740   -8.5170   17.6090 N.am  156  GLN156     -0.0878
    117  N         18.3810   -3.4930   17.4140 N.am  157  PHE157     -0.1974
    118  CA        19.6030   -3.2030   16.6550 C.3   157  PHE157      0.1639
    119  C         19.4900   -2.0490   15.6520 C.2   157  PHE157      0.2290
    120  O         20.4020   -1.8170   14.8490 O.2   157  PHE157     -0.2864
    121  CB        20.1790   -4.4710   16.0210 C.3   157  PHE157      0.0560
    122  CG        20.5500   -5.5240   17.0300 C.ar  157  PHE157     -0.0200
    123  CD1       21.5990   -5.3070   17.9270 C.ar  157  PHE157     -0.0042
    124  CD2       19.8550   -6.7270   17.0760 C.ar  157  PHE157     -0.0042
    125  CE1       21.9410   -6.2730   18.8650 C.ar  157  PHE157     -0.0003
    126  CE2       20.1900   -7.7040   18.0010 C.ar  157  PHE157     -0.0003
    127  CZ        21.2320   -7.4790   18.9060 C.ar  157  PHE157     -0.0000
    128  N          6.1000    1.2180   12.0830 N.3   171  LYS171     -0.1231
    129  CA         6.8260   -0.0070   12.3390 C.3   171  LYS171      0.1693
    130  C          8.2450    0.1970   11.8340 C.2   171  LYS171      0.2592
    131  O          8.4910    0.1510   10.6120 O.2   171  LYS171     -0.2718
    132  CB         6.1420   -1.1880   11.6250 C.3   171  LYS171      0.0285
    133  CG         6.6490   -2.5560   12.0420 C.3   171  LYS171      0.0035
    134  CD         6.7710   -3.4720   10.8320 C.3   171  LYS171      0.0206
    135  CE         7.2700   -4.8580   11.2090 C.3   171  LYS171      0.1093
    136  NZ         7.5680   -5.6550    9.9870 N.3   171  LYS171     -0.1314
    137  N          9.1710    0.4150   12.7780 N.am  172  VAL172     -0.1966
    138  CA        10.5900    0.6300   12.4580 C.3   172  VAL172      0.1727
    139  C         11.4190   -0.6660   12.4930 C.2   172  VAL172      0.2616
    140  O         11.5870   -1.3070   13.5620 O.2   172  VAL172     -0.2715
    141  CB        11.2330    1.7120   13.3490 C.3   172  VAL172      0.0290
    142  CG1       12.7540    1.9040   13.0160 C.3   172  VAL172      0.0023
    143  CG2       10.4820    3.0390   13.2190 C.3   172  VAL172      0.0023
    144  N         11.9290   -1.0420   11.3170 N.am  173  VAL173     -0.1977
    145  CA        12.7200   -2.2630   11.1690 C.3   173  VAL173      0.1596
    146  C         14.1860   -2.0190   10.7360 C.2   173  VAL173      0.2287
    147  O         15.0240   -2.9040   10.8510 O.2   173  VAL173     -0.2864
    148  CB        12.0160   -3.3240   10.2680 C.3   173  VAL173      0.0276
    149  CG1       10.7080   -3.7520   10.9020 C.3   173  VAL173      0.0022
    150  CG2       11.8040   -2.8140    8.8200 C.3   173  VAL173      0.0022
    151  N         21.7830   -2.7620   10.3660 N.3   253  ARG253     -0.1245
    152  CA        20.5930   -3.3240    9.7020 C.3   253  ARG253      0.1563
    153  C         20.2480   -2.7350    8.3220 C.2   253  ARG253      0.2260
    154  O         19.3860   -3.2690    7.6190 O.2   253  ARG253     -0.2867
    155  CB        19.3760   -3.2220   10.6170 C.3   253  ARG253      0.0307
    156  CG        19.5110   -4.0720   11.8680 C.3   253  ARG253      0.0489
    157  CD        18.2820   -3.9990   12.7330 C.3   253  ARG253      0.2205
    158  NE        17.0560   -4.3330   12.0100 N.pl3 253  ARG253     -0.0865
    159  CZ        16.6570   -5.5690   11.7410 C.cat 253  ARG253      0.5346
    160  NH1       17.3880   -6.6070   12.1170 N.pl3 253  ARG253      0.1354
    161  NH2       15.5190   -5.7760   11.0930 N.pl3 253  ARG253      0.1354
@<TRIPOS>BOND
     1   154   153    2
     2   153   152    1
     3   150   148    1
     4   152   151    1
     5   152   155    1
     6   136   135    1
     7   148   149    1
     8   148   145    1
     9   131   130    2
    10   155   156    1
    11   146   147    2
    12   146   145    1
    13   134   135    1
    14   134   133    1
    15   161   159    1
    16   145   144    1
    17   144   139   am
    18   132   133    1
    19   132   129    1
    20   159   158    2
    21   159   160    1
    22   130   129    1
    23   130   137   am
    24   156   157    1
    25   158   157    1
    26   128   129    1
    27   138   139    1
    28   138   137    1
    29   138   141    1
    30   139   140    2
    31   142   141    1
    32   143   141    1
    33   107   105   ar
    34   107   106   ar
    35   105   103   ar
    36   106   104   ar
    37   103   104   ar
    38   103   102    1
    39   102    99    1
    40   120   119    2
    41    89    88    2
    42   119   118    1
    43   111   110    2
    44   121   118    1
    45   121   122    1
    46    99    98    1
    47    99   100    1
    48    98    93   am
    49   118   117    1
    50   101   100    2
    51    96    95    1
    52   100   108   am
    53    88    91   am
    54    88    87    1
    55   110   117   am
    56   110   109    1
    57    92    93    1
    58    92    95    1
    59    92    91    1
    60   122   124   ar
    61   122   123   ar
    62   124   126   ar
    63    86    87    1
    64    93    94    2
    65    90    87    1
    66    97    95    1
    67   108   109    1
    68   116   114   am
    69   115   114    2
    70   123   125   ar
    71   109   112    1
    72   126   127   ar
    73   114   113    1
    74   112   113    1
    75   125   127   ar
    76    79    78    2
    77    71    68    1
    78    63    62    2
    79    78    77    1
    80    80    77    1
    81    80    81    1
    82    75    74    2
    83    66    64    1
    84    67    68    1
    85    68    69    1
    86    62    61    1
    87    77    76    1
    88    81    83   ar
    89    81    82   ar
    90    60    61    1
    91    74    76   am
    92    74    73    1
    93    69    70    2
    94    69    72   am
    95    83    85   ar
    96    82    84   ar
    97    61    64    1
    98    64    65    1
    99    72    73    1
   100    85    84   ar
   101    58    59   ar
   102    58    56   ar
   103    39    38    2
   104    59    57   ar
   105    17    15   ar
   106    25    23    1
   107    53    52    2
   108    43    45   ar
   109    43    41   ar
   110    56    55   ar
   111     4     3    2
   112    46    47    1
   113    47    48    1
   114    38    37    1
   115    45    44   ar
   116    15    16   ar
   117    15    14    1
   118    22    23    1
   119    22    19    1
   120    57    55   ar
   121    49    48    2
   122    36    37    1
   123    40    41    1
   124    40    37    1
   125    52    51    1
   126    41    42   ar
   127    23    24    1
   128    48    50   am
   129    55    54    1
   130    18    19    1
   131    18    12   am
   132    11    14    1
   133    11    12    1
   134    11    10    1
   135    50    51    1
   136     3    10   am
   137     3     2    1
   138    19    20    1
   139     9     7   am
   140    44    42   ar
   141    51    54    1
   142    12    13    2
   143    20    21    2
   144     5     2    1
   145     5     6    1
   146     2     1    1
   147     7     6    1
   148     7     8    2
   149    32    31   ar
   150    32    34   ar
   151    30    31    1
   152    30    27    1
   153    31    33   ar
   154    34    35   ar
   155    33    35   ar
   156    29    28    2
   157    26    27    1
   158    27    28    1
