@<TRIPOS>MOLECULE
tmp/3i3yD00.pdb
 122 109 0 0 0
SMALL
GASTEIGER

@<TRIPOS>ATOM
      1  N        -11.3990   43.8570   62.5640 N.3     8  ASN8       -0.1240
      2  CA       -11.0430   42.8970   63.5890 C.3     8  ASN8        0.1653
      3  C        -10.6760   43.5410   64.9210 C.2     8  ASN8        0.2266
      4  O        -10.3830   44.7390   64.9930 O.2     8  ASN8       -0.2867
      5  CB        -9.8730   42.0370   63.1240 C.3     8  ASN8        0.1155
      6  CG        -8.5850   42.8180   63.0240 C.2     8  ASN8        0.2627
      7  OD1       -7.4970   42.2400   62.9790 O.2     8  ASN8       -0.2716
      8  ND2       -8.6970   44.1410   62.9770 N.am    8  ASN8       -0.0877
      9  N         -8.1620   42.5820   68.2250 N.3    10  THR10      -0.1218
     10  CA        -7.1120   41.6650   68.6420 C.3    10  THR10       0.1862
     11  C         -6.4500   42.0460   69.9620 C.2    10  THR10       0.2287
     12  O         -6.7020   43.1070   70.5400 O.2    10  THR10      -0.2866
     13  CB        -5.9840   41.6430   67.6320 C.3    10  THR10       0.1770
     14  OG1       -5.2590   42.8760   67.7390 O.3    10  THR10      -0.2211
     15  CG2       -6.5220   41.4970   66.2190 C.3    10  THR10       0.0375
     16  N         -2.8110   42.7270   71.2060 N.3    12  ASP12      -0.1239
     17  CA        -1.4760   42.9940   70.6800 C.3    12  ASP12       0.1674
     18  C         -0.3370   42.6230   71.6450 C.2    12  ASP12       0.2266
     19  O         -0.2790   43.1130   72.7770 O.2    12  ASP12      -0.2867
     20  CB        -1.3520   44.4810   70.3100 C.3    12  ASP12       0.1410
     21  CG        -1.9480   44.8100   68.9400 C.2    12  ASP12       0.3668
     22  OD1       -2.7050   43.9870   68.3820 O.co2  12  ASP12      -0.2456
     23  OD2       -1.6580   45.9110   68.4280 O.co2  12  ASP12      -0.2456
     24  N         -6.0470   45.6280   70.6700 N.3    37  GLY37      -0.1210
     25  CA        -5.7420   46.3120   69.4280 C.3    37  GLY37       0.1956
     26  C         -6.5480   45.8140   68.2460 C.2    37  GLY37       0.2612
     27  O         -7.6690   45.3200   68.3960 O.2    37  GLY37      -0.2717
     28  N         -5.9650   45.9410   67.0610 N.am   38  GLY38      -0.1942
     29  CA        -6.6420   45.5140   65.8510 C.3    38  GLY38       0.2014
     30  C         -7.1540   46.6720   65.0040 C.2    38  GLY38       0.2638
     31  O         -7.6910   47.6500   65.5370 O.2    38  GLY38      -0.2714
     32  N         -6.9640   46.5700   63.6860 N.am   39  LYS39      -0.1977
     33  CA        -7.4260   47.5940   62.7470 C.3    39  LYS39       0.1596
     34  C         -8.9490   47.6020   62.8270 C.2    39  LYS39       0.2287
     35  O         -9.5800   46.5570   62.9540 O.2    39  LYS39      -0.2864
     36  CB        -7.0300   47.2320   61.3150 C.3    39  LYS39       0.0298
     37  CG        -5.5670   46.9690   61.0840 C.3    39  LYS39       0.0038
     38  CD        -4.8540   48.1820   60.5300 C.3    39  LYS39       0.0206
     39  CE        -3.4530   47.7970   60.0660 C.3    39  LYS39       0.1093
     40  NZ        -2.4250   48.7560   60.5530 N.3    39  LYS39      -0.1314
     41  N         -9.1690   49.6500   66.5900 N.3    42  ASN42      -0.1240
     42  CA        -8.4110   50.8680   66.8800 C.3    42  ASN42       0.1653
     43  C         -9.0860   52.0890   66.2330 C.2    42  ASN42       0.2266
     44  O         -9.2350   53.1610   66.8580 O.2    42  ASN42      -0.2867
     45  CB        -6.9920   50.7670   66.3050 C.3    42  ASN42       0.1155
     46  CG        -6.1190   49.7450   67.0230 C.2    42  ASN42       0.2627
     47  OD1       -6.5470   49.1120   67.9940 O.2    42  ASN42      -0.2716
     48  ND2       -4.8740   49.5830   66.5430 N.am   42  ASN42      -0.0877
     49  N         -2.1970   39.6990   67.5460 N.3    92  SER92      -0.1217
     50  CA        -1.1830   40.1510   66.6080 C.3    92  SER92       0.1889
     51  C          0.1870   40.1950   67.2860 C.2    92  SER92       0.2288
     52  O          0.3440   40.7370   68.3810 O.2    92  SER92      -0.2866
     53  CB        -1.5420   41.5460   66.0710 C.3    92  SER92       0.2089
     54  OG        -2.7870   41.5300   65.3520 O.3    92  SER92      -0.2183
     55  N          3.7790   41.6690   67.2170 N.3    94  ILE94      -0.1245
     56  CA         4.4480   42.8130   66.6210 C.3    94  ILE94       0.1561
     57  C          5.9070   42.6570   66.9830 C.2    94  ILE94       0.2260
     58  O          6.2560   42.7260   68.1530 O.2    94  ILE94      -0.2867
     59  CB         3.9320   44.1490   67.2060 C.3    94  ILE94       0.0252
     60  CG1        2.5170   44.4350   66.6860 C.3    94  ILE94       0.0019
     61  CG2        4.8160   45.2930   66.7800 C.3    94  ILE94       0.0019
     62  CD1        1.4690   44.4540   67.7620 C.3    94  ILE94       0.0001
     63  N          4.2330   43.0470   61.6570 N.3   104  ILE104     -0.1245
     64  CA         3.1370   42.3930   62.3550 C.3   104  ILE104      0.1561
     65  C          2.7020   41.1000   61.6710 C.2   104  ILE104      0.2260
     66  O          2.9600   40.8850   60.4880 O.2   104  ILE104     -0.2867
     67  CB         1.8800   43.3150   62.4630 C.3   104  ILE104      0.0252
     68  CG1        2.2330   44.6190   63.1590 C.3   104  ILE104      0.0019
     69  CG2        0.7760   42.6320   63.2670 C.3   104  ILE104      0.0019
     70  CD1        2.8780   45.5880   62.2580 C.3   104  ILE104      0.0001
     71  N         -0.9310   38.8390   62.0760 N.3   106  THR106     -0.1218
     72  CA        -2.2120   38.7970   62.7600 C.3   106  THR106      0.1862
     73  C         -3.0010   37.5400   62.4370 C.2   106  THR106      0.2287
     74  O         -2.9020   36.9960   61.3400 O.2   106  THR106     -0.2866
     75  CB        -3.0750   40.0400   62.3960 C.3   106  THR106      0.1770
     76  OG1       -2.3420   41.2360   62.6910 O.3   106  THR106     -0.2211
     77  CG2       -4.3900   40.0420   63.1820 C.3   106  THR106      0.0375
     78  N         -8.5020   43.1490   56.6540 N.3   135  ASN135     -0.1240
     79  CA        -8.4110   41.8530   57.3210 C.3   135  ASN135      0.1653
     80  C         -9.3580   40.7670   56.8210 C.2   135  ASN135      0.2266
     81  O         -9.3070   39.6280   57.2930 O.2   135  ASN135     -0.2867
     82  CB        -8.5480   42.0260   58.8420 C.3   135  ASN135      0.1155
     83  CG        -7.3020   42.6260   59.4610 C.2   135  ASN135      0.2627
     84  OD1       -7.3330   43.7220   60.0250 O.2   135  ASN135     -0.2716
     85  ND2       -6.1890   41.9150   59.3430 N.am  135  ASN135     -0.0877
     86  N         -3.8510   44.8590   56.4890 N.3   160  PRO160     -0.2116
     87  CA        -2.7840   44.3120   55.6420 C.3   160  PRO160      0.1372
     88  C         -3.1510   44.2540   54.1640 C.2   160  PRO160      0.2244
     89  O         -4.3190   44.0630   53.8030 O.2   160  PRO160     -0.2868
     90  CB        -2.5510   42.9220   56.2390 C.3   160  PRO160      0.0268
     91  CG        -3.8980   42.5600   56.7590 C.3   160  PRO160      0.0207
     92  CD        -4.3350   43.8310   57.4270 C.3   160  PRO160      0.0892
     93  N          3.3580   51.7020   66.9750 N.3   224  THR224     -0.1203
     94  CA         2.0820   51.0250   66.8060 C.3   224  THR224      0.1994
     95  C          0.8500   51.9290   66.9490 C.2   224  THR224      0.2618
     96  O          0.7950   52.7860   67.8320 O.2   224  THR224     -0.2717
     97  CB         1.9700   49.8700   67.8150 C.3   224  THR224      0.1784
     98  OG1        3.1340   49.0390   67.7040 O.3   224  THR224     -0.2211
     99  CG2        0.7250   49.0290   67.5430 C.3   224  THR224      0.0376
    100  N         -0.1280   51.7240   66.0650 N.am  225  GLY225     -0.1956
    101  CA        -1.3680   52.4860   66.0970 C.3   225  GLY225      0.1869
    102  C         -1.3890   53.8770   65.4780 C.2   225  GLY225      0.2309
    103  O         -2.4300   54.5310   65.4740 O.2   225  GLY225     -0.2863
    104  N         -1.0190   54.7790   62.2530 N.3   227  GLY227     -0.1210
    105  CA        -1.7920   54.8110   61.0250 C.3   227  GLY227      0.1956
    106  C         -3.2810   54.9160   61.2740 C.2   227  GLY227      0.2611
    107  O         -3.9620   55.7590   60.6850 O.2   227  GLY227     -0.2717
    108  N         -3.7860   54.0570   62.1570 N.am  228  ASP228     -0.1973
    109  CA        -5.1990   54.0350   62.5030 C.3   228  ASP228      0.1709
    110  C         -5.6200   55.3020   63.2450 C.2   228  ASP228      0.2293
    111  O         -6.7530   55.7610   63.1150 O.2   228  ASP228     -0.2864
    112  CB        -5.4990   52.8140   63.3620 C.3   228  ASP228      0.1436
    113  CG        -5.0550   51.5200   62.7050 C.2   228  ASP228      0.3671
    114  OD1       -5.3770   51.3260   61.5070 O.co2 228  ASP228     -0.2456
    115  OD2       -4.3940   50.6950   63.3900 O.co2 228  ASP228     -0.2456
    116  N         -0.9690   49.7880   72.4320 N.3   265  THR265     -0.1218
    117  CA        -1.9380   50.1250   71.3950 C.3   265  THR265      0.1862
    118  C         -3.0390   50.9890   72.0200 C.2   265  THR265      0.2287
    119  O         -2.8780   52.2010   72.1610 O.2   265  THR265     -0.2866
    120  CB        -2.5600   48.8450   70.7930 C.3   265  THR265      0.1770
    121  OG1       -1.5150   47.9970   70.2970 O.3   265  THR265     -0.2211
    122  CG2       -3.5230   49.1900   69.6520 C.3   265  THR265      0.0375
@<TRIPOS>BOND
     1    89    88    2
     2    88    87    1
     3    87    90    1
     4    87    86    1
     5    90    91    1
     6    86    92    1
     7    78    79    1
     8    91    92    1
     9    80    81    2
    10    80    79    1
    11    79    82    1
    12    82    83    1
    13    85    83   am
    14    83    84    2
    15    39    38    1
    16    39    40    1
    17    66    65    2
    18    38    37    1
    19   107   106    2
    20   105   106    1
    21   105   104    1
    22    37    36    1
    23   106   108   am
    24    36    33    1
    25    74    73    2
    26   114   113   ar
    27    63    64    1
    28    65    64    1
    29    71    72    1
    30   108   109    1
    31    70    68    1
    32    64    67    1
    33    75    76    1
    34    75    72    1
    35    75    77    1
    36    73    72    1
    37    67    68    1
    38    67    69    1
    39   109   110    1
    40   109   112    1
    41     1     2    1
    42   113   112    1
    43   113   115   ar
    44    33    34    1
    45    33    32    1
    46    34    35    2
    47     8     6   am
    48     7     6    2
    49     6     5    1
    50   111   110    2
    51     5     2    1
    52     2     3    1
    53    32    30   am
    54     3     4    2
    55    30    31    2
    56    30    29    1
    57    54    53    1
    58   103   102    2
    59   102   101    1
    60    29    28    1
    61   100   101    1
    62   100    95   am
    63    53    50    1
    64    15    13    1
    65    43    44    2
    66    43    42    1
    67    45    42    1
    68    45    46    1
    69    48    46   am
    70    41    42    1
    71    50    51    1
    72    50    49    1
    73    56    57    1
    74    56    59    1
    75    56    55    1
    76    60    59    1
    77    60    62    1
    78    61    59    1
    79    94    95    1
    80    94    93    1
    81    94    97    1
    82    95    96    2
    83    57    58    2
    84    46    47    2
    85    28    26   am
    86    51    52    2
    87    99    97    1
    88    13    14    1
    89    13    10    1
    90    98    97    1
    91     9    10    1
    92    26    27    2
    93    26    25    1
    94    22    21   ar
    95    23    21   ar
    96    10    11    1
    97    21    20    1
    98    25    24    1
    99   122   120    1
   100    11    12    2
   101   121   120    1
   102    20    17    1
   103    17    16    1
   104    17    18    1
   105   120   117    1
   106   117   118    1
   107   117   116    1
   108    18    19    2
   109   118   119    2
