@<TRIPOS>MOLECULE
tmp/3i43A00.pdb
 104 101 0 0 0
SMALL
GASTEIGER

@<TRIPOS>ATOM
      1  N         -1.5290   -9.6430   14.3710 N.3    52  PHE52      -0.1228
      2  CA        -0.3220   -9.5890   15.2060 C.3    52  PHE52       0.1721
      3  C         -0.5220  -10.4670   16.4800 C.2    52  PHE52       0.2437
      4  O         -1.6230  -10.5130   17.0130 O.2    52  PHE52      -0.2733
      5  CB        -0.0290   -8.1910   15.6980 C.3    52  PHE52       0.0547
      6  CG         0.2780   -7.1950   14.6380 C.ar   52  PHE52      -0.0202
      7  CD1       -0.7380   -6.5720   13.9540 C.ar   52  PHE52      -0.0042
      8  CD2        1.6080   -6.8220   14.3890 C.ar   52  PHE52      -0.0042
      9  CE1       -0.3890   -5.5950   12.9910 C.ar   52  PHE52      -0.0003
     10  CE2        1.9510   -5.9110   13.4060 C.ar   52  PHE52      -0.0003
     11  CZ         0.9200   -5.2930   12.7220 C.ar   52  PHE52      -0.0000
     12  N          0.5550  -11.1310   16.9330 N.am   53  PRO53      -0.2729
     13  CA         0.5540  -11.6870   18.2910 C.3    53  PRO53       0.1401
     14  C          0.2360  -10.6910   19.4150 C.2    53  PRO53       0.2269
     15  O         -0.6140  -11.0170   20.3190 O.2    53  PRO53      -0.2865
     16  CB         1.9440  -12.2990   18.4390 C.3    53  PRO53       0.0296
     17  CG         2.4290  -12.5210   17.0520 C.3    53  PRO53       0.0237
     18  CD         1.7880  -11.4710   16.1950 C.3    53  PRO53       0.0939
     19  N          7.3430   -1.8080   22.0260 N.3    59  VAL59      -0.1245
     20  CA         8.2460   -1.4160   20.9280 C.3    59  VAL59       0.1561
     21  C          7.4260   -1.2710   19.6650 C.2    59  VAL59       0.2260
     22  O          6.7000   -2.1780   19.2800 O.2    59  VAL59      -0.2867
     23  CB         9.2940   -2.5050   20.6170 C.3    59  VAL59       0.0252
     24  CG1       10.1240   -2.0920   19.4190 C.3    59  VAL59       0.0019
     25  CG2       10.1810   -2.7250   21.8020 C.3    59  VAL59       0.0019
     26  N          7.8850   -0.9000   15.8760 N.3    61  ALA61      -0.1245
     27  CA         8.7650   -0.8990   14.7250 C.3    61  ALA61       0.1562
     28  C          8.2170    0.0790   13.6710 C.2    61  ALA61       0.2260
     29  O          7.0160    0.0550   13.3570 O.2    61  ALA61      -0.2867
     30  CB         8.8580   -2.2980   14.1330 C.3    61  ALA61       0.0290
     31  N          8.3690    0.0260   10.3960 N.3    63  SER63      -0.1202
     32  CA         7.7620   -0.7520    9.2970 C.3    63  SER63       0.2020
     33  C          6.2610   -1.0090    9.4310 C.2    63  SER63       0.2618
     34  O          5.5810   -1.0800    8.4450 O.2    63  SER63      -0.2717
     35  CB         8.4670   -2.1260    9.1660 C.3    63  SER63       0.2103
     36  OG         8.4920   -2.8920   10.3950 O.3    63  SER63      -0.2182
     37  N          5.7550   -1.0420   10.6550 N.am   64  VAL64      -0.1979
     38  CA         4.3550   -1.2890   10.9000 C.3    64  VAL64       0.1595
     39  C          3.4960   -0.1580   10.4440 C.2    64  VAL64       0.2287
     40  O          2.5420   -0.3340    9.6220 O.2    64  VAL64      -0.2864
     41  CB         4.0450   -1.6580   12.3740 C.3    64  VAL64       0.0276
     42  CG1        2.5250   -1.6980   12.5680 C.3    64  VAL64       0.0022
     43  CG2        4.7680   -2.9540   12.8290 C.3    64  VAL64       0.0022
     44  N          1.6000  -14.0030   13.3120 N.3   132  ARG132     -0.1245
     45  CA         1.8120  -12.8270   12.4480 C.3   132  ARG132      0.1563
     46  C          1.3180  -13.2030   11.0320 C.2   132  ARG132      0.2260
     47  O          1.8170  -14.2260   10.4440 O.2   132  ARG132     -0.2867
     48  CB         3.2820  -12.4390   12.4240 C.3   132  ARG132      0.0307
     49  CG         3.5640  -11.0850   11.7210 C.3   132  ARG132      0.0489
     50  CD         3.0640   -9.8550   12.4910 C.3   132  ARG132      0.2205
     51  NE         3.2420   -8.6330   11.7120 N.pl3 132  ARG132     -0.0865
     52  CZ         2.3240   -8.0370   10.9420 C.cat 132  ARG132      0.5346
     53  NH1        1.1470   -8.5150   10.7960 N.pl3 132  ARG132      0.1354
     54  NH2        2.6170   -6.9620   10.2460 N.pl3 132  ARG132      0.1354
     55  N          7.7500  -15.1240   13.6350 N.3   152  ILE152     -0.1231
     56  CA         6.6900  -14.2080   14.1410 C.3   152  ILE152      0.1692
     57  C          7.1360  -12.8290   14.5270 C.2   152  ILE152      0.2593
     58  O          6.3000  -11.9150   14.6020 O.2   152  ILE152     -0.2718
     59  CB         5.9920  -14.8650   15.3200 C.3   152  ILE152      0.0266
     60  CG1        5.1340  -15.9910   14.7460 C.3   152  ILE152      0.0019
     61  CG2        5.2900  -13.8540   16.2260 C.3   152  ILE152      0.0020
     62  CD1        4.4940  -16.8850   15.8490 C.3   152  ILE152      0.0001
     63  N          8.4250  -12.6970   14.7580 N.am  153  THR153     -0.1939
     64  CA         9.0410  -11.4320   15.0980 C.3   153  THR153      0.2028
     65  C          9.5390  -10.6180   13.9060 C.2   153  THR153      0.2643
     66  O         10.1710   -9.5990   14.1130 O.2   153  THR153     -0.2714
     67  CB        10.2290  -11.6540   16.1100 C.3   153  THR153      0.1808
     68  OG1       11.2920  -12.4190   15.5330 O.3   153  THR153     -0.2208
     69  CG2        9.7540  -12.3420   17.3990 C.3   153  THR153      0.0379
     70  N          9.3200  -11.0930   12.6780 N.am  154  THR154     -0.1936
     71  CA         9.9570  -10.5150   11.4980 C.3   154  THR154      0.2028
     72  C          8.8250   -9.9760   10.6180 C.2   154  THR154      0.2642
     73  O          7.6510  -10.2350   10.8700 O.2   154  THR154     -0.2714
     74  CB        10.8140  -11.5190   10.7000 C.3   154  THR154      0.1808
     75  OG1       10.0110  -12.6370   10.2800 O.3   154  THR154     -0.2208
     76  CG2       11.9950  -12.0060   11.4630 C.3   154  THR154      0.0379
     77  N          9.1920   -9.1110    9.6650 N.am  155  GLU155     -0.1963
     78  CA         8.1790   -8.4200    8.8680 C.3   155  GLU155      0.1718
     79  C          7.5430   -9.3450    7.8460 C.2   155  GLU155      0.2458
     80  O          8.2270  -10.1250    7.1950 O.2   155  GLU155     -0.2730
     81  CB         8.8400   -7.2690    8.0830 C.3   155  GLU155      0.0428
     82  CG         9.3590   -6.1420    8.8810 C.3   155  GLU155      0.1163
     83  CD         9.9620   -5.0170    7.9750 C.2   155  GLU155      0.3649
     84  OE1        9.4540   -4.7560    6.8500 O.co2 155  GLU155     -0.2457
     85  OE2       10.9590   -4.3790    8.3820 O.co2 155  GLU155     -0.2457
     86  N          6.2380   -9.2110    7.6310 N.am  156  PRO156     -0.2727
     87  CA         5.6680   -9.7770    6.4450 C.3   156  PRO156      0.1402
     88  C          6.1920   -9.1530    5.1320 C.2   156  PRO156      0.2269
     89  O          6.8700   -8.1080    5.1450 O.2   156  PRO156     -0.2865
     90  CB         4.1860   -9.5120    6.5670 C.3   156  PRO156      0.0296
     91  CG         3.9990   -8.7840    7.8690 C.3   156  PRO156      0.0237
     92  CD         5.2810   -8.3400    8.3300 C.3   156  PRO156      0.0939
     93  N          5.4760   -7.0240    2.8400 N.3   158  TYR158     -0.1241
     94  CA         4.5890   -5.9300    2.6860 C.3   158  TYR158      0.1605
     95  C          4.5990   -5.4890    1.2100 C.2   158  TYR158      0.2264
     96  O          3.5580   -5.0700    0.6840 O.2   158  TYR158     -0.2867
     97  CB         4.9820   -4.7760    3.5030 C.3   158  TYR158      0.0534
     98  CG         4.8150   -4.8520    4.9910 C.ar  158  TYR158     -0.0201
     99  CD1        5.8830   -4.4580    5.8410 C.ar  158  TYR158     -0.0009
    100  CD2        3.6270   -5.2110    5.5680 C.ar  158  TYR158     -0.0009
    101  CE1        5.7370   -4.4470    7.1900 C.ar  158  TYR158      0.0417
    102  CE2        3.4560   -5.1680    6.9550 C.ar  158  TYR158      0.0417
    103  CZ         4.5180   -4.8310    7.7350 C.ar  158  TYR158      0.1957
    104  OH         4.2940   -4.7880    9.0740 O.3   158  TYR158     -0.2866
@<TRIPOS>BOND
     1    96    95    2
     2    95    94    1
     3    94    93    1
     4    94    97    1
     5    97    98    1
     6    98   100   ar
     7    98    99   ar
     8    88    89    2
     9    88    87    1
    10   100   102   ar
    11    99   101   ar
    12    87    90    1
    13    87    86    1
    14    90    91    1
    15    84    83   ar
    16   102   103   ar
    17   101   103   ar
    18    80    79    2
    19    86    79   am
    20    86    92    1
    21   103   104    1
    22    79    78    1
    23    91    92    1
    24    83    85   ar
    25    83    82    1
    26    81    78    1
    27    81    82    1
    28    34    33    2
    29    78    77    1
    30    35    32    1
    31    35    36    1
    32    32    33    1
    33    32    31    1
    34    33    37   am
    35    40    39    2
    36    77    72   am
    37    54    52    1
    38    75    74    1
    39    39    38    1
    40    47    46    2
    41    72    73    2
    42    72    71    1
    43    37    38    1
    44    74    76    1
    45    74    71    1
    46    53    52    1
    47    38    41    1
    48    52    51    2
    49    46    45    1
    50    71    70    1
    51    51    50    1
    52    49    48    1
    53    49    50    1
    54    41    42    1
    55    41    43    1
    56    48    45    1
    57    45    44    1
    58    70    65   am
    59    11     9   ar
    60    11    10   ar
    61     9     7   ar
    62    29    28    2
    63    10     8   ar
    64    55    56    1
    65    28    27    1
    66    65    66    2
    67    65    64    1
    68     7     6   ar
    69    30    27    1
    70    56    57    1
    71    56    59    1
    72     1     2    1
    73     8     6   ar
    74    57    58    2
    75    57    63   am
    76     6     5    1
    77    27    26    1
    78    60    59    1
    79    60    62    1
    80    63    64    1
    81    64    67    1
    82     2     5    1
    83     2     3    1
    84    59    61    1
    85    68    67    1
    86    67    69    1
    87    18    12    1
    88    18    17    1
    89     3    12   am
    90     3     4    2
    91    12    13    1
    92    17    16    1
    93    13    16    1
    94    13    14    1
    95    22    21    2
    96    14    15    2
    97    24    23    1
    98    21    20    1
    99    23    20    1
   100    23    25    1
   101    20    19    1
