@<TRIPOS>MOLECULE
tmp/3i45A00.pdb
 97 94 0 0 0
SMALL
GASTEIGER

@<TRIPOS>ATOM
      1  N          6.4970    2.3920   42.9440 N.3    80  PHE80      -0.1227
      2  CA         6.4790    3.5060   42.0090 C.3    80  PHE80       0.1736
      3  C          7.7270    3.4940   41.1330 C.2    80  PHE80       0.2595
      4  O          7.6100    3.5550   39.9060 O.2    80  PHE80      -0.2718
      5  CB         6.3590    4.8470   42.7600 C.3    80  PHE80       0.0547
      6  CG         6.3390    6.0660   41.8620 C.ar   80  PHE80      -0.0202
      7  CD1        5.1380    6.6810   41.5170 C.ar   80  PHE80      -0.0042
      8  CD2        7.5320    6.5870   41.3570 C.ar   80  PHE80      -0.0042
      9  CE1        5.1330    7.8150   40.6970 C.ar   80  PHE80      -0.0003
     10  CE2        7.5200    7.7190   40.5320 C.ar   80  PHE80      -0.0003
     11  CZ         6.3100    8.3140   40.2000 C.ar   80  PHE80      -0.0000
     12  N          8.9040    3.4330   41.7500 N.am   81  LEU81      -0.1966
     13  CA        10.1650    3.5420   41.0110 C.3    81  LEU81       0.1728
     14  C         10.5520    2.2130   40.3960 C.2    81  LEU81       0.2616
     15  O         10.4490    1.1620   41.0400 O.2    81  LEU81      -0.2715
     16  CB        11.2920    4.0500   41.9140 C.3    81  LEU81       0.0311
     17  CG        11.0790    5.4620   42.4760 C.3    81  LEU81       0.0022
     18  CD1       12.0580    5.7290   43.6090 C.3    81  LEU81       0.0001
     19  CD2       11.2090    6.5320   41.3910 C.3    81  LEU81       0.0001
     20  N         11.0140    2.2500   39.1450 N.am   82  SER82      -0.1950
     21  CA        11.2710    1.0250   38.3890 C.3    82  SER82       0.1924
     22  C         12.2560    0.0720   39.0680 C.2    82  SER82       0.2314
     23  O         12.0440   -1.1450   39.0800 O.2    82  SER82      -0.2863
     24  CB        11.7640    1.3610   36.9880 C.3    82  SER82       0.2116
     25  OG        10.6800    1.6310   36.1160 O.3    82  SER82      -0.2180
     26  N          2.5400    0.9690   39.4990 N.3   103  GLU103     -0.1245
     27  CA         3.0790    2.1080   38.7870 C.3   103  GLU103      0.1567
     28  C          4.5140    1.9970   38.2150 C.2   103  GLU103      0.2260
     29  O          4.8640    2.8340   37.3800 O.2   103  GLU103     -0.2867
     30  CB         2.9750    3.3460   39.6970 C.3   103  GLU103      0.0388
     31  CG         3.5290    4.6690   39.1470 C.3   103  GLU103      0.1160
     32  CD         2.8730    5.1090   37.8480 C.2   103  GLU103      0.3649
     33  OE1        1.7680    4.6210   37.5180 O.co2 103  GLU103     -0.2457
     34  OE2        3.4660    5.9770   37.1590 O.co2 103  GLU103     -0.2457
     35  N          7.2940    1.4250   35.6950 N.3   105  LEU105     -0.1245
     36  CA         7.0510    1.3720   34.2560 C.3   105  LEU105      0.1561
     37  C          8.0370    0.5630   33.4220 C.2   105  LEU105      0.2260
     38  O          7.7410    0.2410   32.2770 O.2   105  LEU105     -0.2867
     39  CB         6.9090    2.7870   33.6820 C.3   105  LEU105      0.0270
     40  CG         5.7930    3.6200   34.3170 C.3   105  LEU105      0.0019
     41  CD1        5.7850    5.0220   33.7400 C.3   105  LEU105      0.0001
     42  CD2        4.4280    2.9650   34.2080 C.3   105  LEU105      0.0001
     43  N         18.3200    6.4120   36.0380 N.3   151  TYR151     -0.1241
     44  CA        18.1050    5.1460   36.7190 C.3   151  TYR151      0.1605
     45  C         17.2740    4.2880   35.7720 C.2   151  TYR151      0.2264
     46  O         16.9760    4.7100   34.6530 O.2   151  TYR151     -0.2867
     47  CB        17.4210    5.3490   38.0790 C.3   151  TYR151      0.0534
     48  CG        15.9560    5.7470   38.0410 C.ar  151  TYR151     -0.0201
     49  CD1       14.9760    4.8660   38.4780 C.ar  151  TYR151     -0.0009
     50  CD2       15.5470    7.0180   37.6030 C.ar  151  TYR151     -0.0009
     51  CE1       13.6370    5.2270   38.4780 C.ar  151  TYR151      0.0417
     52  CE2       14.2170    7.3800   37.5880 C.ar  151  TYR151      0.0417
     53  CZ        13.2630    6.4890   38.0250 C.ar  151  TYR151      0.1957
     54  OH        11.9440    6.8720   38.0090 O.3   151  TYR151     -0.2866
     55  N         14.2360    3.5150   35.0530 N.3   153  TYR153     -0.1241
     56  CA        13.1200    4.0590   34.2950 C.3   153  TYR153      0.1605
     57  C         13.5970    4.9520   33.1490 C.2   153  TYR153      0.2264
     58  O         13.1810    4.7800   31.9980 O.2   153  TYR153     -0.2867
     59  CB        12.1970    4.8370   35.2350 C.3   153  TYR153      0.0534
     60  CG        11.1740    5.6800   34.5120 C.ar  153  TYR153     -0.0201
     61  CD1       10.2200    5.0870   33.6830 C.ar  153  TYR153     -0.0009
     62  CD2       11.1770    7.0650   34.6280 C.ar  153  TYR153     -0.0009
     63  CE1        9.2920    5.8460   32.9940 C.ar  153  TYR153      0.0417
     64  CE2       10.2440    7.8350   33.9580 C.ar  153  TYR153      0.0417
     65  CZ         9.3020    7.2170   33.1380 C.ar  153  TYR153      0.1957
     66  OH         8.3640    7.9540   32.4410 O.3   153  TYR153     -0.2866
     67  N         10.2190   13.9580   35.3530 N.3   207  PHE207     -0.1241
     68  CA         8.8670   14.0230   35.9100 C.3   207  PHE207      0.1605
     69  C          8.9750   14.5570   37.3440 C.2   207  PHE207      0.2264
     70  O         10.0700   14.8140   37.8270 O.2   207  PHE207     -0.2867
     71  CB         8.2130   12.6270   35.8980 C.3   207  PHE207      0.0534
     72  CG         8.8990   11.6470   36.8110 C.ar  207  PHE207     -0.0203
     73  CD1        8.5000   11.4970   38.1410 C.ar  207  PHE207     -0.0042
     74  CD2        9.9870   10.9070   36.3560 C.ar  207  PHE207     -0.0042
     75  CE1        9.1730   10.6110   39.0050 C.ar  207  PHE207     -0.0003
     76  CE2       10.6550   10.0230   37.2060 C.ar  207  PHE207     -0.0003
     77  CZ        10.2490    9.8790   38.5360 C.ar  207  PHE207     -0.0000
     78  N          4.8710   11.3090   30.2720 N.3   233  LEU233     -0.1245
     79  CA         4.0920   11.5460   31.5190 C.3   233  LEU233      0.1561
     80  C          3.7280   12.9960   31.7770 C.2   233  LEU233      0.2260
     81  O          3.0320   13.2710   32.7440 O.2   233  LEU233     -0.2867
     82  CB         4.7670   10.9870   32.7880 C.3   233  LEU233      0.0270
     83  CG         5.3910    9.5970   32.7700 C.3   233  LEU233      0.0019
     84  CD1        5.7910    9.1990   34.1780 C.3   233  LEU233      0.0001
     85  CD2        4.5040    8.5220   32.1510 C.3   233  LEU233      0.0001
     86  N          1.8690   16.0460   37.5360 N.3   239  TYR239     -0.1241
     87  CA         3.1000   16.7370   37.1210 C.3   239  TYR239      0.1605
     88  C          2.7990   18.0390   36.4050 C.2   239  TYR239      0.2264
     89  O          3.5130   19.0240   36.5930 O.2   239  TYR239     -0.2867
     90  CB         4.0160   15.8300   36.2660 C.3   239  TYR239      0.0534
     91  CG         4.1700   14.4560   36.8760 C.ar  239  TYR239     -0.0201
     92  CD1        4.4400   14.3150   38.2360 C.ar  239  TYR239     -0.0009
     93  CD2        4.0070   13.2950   36.1190 C.ar  239  TYR239     -0.0009
     94  CE1        4.5430   13.0780   38.8310 C.ar  239  TYR239      0.0417
     95  CE2        4.1180   12.0300   36.7100 C.ar  239  TYR239      0.0417
     96  CZ         4.3820   11.9300   38.0710 C.ar  239  TYR239      0.1957
     97  OH         4.4660   10.6950   38.6920 O.3   239  TYR239     -0.2866
@<TRIPOS>BOND
     1    78    79    1
     2    79    80    1
     3    79    82    1
     4    80    81    2
     5    58    57    2
     6    85    83    1
     7    38    37    2
     8    66    65    1
     9    83    82    1
    10    83    84    1
    11    63    65   ar
    12    63    61   ar
    13    65    64   ar
    14    57    56    1
    15    37    36    1
    16    39    36    1
    17    39    40    1
    18    61    60   ar
    19    41    40    1
    20    64    62   ar
    21    42    40    1
    22    36    35    1
    23    56    55    1
    24    56    59    1
    25    60    62   ar
    26    60    59    1
    27    46    45    2
    28    67    68    1
    29    45    44    1
    30    71    68    1
    31    71    72    1
    32    68    69    1
    33    43    44    1
    34    25    24    1
    35    93    95   ar
    36    93    91   ar
    37    90    91    1
    38    90    87    1
    39    74    72   ar
    40    74    76   ar
    41    88    89    2
    42    88    87    1
    43    95    96   ar
    44    44    47    1
    45    72    73   ar
    46    91    92   ar
    47    24    21    1
    48    87    86    1
    49    34    32   ar
    50    76    77   ar
    51    69    70    2
    52    29    28    2
    53    33    32   ar
    54    52    50   ar
    55    52    53   ar
    56    50    48   ar
    57    32    31    1
    58    54    53    1
    59    53    51   ar
    60    48    47    1
    61    48    49   ar
    62    96    97    1
    63    96    94   ar
    64    73    75   ar
    65    28    27    1
    66    92    94   ar
    67    21    22    1
    68    21    20    1
    69    49    51   ar
    70    77    75   ar
    71    27    26    1
    72    27    30    1
    73    22    23    2
    74    20    14   am
    75    31    30    1
    76     4     3    2
    77    11    10   ar
    78    11     9   ar
    79    14    13    1
    80    14    15    2
    81    10     8   ar
    82     9     7   ar
    83    13    12    1
    84    13    16    1
    85     3    12   am
    86     3     2    1
    87     8     6   ar
    88    19    17    1
    89     7     6   ar
    90     6     5    1
    91    16    17    1
    92     2     5    1
    93     2     1    1
    94    17    18    1
