@<TRIPOS>MOLECULE
tmp/3i4aB00.pdb
 135 126 0 0 0
SMALL
GASTEIGER

@<TRIPOS>ATOM
      1  N        -18.3180  -18.5700  -31.5240 N.3    23  LEU23      -0.1245
      2  CA       -17.3960  -17.4760  -31.8110 C.3    23  LEU23       0.1561
      3  C        -18.1870  -16.2390  -32.2100 C.2    23  LEU23       0.2260
      4  O        -19.0860  -16.3150  -33.0410 O.2    23  LEU23      -0.2867
      5  CB       -16.4350  -17.8410  -32.9450 C.3    23  LEU23       0.0270
      6  CG       -15.5970  -19.1140  -32.8380 C.3    23  LEU23       0.0019
      7  CD1      -14.8600  -19.3470  -34.1270 C.3    23  LEU23       0.0001
      8  CD2      -14.6210  -19.0120  -31.6840 C.3    23  LEU23       0.0001
      9  N        -20.6550  -23.7040  -33.2230 N.3    66  ASP66      -0.1239
     10  CA       -20.9390  -22.9530  -34.4400 C.3    66  ASP66       0.1674
     11  C        -21.4880  -23.8560  -35.5270 C.2    66  ASP66       0.2266
     12  O        -21.6260  -23.4290  -36.6790 O.2    66  ASP66      -0.2867
     13  CB       -19.6670  -22.2680  -34.9540 C.3    66  ASP66       0.1410
     14  CG       -19.1680  -21.1850  -34.0250 C.2    66  ASP66       0.3668
     15  OD1      -18.2680  -21.4630  -33.2030 O.co2  66  ASP66      -0.2456
     16  OD2      -19.6850  -20.0520  -34.1140 O.co2  66  ASP66      -0.2456
     17  N        -24.0630  -22.9410  -38.4300 N.3    69  PHE69      -0.1241
     18  CA       -23.7270  -22.2100  -39.6590 C.3    69  PHE69       0.1605
     19  C        -23.0850  -23.1090  -40.7050 C.2    69  PHE69       0.2264
     20  O        -21.9070  -22.9760  -41.0310 O.2    69  PHE69      -0.2867
     21  CB       -22.8510  -21.0010  -39.3440 C.3    69  PHE69       0.0534
     22  CG       -23.3820  -20.1780  -38.2180 C.ar   69  PHE69      -0.0203
     23  CD1      -22.7500  -20.1680  -36.9900 C.ar   69  PHE69      -0.0042
     24  CD2      -24.5450  -19.4510  -38.3730 C.ar   69  PHE69      -0.0042
     25  CE1      -23.2570  -19.4270  -35.9440 C.ar   69  PHE69      -0.0003
     26  CE2      -25.0610  -18.7070  -37.3290 C.ar   69  PHE69      -0.0003
     27  CZ       -24.4180  -18.6920  -36.1190 C.ar   69  PHE69      -0.0000
     28  N        -23.3710  -23.2370  -43.8310 N.3    71  GLU71      -0.1231
     29  CA       -22.9420  -22.6150  -45.0720 C.3    71  GLU71       0.1699
     30  C        -21.4260  -22.5130  -45.2340 C.2    71  GLU71       0.2592
     31  O        -20.9130  -22.5100  -46.3480 O.2    71  GLU71      -0.2718
     32  CB       -23.5550  -21.2250  -45.2130 C.3    71  GLU71       0.0402
     33  CG       -22.6240  -20.2290  -45.8710 C.3    71  GLU71       0.1161
     34  CD       -23.3250  -18.9880  -46.3630 C.2    71  GLU71       0.3649
     35  OE1      -24.1170  -19.0830  -47.3300 O.co2  71  GLU71      -0.2457
     36  OE2      -23.0520  -17.9090  -45.7970 O.co2  71  GLU71      -0.2457
     37  N        -20.7000  -22.4070  -44.1300 N.am   72  ASP72      -0.1974
     38  CA       -19.2760  -22.1300  -44.2360 C.3    72  ASP72       0.1709
     39  C        -18.4600  -23.3720  -44.5530 C.2    72  ASP72       0.2293
     40  O        -17.3700  -23.2640  -45.1140 O.2    72  ASP72      -0.2864
     41  CB       -18.7580  -21.4310  -42.9830 C.3    72  ASP72       0.1436
     42  CG       -19.4180  -20.0770  -42.7520 C.2    72  ASP72       0.3671
     43  OD1      -19.4070  -19.2200  -43.6720 O.co2  72  ASP72      -0.2456
     44  OD2      -19.9450  -19.8710  -41.6420 O.co2  72  ASP72      -0.2456
     45  N        -13.6830  -24.9030  -36.1070 N.3    91  ARG91      -0.1245
     46  CA       -14.8710  -25.1810  -36.9020 C.3    91  ARG91       0.1563
     47  C        -14.6260  -26.2740  -37.9440 C.2    91  ARG91       0.2260
     48  O        -15.5540  -26.6930  -38.6360 O.2    91  ARG91      -0.2867
     49  CB       -15.3780  -23.9020  -37.5710 C.3    91  ARG91       0.0307
     50  CG       -15.9260  -22.8570  -36.6000 C.3    91  ARG91       0.0489
     51  CD       -16.9580  -21.9740  -37.2930 C.3    91  ARG91       0.2205
     52  NE       -17.8610  -22.7780  -38.1140 N.pl3  91  ARG91      -0.0865
     53  CZ       -18.8490  -22.3000  -38.8640 C.cat  91  ARG91       0.5346
     54  NH1      -19.0990  -21.0020  -38.9130 N.pl3  91  ARG91       0.1354
     55  NH2      -19.5900  -23.1330  -39.5660 N.pl3  91  ARG91       0.1354
     56  N        -19.2000  -18.5860  -46.4200 N.3   122  GLY122     -0.1225
     57  CA       -19.8770  -17.3020  -46.3960 C.3   122  GLY122      0.1811
     58  C        -19.0460  -16.1600  -46.9420 C.2   122  GLY122      0.2280
     59  O        -19.3820  -15.0060  -46.7520 O.2   122  GLY122     -0.2866
     60  N        -10.8050  -15.2570  -42.8260 N.3   138  ARG138     -0.1245
     61  CA       -11.1960  -16.6650  -42.8160 C.3   138  ARG138      0.1563
     62  C        -10.7970  -17.3680  -44.0970 C.2   138  ARG138      0.2260
     63  O        -10.4770  -18.5560  -44.0950 O.2   138  ARG138     -0.2867
     64  CB       -12.7000  -16.8010  -42.5770 C.3   138  ARG138      0.0307
     65  CG       -13.1130  -16.4290  -41.1650 C.3   138  ARG138      0.0489
     66  CD       -12.7100  -17.5110  -40.1830 C.3   138  ARG138      0.2205
     67  NE       -13.2250  -17.2680  -38.8380 N.pl3 138  ARG138     -0.0865
     68  CZ       -14.4380  -17.6130  -38.4030 C.cat 138  ARG138      0.5346
     69  NH1      -15.3020  -18.2210  -39.2020 N.pl3 138  ARG138      0.1354
     70  NH2      -14.7940  -17.3420  -37.1550 N.pl3 138  ARG138      0.1354
     71  N        -17.4560  -11.2990  -43.4280 N.3   166  HIS166     -0.1241
     72  CA       -17.3800  -12.1590  -44.5950 C.3   166  HIS166      0.1621
     73  C        -18.1090  -11.4610  -45.7270 C.2   166  HIS166      0.2264
     74  O        -19.0040  -10.6480  -45.4820 O.2   166  HIS166     -0.2867
     75  CB       -18.0370  -13.5110  -44.3170 C.3   166  HIS166      0.0745
     76  CG       -17.3220  -14.3340  -43.2920 C.ar  166  HIS166      0.0817
     77  ND1      -17.1020  -13.8940  -42.0040 N.ar  166  HIS166     -0.2268
     78  CD2      -16.7890  -15.5770  -43.3610 C.ar  166  HIS166      0.1154
     79  CE1      -16.4640  -14.8290  -41.3230 C.ar  166  HIS166      0.1986
     80  NE2      -16.2650  -15.8620  -42.1240 N.ar  166  HIS166     -0.2212
     81  N        -20.5040  -12.0210  -47.6420 N.3   168  LYS168     -0.1231
     82  CA       -21.9630  -11.9540  -47.6160 C.3   168  LYS168      0.1693
     83  C        -22.4940  -11.4130  -46.2890 C.2   168  LYS168      0.2592
     84  O        -23.6120  -11.7190  -45.8900 O.2   168  LYS168     -0.2718
     85  CB       -22.5930  -13.3070  -47.9750 C.3   168  LYS168      0.0285
     86  CG       -22.2260  -13.7900  -49.3700 C.3   168  LYS168      0.0035
     87  CD       -23.0020  -15.0370  -49.7690 C.3   168  LYS168      0.0206
     88  CE       -22.6230  -16.2510  -48.9390 C.3   168  LYS168      0.1093
     89  NZ       -23.0210  -17.5010  -49.6450 N.3   168  LYS168     -0.1314
     90  N        -21.6720  -10.6160  -45.6090 N.am  169  SER169     -0.1952
     91  CA       -22.1060   -9.8710  -44.4330 C.3   169  SER169      0.1924
     92  C        -22.7560   -8.5540  -44.8790 C.2   169  SER169      0.2314
     93  O        -23.4070   -7.8610  -44.0860 O.2   169  SER169     -0.2863
     94  CB       -20.9200   -9.5630  -43.5190 C.3   169  SER169      0.2116
     95  OG       -20.5670  -10.6640  -42.7020 O.3   169  SER169     -0.2180
     96  N        -23.7230  -13.6830  -32.9110 N.3   261  VAL261     -0.1231
     97  CA       -22.5260  -14.4770  -33.1830 C.3   261  VAL261      0.1692
     98  C        -22.2560  -14.4990  -34.6910 C.2   261  VAL261      0.2592
     99  O        -21.6530  -15.4440  -35.2190 O.2   261  VAL261     -0.2718
    100  CB       -22.6450  -15.9080  -32.6130 C.3   261  VAL261      0.0266
    101  CG1      -22.8220  -15.8520  -31.0970 C.3   261  VAL261      0.0020
    102  CG2      -23.8040  -16.6470  -33.2460 C.3   261  VAL261      0.0020
    103  N        -22.7300  -13.4470  -35.3650 N.am  262  ASP262     -0.1960
    104  CA       -22.4000  -13.1730  -36.7620 C.3   262  ASP262      0.1840
    105  C        -23.1100  -14.1000  -37.7320 C.2   262  ASP262      0.2623
    106  O        -22.7300  -14.1910  -38.9000 O.2   262  ASP262     -0.2715
    107  CB       -20.8990  -13.2780  -36.9900 C.3   262  ASP262      0.1450
    108  CG       -20.1090  -12.4910  -35.9970 C.2   262  ASP262      0.3671
    109  OD1      -20.4480  -11.3110  -35.7730 O.co2 262  ASP262     -0.2456
    110  OD2      -19.1350  -13.0530  -35.4610 O.co2 262  ASP262     -0.2456
    111  N        -24.1240  -14.8000  -37.2370 N.am  263  GLY263     -0.1940
    112  CA       -24.9390  -15.6430  -38.0880 C.3   263  GLY263      0.2014
    113  C        -26.0270  -14.8130  -38.7430 C.2   263  GLY263      0.2638
    114  O        -26.7460  -14.0700  -38.0720 O.2   263  GLY263     -0.2714
    115  N        -26.1390  -14.9190  -40.0630 N.am  264  LEU264     -0.1977
    116  CA       -27.2140  -14.2430  -40.7760 C.3   264  LEU264      0.1596
    117  C        -28.0670  -15.2900  -41.4780 C.2   264  LEU264      0.2287
    118  O        -28.1190  -16.4390  -41.0510 O.2   264  LEU264     -0.2864
    119  CB       -26.6580  -13.2300  -41.7710 C.3   264  LEU264      0.0297
    120  CG       -25.5870  -12.2760  -41.2320 C.3   264  LEU264      0.0022
    121  CD1      -25.1710  -11.2490  -42.2850 C.3   264  LEU264      0.0001
    122  CD2      -26.0590  -11.5920  -39.9370 C.3   264  LEU264      0.0001
    123  N        -28.0660  -16.5130  -44.9300 N.3   266  THR266     -0.1203
    124  CA       -27.4290  -17.4840  -45.8190 C.3   266  THR266      0.1994
    125  C        -26.6550  -18.5130  -45.0170 C.2   266  THR266      0.2618
    126  O        -26.5280  -19.6670  -45.4220 O.2   266  THR266     -0.2717
    127  CB       -26.4630  -16.8020  -46.8160 C.3   266  THR266      0.1784
    128  OG1      -25.4760  -16.0380  -46.1070 O.3   266  THR266     -0.2211
    129  CG2      -27.2230  -15.8840  -47.7590 C.3   266  THR266      0.0376
    130  N        -26.1540  -18.0830  -43.8660 N.am  267  CYS267     -0.1969
    131  CA       -25.2220  -18.8850  -43.0920 C.3   267  CYS267      0.1712
    132  C        -25.8280  -20.2030  -42.5980 C.2   267  CYS267      0.2296
    133  O        -25.1000  -21.1420  -42.2890 O.2   267  CYS267     -0.2864
    134  CB       -24.6840  -18.0850  -41.8910 C.3   267  CYS267      0.0983
    135  SG       -24.2200  -16.3520  -42.2050 S.3   267  CYS267     -0.0798
@<TRIPOS>BOND
     1    87    86    1
     2    87    88    1
     3    89    88    1
     4    86    85    1
     5    85    82    1
     6   129   127    1
     7    81    82    1
     8    82    83    1
     9    35    34   ar
    10    58    59    2
    11    58    57    1
    12   127   128    1
    13   127   124    1
    14    56    57    1
    15    34    33    1
    16    34    36   ar
    17    31    30    2
    18    83    84    2
    19    83    90   am
    20    33    32    1
    21   124   125    1
    22   124   123    1
    23    73    74    2
    24    73    72    1
    25    90    91    1
    26   126   125    2
    27    30    29    1
    28    30    37   am
    29    32    29    1
    30    40    39    2
    31    29    28    1
    32   125   130   am
    33    92    91    1
    34    92    93    2
    35    72    75    1
    36    72    71    1
    37    39    38    1
    38    91    94    1
    39    75    76    1
    40    38    37    1
    41    38    41    1
    42    62    63    2
    43    62    61    1
    44   130   131    1
    45    43    42   ar
    46    94    95    1
    47    78    76   ar
    48    78    80   ar
    49    76    77   ar
    50   131   132    1
    51   131   134    1
    52    41    42    1
    53    60    61    1
    54    61    64    1
    55    42    44   ar
    56   132   133    2
    57    64    65    1
    58   121   120    1
    59   135   134    1
    60    80    79   ar
    61    77    79   ar
    62   119   120    1
    63   119   116    1
    64   117   118    2
    65   117   116    1
    66   120   122    1
    67    65    66    1
    68    20    19    2
    69   116   115    1
    70    19    18    1
    71    66    67    1
    72   115   113   am
    73    18    21    1
    74    18    17    1
    75    55    53    1
    76    21    22    1
    77    69    68    1
    78    54    53    1
    79   106   105    2
    80    53    52    2
    81    67    68    2
    82   113   112    1
    83   113   114    2
    84    48    47    2
    85    68    70    1
    86    24    22   ar
    87    24    26   ar
    88    22    23   ar
    89    52    51    1
    90   112   111    1
    91    47    46    1
    92   105   111   am
    93   105   104    1
    94    49    46    1
    95    49    50    1
    96    26    27   ar
    97    51    50    1
    98    23    25   ar
    99   107   104    1
   100   107   108    1
   101    46    45    1
   102   104   103    1
   103    12    11    2
   104    27    25   ar
   105   108   109   ar
   106   108   110   ar
   107    11    10    1
   108   103    98   am
   109    99    98    2
   110    13    10    1
   111    13    14    1
   112    98    97    1
   113    10     9    1
   114     7     6    1
   115    16    14   ar
   116    14    15   ar
   117   102   100    1
   118    97    96    1
   119    97   100    1
   120     4     3    2
   121     5     6    1
   122     5     2    1
   123     6     8    1
   124   100   101    1
   125     3     2    1
   126     2     1    1
