@<TRIPOS>MOLECULE
tmp/3i4bB00.pdb
 197 186 0 0 0
SMALL
GASTEIGER

@<TRIPOS>ATOM
      1  N         22.6160   66.3550   74.9270 N.3    27  ILE27      -0.1231
      2  CA        23.6310   65.5230   75.5780 C.3    27  ILE27       0.1692
      3  C         23.5260   64.0800   75.1050 C.2    27  ILE27       0.2593
      4  O         24.3930   63.2430   75.4190 O.2    27  ILE27      -0.2718
      5  CB        23.6340   65.6360   77.1430 C.3    27  ILE27       0.0266
      6  CG1       22.2850   65.2430   77.7390 C.3    27  ILE27       0.0019
      7  CG2       24.0190   67.0390   77.5880 C.3    27  ILE27       0.0020
      8  CD1       22.2740   65.2560   79.2560 C.3    27  ILE27       0.0001
      9  N         22.4710   63.7760   74.3530 N.am   28  GLY28      -0.1942
     10  CA        22.2950   62.4130   73.8930 C.3    28  GLY28       0.2014
     11  C         21.0180   62.1750   73.1290 C.2    28  GLY28       0.2639
     12  O         20.1760   63.0390   72.9820 O.2    28  GLY28      -0.2714
     13  N         20.8750   60.9800   72.6100 N.am   29  ASN29      -0.1958
     14  CA        19.6460   60.6560   71.9170 C.3    29  ASN29       0.1819
     15  C         19.3520   59.1440   71.9890 C.2    29  ASN29       0.2622
     16  O         20.0780   58.3930   72.6380 O.2    29  ASN29      -0.2715
     17  CB        19.6580   61.2300   70.5050 C.3    29  ASN29       0.1195
     18  CG        20.6420   60.5480   69.6220 C.2    29  ASN29       0.2630
     19  OD1       21.2230   59.5440   69.9970 O.2    29  ASN29      -0.2716
     20  ND2       20.7560   61.0220   68.4000 N.am   29  ASN29      -0.0877
     21  N         18.2350   58.7220   71.4190 N.am   30  GLY30      -0.1940
     22  CA        17.8420   57.3370   71.5070 C.3    30  GLY30       0.2014
     23  C         16.5940   57.1500   70.6890 C.2    30  GLY30       0.2639
     24  O         16.1730   58.0590   69.9840 O.2    30  GLY30      -0.2714
     25  N         15.9940   55.9740   70.7880 N.am   31  SER31      -0.1949
     26  CA        14.8130   55.6590   69.9970 C.3    31  SER31       0.1924
     27  C         13.6540   56.6340   70.2430 C.2    31  SER31       0.2314
     28  O         13.0680   56.6860   71.3370 O.2    31  SER31      -0.2863
     29  CB        14.3630   54.2140   70.2440 C.3    31  SER31       0.2116
     30  OG        15.3440   53.2930   69.8120 O.3    31  SER31      -0.2180
     31  N         13.6350   59.9010   70.4060 N.3    33  GLY33      -0.1210
     32  CA        13.8360   61.0800   71.2290 C.3    33  GLY33       0.1956
     33  C         15.2420   61.6300   71.3800 C.2    33  GLY33       0.2612
     34  O         16.1810   61.1470   70.7420 O.2    33  GLY33      -0.2717
     35  N         15.3750   62.6110   72.2750 N.am   34  VAL34      -0.1965
     36  CA        16.6380   63.2900   72.5460 C.3    34  VAL34       0.1727
     37  C         16.7200   63.6170   74.0330 C.2    34  VAL34       0.2616
     38  O         15.6910   63.8300   74.6830 O.2    34  VAL34      -0.2715
     39  CB        16.7390   64.6210   71.6830 C.3    34  VAL34       0.0290
     40  CG1       18.1250   65.2670   71.8220 C.3    34  VAL34       0.0023
     41  CG2       16.4430   64.3330   70.2010 C.3    34  VAL34       0.0023
     42  N         17.9430   63.7010   74.5510 N.am   35  VAL35      -0.1977
     43  CA        18.1930   64.0900   75.9410 C.3    35  VAL35       0.1596
     44  C         18.9140   65.4480   75.9590 C.2    35  VAL35       0.2287
     45  O         19.9440   65.6420   75.2860 O.2    35  VAL35      -0.2864
     46  CB        18.9920   63.0330   76.7360 C.3    35  VAL35       0.0276
     47  CG1       18.8710   63.3070   78.2080 C.3    35  VAL35       0.0022
     48  CG2       18.4500   61.6770   76.4560 C.3    35  VAL35       0.0022
     49  N         18.3010   67.0190   83.3360 N.3    48  ALA48      -0.1245
     50  CA        18.3200   66.4250   82.0120 C.3    48  ALA48       0.1562
     51  C         16.8570   66.3840   81.6140 C.2    48  ALA48       0.2260
     52  O         15.9980   66.1400   82.4470 O.2    48  ALA48      -0.2867
     53  CB        18.8700   65.0010   82.0780 C.3    48  ALA48       0.0290
     54  N         14.5280   64.4470   79.0300 N.3    50  LYS50      -0.1245
     55  CA        14.4040   63.3860   78.0360 C.3    50  LYS50       0.1561
     56  C         13.0630   63.5960   77.3380 C.2    50  LYS50       0.2260
     57  O         11.9680   63.4760   77.9240 O.2    50  LYS50      -0.2867
     58  CB        14.4900   61.9860   78.6960 C.3    50  LYS50       0.0271
     59  CG        14.2900   60.8270   77.7080 C.3    50  LYS50       0.0035
     60  CD        14.5090   59.4450   78.3720 C.3    50  LYS50       0.0206
     61  CE        14.1250   58.2940   77.4230 C.3    50  LYS50       0.1093
     62  NZ        14.6580   56.9770   77.9660 N.3    50  LYS50      -0.1314
     63  N         10.6360   62.4370   74.3420 N.3    52  VAL52      -0.1245
     64  CA        10.2850   61.3450   73.4270 C.3    52  VAL52       0.1561
     65  C          8.9230   61.5830   72.7610 C.2    52  VAL52       0.2260
     66  O          8.0100   62.1610   73.3440 O.2    52  VAL52      -0.2867
     67  CB        10.2480   59.9640   74.1690 C.3    52  VAL52       0.0252
     68  CG1       11.5990   59.6090   74.7000 C.3    52  VAL52       0.0019
     69  CG2        9.2140   59.9960   75.2930 C.3    52  VAL52       0.0019
     70  N         18.0700   57.4670   88.7450 N.3    75  VAL75      -0.1245
     71  CA        17.9240   58.8530   88.3670 C.3    75  VAL75       0.1561
     72  C         16.4960   59.3200   88.7160 C.2    75  VAL75       0.2260
     73  O         15.5030   58.6720   88.3880 O.2    75  VAL75      -0.2867
     74  CB        18.3190   59.0710   86.8920 C.3    75  VAL75       0.0252
     75  CG1       17.2230   58.6090   85.9440 C.3    75  VAL75       0.0019
     76  CG2       18.7170   60.5220   86.6610 C.3    75  VAL75       0.0019
     77  N         14.6030   65.0270   84.5850 N.3    97  LEU97      -0.1231
     78  CA        15.3180   64.1460   85.5060 C.3    97  LEU97       0.1693
     79  C         16.5180   64.8510   86.0660 C.2    97  LEU97       0.2592
     80  O         16.9470   65.8750   85.5500 O.2    97  LEU97      -0.2718
     81  CB        15.8090   62.9310   84.7060 C.3    97  LEU97       0.0284
     82  CG        14.7350   62.1860   83.8770 C.3    97  LEU97       0.0019
     83  CD1       15.3090   61.5330   82.6000 C.3    97  LEU97       0.0001
     84  CD2       14.0790   61.1390   84.7400 C.3    97  LEU97       0.0001
     85  N         17.1000   64.2660   87.0920 N.am   98  ASP98      -0.1960
     86  CA        18.3720   64.7780   87.5760 C.3    98  ASP98       0.1840
     87  C         19.4210   64.6180   86.4720 C.2    98  ASP98       0.2622
     88  O         19.4180   63.6550   85.6950 O.2    98  ASP98      -0.2715
     89  CB        18.8350   64.0060   88.8010 C.3    98  ASP98       0.1450
     90  CG        18.0880   64.4410   90.0490 C.2    98  ASP98       0.3671
     91  OD1       18.0580   63.6950   91.0260 O.co2  98  ASP98      -0.2456
     92  OD2       17.5020   65.5520   90.0550 O.co2  98  ASP98      -0.2456
     93  N         20.3270   65.5820   86.4300 N.am   99  TYR99      -0.1960
     94  CA        21.4710   65.5540   85.5510 C.3    99  TYR99       0.1771
     95  C         22.6560   64.9680   86.3400 C.2    99  TYR99       0.2619
     96  O         22.8690   65.2770   87.5070 O.2    99  TYR99      -0.2715
     97  CB        21.8020   66.9480   85.0900 C.3    99  TYR99       0.0574
     98  CG        23.0860   66.9720   84.3260 C.ar   99  TYR99      -0.0198
     99  CD1       23.1430   66.4270   83.0480 C.ar   99  TYR99      -0.0009
    100  CD2       24.2750   67.3970   84.9240 C.ar   99  TYR99      -0.0009
    101  CE1       24.3200   66.3520   82.3480 C.ar   99  TYR99       0.0417
    102  CE2       25.4580   67.3700   84.2050 C.ar   99  TYR99       0.0417
    103  CZ        25.4720   66.8330   82.9240 C.ar   99  TYR99       0.1957
    104  OH        26.6210   66.7340   82.2040 O.3    99  TYR99      -0.2866
    105  N         23.3750   64.0570   85.7120 N.am  100  VAL100     -0.1964
    106  CA        24.5590   63.4250   86.3050 C.3   100  VAL100      0.1712
    107  C         25.7010   63.6360   85.2840 C.2   100  VAL100      0.2458
    108  O         25.4870   63.5740   84.0830 O.2   100  VAL100     -0.2730
    109  CB        24.2890   61.9370   86.6600 C.3   100  VAL100      0.0289
    110  CG1       25.4430   61.3670   87.5190 C.3   100  VAL100      0.0023
    111  CG2       23.0140   61.8470   87.4500 C.3   100  VAL100      0.0023
    112  N         26.8900   64.0140   85.7510 N.am  101  PRO101     -0.2716
    113  CA        27.9620   64.3980   84.8100 C.3   101  PRO101      0.1536
    114  C         28.6630   63.3390   83.9740 C.2   101  PRO101      0.2598
    115  O         29.2000   63.6600   82.9280 O.2   101  PRO101     -0.2715
    116  CB        28.9910   65.1320   85.6920 C.3   101  PRO101      0.0310
    117  CG        28.4090   65.1800   87.0850 C.3   101  PRO101      0.0237
    118  CD        27.3050   64.1480   87.1560 C.3   101  PRO101      0.0939
    119  N         28.7110   62.0940   84.4390 N.am  102  GLU102     -0.1964
    120  CA        29.4120   61.0470   83.6990 C.3   102  GLU102      0.1733
    121  C         28.5810   59.7700   83.5580 C.2   102  GLU102      0.2617
    122  O         27.4830   59.6560   84.1240 O.2   102  GLU102     -0.2715
    123  CB        30.7370   60.7070   84.4220 C.3   102  GLU102      0.0429
    124  CG        31.8620   61.6760   84.1230 C.3   102  GLU102      0.1163
    125  CD        32.2480   61.6760   82.6510 C.2   102  GLU102      0.3649
    126  OE1       31.8310   60.7620   81.9200 O.co2 102  GLU102     -0.2457
    127  OE2       32.9540   62.5960   82.2170 O.co2 102  GLU102     -0.2457
    128  N         29.1510   58.8000   82.8330 N.am  103  THR103     -0.1951
    129  CA        28.5580   57.4830   82.6610 C.3   103  THR103      0.1897
    130  C         29.6790   56.4640   82.8660 C.2   103  THR103      0.2313
    131  O         30.8550   56.8050   82.7140 O.2   103  THR103     -0.2863
    132  CB        27.9380   57.2960   81.2810 C.3   103  THR103      0.1794
    133  OG1       28.9630   57.2690   80.2970 O.3   103  THR103     -0.2208
    134  CG2       26.9200   58.3950   80.9470 C.3   103  THR103      0.0378
    135  N         31.7520   56.1620   79.5730 N.3   106  ARG106     -0.1245
    136  CA        32.7970   57.1390   79.2790 C.3   106  ARG106      0.1563
    137  C         33.9950   56.9490   80.1850 C.2   106  ARG106      0.2260
    138  O         35.1320   57.0570   79.7510 O.2   106  ARG106     -0.2867
    139  CB        32.2670   58.5630   79.4330 C.3   106  ARG106      0.0307
    140  CG        31.3710   58.9590   78.2900 C.3   106  ARG106      0.0489
    141  CD        30.3600   59.9820   78.7560 C.3   106  ARG106      0.2205
    142  NE        30.9990   61.0560   79.4960 N.pl3 106  ARG106     -0.0865
    143  CZ        31.3000   62.2440   78.9760 C.cat 106  ARG106      0.5346
    144  NH1       31.0110   62.5050   77.7140 N.pl3 106  ARG106      0.1354
    145  NH2       31.8850   63.1740   79.7170 N.pl3 106  ARG106      0.1354
    146  N         23.5440   48.3360   80.8670 N.3   148  LYS148     -0.1245
    147  CA        24.7760   48.4330   80.0930 C.3   148  LYS148      0.1561
    148  C         25.4850   49.7180   80.5160 C.2   148  LYS148      0.2260
    149  O         24.8670   50.6320   81.0700 O.2   148  LYS148     -0.2867
    150  CB        24.4420   48.4540   78.6030 C.3   148  LYS148      0.0271
    151  CG        23.5920   49.6330   78.2210 C.3   148  LYS148      0.0035
    152  CD        23.4600   49.7040   76.7140 C.3   148  LYS148      0.0206
    153  CE        22.5430   50.8090   76.3030 C.3   148  LYS148      0.1093
    154  NZ        22.2220   50.5980   74.8930 N.3   148  LYS148     -0.1314
    155  N         26.3320   52.4500   79.2390 N.3   150  GLN150     -0.1231
    156  CA        25.7280   53.7360   78.8280 C.3   150  GLN150      0.1698
    157  C         24.4900   54.1340   79.6140 C.2   150  GLN150      0.2592
    158  O         24.0270   55.2590   79.5120 O.2   150  GLN150     -0.2718
    159  CB        25.3420   53.6880   77.3660 C.3   150  GLN150      0.0381
    160  CG        26.5270   53.7410   76.4810 C.3   150  GLN150      0.0905
    161  CD        26.1600   53.4030   75.0500 C.2   150  GLN150      0.2608
    162  OE1       26.5970   52.3940   74.5100 O.2   150  GLN150     -0.2717
    163  NE2       25.2840   54.2090   74.4570 N.am  150  GLN150     -0.0878
    164  N         23.9310   53.1920   80.3690 N.am  151  ASN151     -0.1974
    165  CA        22.7300   53.4540   81.1340 C.3   151  ASN151      0.1688
    166  C         23.0500   53.5710   82.6030 C.2   151  ASN151      0.2292
    167  O         22.1760   53.4950   83.4360 O.2   151  ASN151     -0.2864
    168  CB        21.6920   52.3590   80.8520 C.3   151  ASN151      0.1181
    169  CG        21.0700   52.5310   79.5160 C.2   151  ASN151      0.2629
    170  OD1       21.1560   53.6070   78.9330 O.2   151  ASN151     -0.2716
    171  ND2       20.3670   51.5270   79.0520 N.am  151  ASN151     -0.0877
    172  N         24.7890   56.0780   85.1680 N.3   153  LEU153     -0.1245
    173  CA        25.3140   57.4350   85.3630 C.3   153  LEU153      0.1561
    174  C         26.1820   57.5060   86.6080 C.2   153  LEU153      0.2260
    175  O         25.9720   56.7570   87.5630 O.2   153  LEU153     -0.2867
    176  CB        24.1760   58.4540   85.4310 C.3   153  LEU153      0.0270
    177  CG        23.1620   58.4080   84.2920 C.3   153  LEU153      0.0019
    178  CD1       21.9810   59.3600   84.5430 C.3   153  LEU153      0.0001
    179  CD2       23.7940   58.6290   82.9270 C.3   153  LEU153      0.0001
    180  N         19.7420   54.7540   84.7480 N.3   164  CYS164     -0.1221
    181  CA        18.8520   55.5810   83.9360 C.3   164  CYS164      0.1808
    182  C         18.2890   54.7510   82.7660 C.2   164  CYS164      0.2601
    183  O         18.5700   53.5470   82.6420 O.2   164  CYS164     -0.2717
    184  CB        19.5890   56.8310   83.4140 C.3   164  CYS164      0.0970
    185  SG        20.7930   56.5690   82.1090 S.3   164  CYS164     -0.0800
    186  N         17.5390   55.4210   81.8960 N.am  165  ASP165     -0.1973
    187  CA        16.9130   54.7980   80.7190 C.3   165  ASP165      0.1709
    188  C         15.9650   53.6300   81.0380 C.2   165  ASP165      0.2293
    189  O         16.2860   52.4530   80.8100 O.2   165  ASP165     -0.2864
    190  CB        17.9290   54.3570   79.6770 C.3   165  ASP165      0.1436
    191  CG        17.2540   53.9190   78.3680 C.2   165  ASP165      0.3671
    192  OD1       16.0300   54.1180   78.2050 O.co2 165  ASP165     -0.2456
    193  OD2       17.9450   53.3790   77.5000 O.co2 165  ASP165     -0.2456
    194  N         13.2780   53.0340   79.4090 N.3   167  GLY167     -0.1225
    195  CA        12.5160   52.7970   78.1800 C.3   167  GLY167      0.1811
    196  C         12.2560   51.3490   77.7910 C.2   167  GLY167      0.2280
    197  O         11.3480   51.0730   77.0220 O.2   167  GLY167     -0.2866
@<TRIPOS>BOND
     1    20    18   am
     2    18    19    2
     3    18    17    1
     4    30    29    1
     5    24    23    2
     6    26    27    1
     7    26    29    1
     8    26    25    1
     9    41    39    1
    10    27    28    2
    11    31    32    1
    12    17    14    1
    13    23    25   am
    14    23    22    1
    15    34    33    2
    16    32    33    1
    17    33    35   am
    18    21    22    1
    19    21    15   am
    20    39    40    1
    21    39    36    1
    22    14    15    1
    23    14    13    1
    24    15    16    2
    25    35    36    1
    26    36    37    1
    27    13    11   am
    28    65    66    2
    29    65    64    1
    30    12    11    2
    31    11    10    1
    32    64    67    1
    33    64    63    1
    34    10     9    1
    35    37    42   am
    36    37    38    2
    37    67    68    1
    38    67    69    1
    39     9     3   am
    40   163   161   am
    41   162   161    2
    42    42    43    1
    43   154   153    1
    44     1     2    1
    45   161   160    1
    46     3     4    2
    47     3     2    1
    48    45    44    2
    49     2     5    1
    50    43    44    1
    51    43    46    1
    52   153   152    1
    53    48    46    1
    54   160   159    1
    55   152   151    1
    56    46    47    1
    57   197   196    2
    58     5     7    1
    59     5     6    1
    60    56    57    2
    61    56    55    1
    62   159   156    1
    63    61    62    1
    64    61    60    1
    65   193   191   ar
    66    59    60    1
    67    59    58    1
    68   144   143    1
    69     6     8    1
    70   196   195    1
    71    55    58    1
    72    55    54    1
    73   195   194    1
    74   192   191   ar
    75   151   150    1
    76   140   141    1
    77   140   139    1
    78   191   190    1
    79   150   147    1
    80   141   142    1
    81   156   155    1
    82   156   157    1
    83   170   169    2
    84   143   142    2
    85   143   145    1
    86   171   169   am
    87   136   139    1
    88   136   135    1
    89   136   137    1
    90   158   157    2
    91   169   168    1
    92   157   164   am
    93   190   187    1
    94   138   137    2
    95   147   148    1
    96   147   146    1
    97   133   132    1
    98   164   165    1
    99   148   149    2
   100   187   188    1
   101   187   186    1
   102   189   188    2
   103   168   165    1
   104   134   132    1
   105   165   166    1
   106   132   129    1
   107    51    50    1
   108    51    52    2
   109   186   182   am
   110   126   125   ar
   111    50    53    1
   112    50    49    1
   113   185   184    1
   114   104   103    1
   115   127   125   ar
   116   101   103   ar
   117   101    99   ar
   118    83    82    1
   119   166   167    2
   120   183   182    2
   121   125   124    1
   122   129   128    1
   123   129   130    1
   124   131   130    2
   125   182   181    1
   126   128   121   am
   127   103   102   ar
   128   179   177    1
   129   115   114    2
   130    99    98   ar
   131   184   181    1
   132   121   120    1
   133   121   122    2
   134   120   123    1
   135   120   119    1
   136    82    81    1
   137    82    84    1
   138   181   180    1
   139   114   119   am
   140   114   113    1
   141   108   107    2
   142   124   123    1
   143   102   100   ar
   144   177   178    1
   145   177   176    1
   146    98   100   ar
   147    98    97    1
   148    77    78    1
   149    81    78    1
   150   113   116    1
   151   113   112    1
   152    97    94    1
   153   172   173    1
   154   107   112   am
   155   107   106    1
   156   173   176    1
   157   173   174    1
   158    78    79    1
   159    80    79    2
   160    94    95    1
   161    94    93    1
   162   116   117    1
   163    88    87    2
   164   105   106    1
   165   105    95   am
   166   112   118    1
   167    75    74    1
   168    79    85   am
   169   106   109    1
   170    95    96    2
   171    93    87   am
   172    87    86    1
   173   174   175    2
   174   109   111    1
   175   109   110    1
   176    76    74    1
   177    74    71    1
   178   117   118    1
   179    85    86    1
   180    86    89    1
   181    71    72    1
   182    71    70    1
   183    73    72    2
   184    89    90    1
   185    90    92   ar
   186    90    91   ar
