@<TRIPOS>MOLECULE
tmp/3i4dA17.pdb
 200 192 0 0 0
SMALL
GASTEIGER

@<TRIPOS>ATOM
      1  N         -5.0740  -56.8810   47.6030 N.3   174  MET174     -0.1230
      2  CA        -5.9560  -55.7200   47.7790 C.3   174  MET174      0.1702
      3  C         -7.2510  -56.1600   48.4700 C.2   174  MET174      0.2592
      4  O         -7.7590  -55.4960   49.3500 O.2   174  MET174     -0.2718
      5  CB        -6.3180  -55.1210   46.4550 C.3   174  MET174      0.0401
      6  CG        -5.2540  -54.2770   45.7550 C.3   174  MET174      0.0596
      7  SD        -5.7900  -53.8980   44.1070 S.3   174  MET174     -0.1393
      8  CE        -4.4070  -52.8030   43.6680 C.3   174  MET174      0.0692
      9  N         -7.7810  -57.2940   48.0710 N.am  175  ILE175     -0.1980
     10  CA        -9.0170  -57.8250   48.6950 C.3   175  ILE175      0.1595
     11  C         -8.7190  -58.1840   50.1400 C.2   175  ILE175      0.2287
     12  O         -9.4770  -57.8870   51.0210 O.2   175  ILE175     -0.2864
     13  CB        -9.5420  -59.0500   47.9360 C.3   175  ILE175      0.0276
     14  CG1       -9.9770  -58.6280   46.5570 C.3   175  ILE175      0.0022
     15  CG2      -10.7690  -59.6530   48.6600 C.3   175  ILE175      0.0022
     16  CD1      -10.0840  -59.7250   45.5340 C.3   175  ILE175      0.0001
     17  N         -8.5990  -55.1600   52.2520 N.3   178  SER178     -0.1202
     18  CA        -9.9090  -54.5410   52.4200 C.3   178  SER178      0.2020
     19  C        -10.6640  -55.2850   53.5280 C.2   178  SER178      0.2618
     20  O        -11.2750  -54.6730   54.3920 O.2   178  SER178     -0.2717
     21  CB       -10.6520  -54.5100   51.0770 C.3   178  SER178      0.2103
     22  OG        -9.8140  -53.7810   50.1400 O.3   178  SER178     -0.2182
     23  N        -10.5200  -56.6020   53.5870 N.am  179  PHE179     -0.1975
     24  CA       -11.1730  -57.3830   54.6510 C.3   179  PHE179      0.1639
     25  C        -10.5690  -57.1100   56.0050 C.2   179  PHE179      0.2290
     26  O        -11.2980  -57.0220   56.9620 O.2   179  PHE179     -0.2864
     27  CB       -11.1630  -58.8710   54.3490 C.3   179  PHE179      0.0560
     28  CG       -12.2500  -59.3080   53.3580 C.ar  179  PHE179     -0.0200
     29  CD1      -13.5920  -59.2730   53.7160 C.ar  179  PHE179     -0.0042
     30  CD2      -11.9260  -59.8650   52.1470 C.ar  179  PHE179     -0.0042
     31  CE1      -14.5870  -59.6980   52.8580 C.ar  179  PHE179     -0.0003
     32  CE2      -12.9180  -60.2940   51.2480 C.ar  179  PHE179     -0.0003
     33  CZ       -14.2640  -60.2220   51.6340 C.ar  179  PHE179     -0.0000
     34  N        -11.8070  -53.5490   56.8950 N.3   182  THR182     -0.1218
     35  CA       -13.2560  -53.6690   57.2210 C.3   182  THR182      0.1862
     36  C        -13.5170  -54.3840   58.5690 C.2   182  THR182      0.2287
     37  O        -14.4180  -54.0320   59.3310 O.2   182  THR182     -0.2866
     38  CB       -14.0550  -54.2970   56.0410 C.3   182  THR182      0.1770
     39  OG1      -13.7040  -53.5830   54.8470 O.3   182  THR182     -0.2211
     40  CG2      -15.5770  -54.2000   56.2720 C.3   182  THR182      0.0375
     41  N        -12.7840  -51.9720   61.4910 N.3   185  LEU185     -0.1231
     42  CA       -13.9400  -51.0330   61.4930 C.3   185  LEU185      0.1693
     43  C        -15.1110  -51.7060   62.2050 C.2   185  LEU185      0.2591
     44  O        -15.7100  -51.1570   63.1170 O.2   185  LEU185     -0.2718
     45  CB       -14.3240  -50.6880   60.0410 C.3   185  LEU185      0.0284
     46  CG       -15.6580  -49.9890   59.6960 C.3   185  LEU185      0.0019
     47  CD1      -15.8700  -48.8190   60.6220 C.3   185  LEU185      0.0001
     48  CD2      -15.6840  -49.5010   58.2670 C.3   185  LEU185      0.0001
     49  N        -15.4420  -52.9140   61.7820 N.am  186  ALA186     -0.1980
     50  CA       -16.5890  -53.6590   62.3840 C.3   186  ALA186      0.1597
     51  C        -16.3800  -54.0310   63.8410 C.2   186  ALA186      0.2287
     52  O        -17.3200  -54.0270   64.6510 O.2   186  ALA186     -0.2864
     53  CB       -16.8780  -54.8910   61.5250 C.3   186  ALA186      0.0319
     54  N        -16.8240  -50.8260   65.8310 N.3   189  LEU189     -0.1231
     55  CA       -18.2830  -50.4950   65.8900 C.3   189  LEU189      0.1693
     56  C        -19.0570  -51.4170   66.8310 C.2   189  LEU189      0.2592
     57  O        -19.9120  -50.9690   67.5830 O.2   189  LEU189     -0.2718
     58  CB       -18.8690  -50.5340   64.5000 C.3   189  LEU189      0.0284
     59  CG       -18.3890  -49.4550   63.5160 C.3   189  LEU189      0.0019
     60  CD1      -19.0030  -49.6990   62.1720 C.3   189  LEU189      0.0001
     61  CD2      -18.7350  -48.0390   64.0230 C.3   189  LEU189      0.0001
     62  N        -18.7390  -52.7120   66.8040 N.am  190  HIS190     -0.1976
     63  CA       -19.4340  -53.6960   67.6030 C.3   190  HIS190      0.1656
     64  C        -19.1290  -53.5010   69.0780 C.2   190  HIS190      0.2291
     65  O        -20.0060  -53.4280   69.8980 O.2   190  HIS190     -0.2864
     66  CB       -19.0140  -55.1310   67.2330 C.3   190  HIS190      0.0771
     67  CG       -19.7470  -56.1560   68.0460 C.ar  190  HIS190      0.0820
     68  ND1      -21.1070  -56.1190   68.1540 N.ar  190  HIS190     -0.2267
     69  CD2      -19.3270  -57.1770   68.8390 C.ar  190  HIS190      0.1154
     70  CE1      -21.5060  -57.0990   68.9560 C.ar  190  HIS190      0.1986
     71  NE2      -20.4450  -57.7330   69.4070 N.ar  190  HIS190     -0.2212
     72  N        -20.8110  -50.3460   70.1310 N.3   193  LEU193     -0.1231
     73  CA       -22.2670  -50.3120   70.1550 C.3   193  LEU193      0.1693
     74  C        -22.7850  -51.0050   71.4240 C.2   193  LEU193      0.2591
     75  O        -23.5800  -50.4450   72.1730 O.2   193  LEU193     -0.2718
     76  CB       -22.8440  -50.9600   68.9040 C.3   193  LEU193      0.0284
     77  CG       -24.3530  -50.9230   68.7630 C.3   193  LEU193      0.0019
     78  CD1      -24.7990  -49.4470   68.9970 C.3   193  LEU193      0.0001
     79  CD2      -24.8250  -51.4220   67.4080 C.3   193  LEU193      0.0001
     80  N        -22.3260  -52.2190   71.6700 N.am  194  VAL194     -0.1980
     81  CA       -22.6860  -52.9580   72.8620 C.3   194  VAL194      0.1595
     82  C        -22.3350  -52.1620   74.1410 C.2   194  VAL194      0.2287
     83  O        -23.1730  -52.0640   75.0220 O.2   194  VAL194     -0.2864
     84  CB       -22.0050  -54.3680   72.9110 C.3   194  VAL194      0.0276
     85  CG1      -22.3510  -55.0070   74.2480 C.3   194  VAL194      0.0022
     86  CG2      -22.4740  -55.2670   71.7360 C.3   194  VAL194      0.0022
     87  N        -29.9040  -50.6110   69.9260 N.3   212  GLU212     -0.1231
     88  CA       -28.7620  -50.8800   69.0700 C.3   212  GLU212      0.1699
     89  C        -29.1080  -50.8710   67.5710 C.2   212  GLU212      0.2592
     90  O        -28.4510  -50.1940   66.7490 O.2   212  GLU212     -0.2718
     91  CB       -28.1730  -52.2150   69.4550 C.3   212  GLU212      0.0402
     92  CG       -27.5020  -52.1760   70.8390 C.3   212  GLU212      0.1161
     93  CD       -26.8830  -53.5220   71.2120 C.2   212  GLU212      0.3649
     94  OE1      -27.5080  -54.5870   71.0900 O.co2 212  GLU212     -0.2457
     95  OE2      -25.7440  -53.5010   71.6560 O.co2 212  GLU212     -0.2457
     96  N        -30.1600  -51.5940   67.2110 N.am  213  ASP213     -0.1974
     97  CA       -30.7160  -51.5130   65.8520 C.3   213  ASP213      0.1709
     98  C        -31.1040  -50.0930   65.5150 C.2   213  ASP213      0.2293
     99  O        -30.8200  -49.6070   64.4340 O.2   213  ASP213     -0.2864
    100  CB       -31.9610  -52.4120   65.7330 C.3   213  ASP213      0.1436
    101  CG       -31.5910  -53.9290   65.6680 C.2   213  ASP213      0.3671
    102  OD1      -32.3260  -54.7860   66.1910 O.co2 213  ASP213     -0.2456
    103  OD2      -30.5800  -54.2680   65.0500 O.co2 213  ASP213     -0.2456
    104  N        -28.0710  -47.6910   64.7420 N.3   216  PHE216     -0.1241
    105  CA       -27.5110  -47.9230   63.4090 C.3   216  PHE216      0.1605
    106  C        -28.3880  -47.5300   62.2390 C.2   216  PHE216      0.2264
    107  O        -27.8810  -47.0290   61.2440 O.2   216  PHE216     -0.2867
    108  CB       -26.8790  -49.3050   63.2280 C.3   216  PHE216      0.0534
    109  CG       -25.3940  -49.2130   63.2010 C.ar  216  PHE216     -0.0203
    110  CD1      -24.7150  -49.1320   64.3590 C.ar  216  PHE216     -0.0042
    111  CD2      -24.7370  -49.0760   62.0310 C.ar  216  PHE216     -0.0042
    112  CE1      -23.3890  -48.9200   64.3750 C.ar  216  PHE216     -0.0003
    113  CE2      -23.4110  -48.9020   62.0220 C.ar  216  PHE216     -0.0003
    114  CZ       -22.7540  -48.7740   63.2160 C.ar  216  PHE216     -0.0000
    115  N        -26.8200  -44.9980   59.5820 N.3   220  VAL220     -0.1245
    116  CA       -26.5740  -45.3730   58.1860 C.3   220  VAL220      0.1561
    117  C        -27.7640  -45.9890   57.4190 C.2   220  VAL220      0.2260
    118  O        -27.6230  -46.3030   56.2450 O.2   220  VAL220     -0.2867
    119  CB       -25.3880  -46.3050   58.1080 C.3   220  VAL220      0.0252
    120  CG1      -24.1970  -45.6840   58.8050 C.3   220  VAL220      0.0019
    121  CG2      -25.6870  -47.6120   58.7860 C.3   220  VAL220      0.0019
    122  N        -29.3280  -48.8900   58.1020 N.3   222  TYR222     -0.1227
    123  CA       -29.3410  -50.3280   58.1680 C.3   222  TYR222      0.1736
    124  C        -28.7330  -50.8130   59.4860 C.2   222  TYR222      0.2596
    125  O        -27.8310  -50.1850   60.0260 O.2   222  TYR222     -0.2718
    126  CB       -28.5840  -50.9420   56.9770 C.3   222  TYR222      0.0548
    127  CG       -28.5890  -52.4620   56.9890 C.ar  222  TYR222     -0.0200
    128  CD1      -29.7700  -53.1650   56.7450 C.ar  222  TYR222     -0.0009
    129  CD2      -27.4530  -53.1930   57.2760 C.ar  222  TYR222     -0.0009
    130  CE1      -29.7810  -54.5450   56.7590 C.ar  222  TYR222      0.0417
    131  CE2      -27.4810  -54.5870   57.3300 C.ar  222  TYR222      0.0417
    132  CZ       -28.6560  -55.2410   57.0640 C.ar  222  TYR222      0.1957
    133  OH       -28.7070  -56.6200   57.1060 O.3   222  TYR222     -0.2866
    134  N        -29.2970  -51.8620   60.0520 N.am  223  SER223     -0.1938
    135  CA       -28.6450  -52.5750   61.1440 C.3   223  SER223      0.2055
    136  C        -28.5350  -54.0400   60.7760 C.2   223  SER223      0.2643
    137  O        -29.5100  -54.6310   60.3660 O.2   223  SER223     -0.2714
    138  CB       -29.4890  -52.4310   62.4020 C.3   223  SER223      0.2130
    139  OG       -28.9710  -53.3000   63.3880 O.3   223  SER223     -0.2179
    140  N        -27.3800  -54.6590   60.9570 N.am  224  ILE224     -0.1963
    141  CA       -27.2150  -56.0390   60.5640 C.3   224  ILE224      0.1727
    142  C        -27.7720  -56.9440   61.6280 C.2   224  ILE224      0.2617
    143  O        -28.1630  -58.0660   61.3360 O.2   224  ILE224     -0.2715
    144  CB       -25.7540  -56.4450   60.2520 C.3   224  ILE224      0.0290
    145  CG1      -25.7310  -57.7260   59.3910 C.3   224  ILE224      0.0022
    146  CG2      -24.8940  -56.5270   61.5160 C.3   224  ILE224      0.0023
    147  CD1      -24.3070  -58.1360   58.8450 C.3   224  ILE224      0.0001
    148  N        -27.8630  -56.4500   62.8540 N.am  225  GLY225     -0.1940
    149  CA       -28.5530  -57.2270   63.9330 C.3   225  GLY225      0.2014
    150  C        -27.5210  -57.9710   64.7710 C.2   225  GLY225      0.2639
    151  O        -26.3720  -58.1350   64.3670 O.2   225  GLY225     -0.2714
    152  N        -27.9170  -58.3860   65.9620 N.am  226  THR226     -0.1950
    153  CA       -26.9720  -58.9260   66.9460 C.3   226  THR226      0.1897
    154  C        -26.4560  -60.2580   66.5640 C.2   226  THR226      0.2313
    155  O        -25.2900  -60.6070   66.9100 O.2   226  THR226     -0.2863
    156  CB       -27.5680  -58.9640   68.3660 C.3   226  THR226      0.1794
    157  OG1      -28.7040  -59.8750   68.4260 O.3   226  THR226     -0.2208
    158  CG2      -28.0360  -57.5030   68.8280 C.3   226  THR226      0.0378
    159  N        -23.9390  -59.4480   63.2460 N.3   229  ILE229     -0.1231
    160  CA       -22.6560  -58.7960   63.4890 C.3   229  ILE229      0.1692
    161  C        -21.5720  -59.7870   63.8730 C.2   229  ILE229      0.2592
    162  O        -20.4000  -59.6220   63.5690 O.2   229  ILE229     -0.2718
    163  CB       -22.7600  -57.6460   64.5260 C.3   229  ILE229      0.0266
    164  CG1      -21.3760  -56.9820   64.6650 C.3   229  ILE229      0.0019
    165  CG2      -23.1950  -58.1490   65.9580 C.3   229  ILE229      0.0020
    166  CD1      -20.8450  -56.2910   63.2900 C.3   229  ILE229      0.0001
    167  N        -21.9560  -60.8680   64.5320 N.am  230  HIS230     -0.1976
    168  CA       -21.0360  -61.8840   64.9230 C.3   230  HIS230      0.1656
    169  C        -20.7480  -62.7780   63.7290 C.2   230  HIS230      0.2291
    170  O        -19.5920  -63.1760   63.5130 O.2   230  HIS230     -0.2864
    171  CB       -21.5740  -62.6820   66.1350 C.3   230  HIS230      0.0771
    172  CG       -21.6520  -61.8460   67.3910 C.ar  230  HIS230      0.0820
    173  ND1      -22.8190  -61.2400   67.8060 N.ar  230  HIS230     -0.2267
    174  CD2      -20.7040  -61.4940   68.2940 C.ar  230  HIS230      0.1154
    175  CE1      -22.5750  -60.5390   68.9070 C.ar  230  HIS230      0.1986
    176  NE2      -21.2910  -60.6550   69.2170 N.ar  230  HIS230     -0.2212
    177  N        -20.7190  -61.5860   60.8150 N.3   232  LEU232     -0.1245
    178  CA       -19.9810  -60.6910   59.9720 C.3   232  LEU232      0.1561
    179  C        -18.5450  -60.6650   60.4320 C.2   232  LEU232      0.2260
    180  O        -17.6540  -60.7650   59.5950 O.2   232  LEU232     -0.2867
    181  CB       -20.5440  -59.2580   59.9990 C.3   232  LEU232      0.0270
    182  CG       -19.8510  -58.2400   59.0720 C.3   232  LEU232      0.0019
    183  CD1      -19.9880  -58.6600   57.6030 C.3   232  LEU232      0.0001
    184  CD2      -20.4100  -56.7990   59.2440 C.3   232  LEU232      0.0001
    185  N        -16.7990  -63.7840   59.3700 N.3   235  LEU235     -0.1231
    186  CA       -16.5880  -63.8040   57.9170 C.3   235  LEU235      0.1693
    187  C        -15.5110  -62.8510   57.4320 C.2   235  LEU235      0.2591
    188  O        -14.7400  -63.1920   56.5170 O.2   235  LEU235     -0.2718
    189  CB       -17.8870  -63.4390   57.2220 C.3   235  LEU235      0.0284
    190  CG       -18.2140  -63.4590   55.7120 C.3   235  LEU235      0.0019
    191  CD1      -18.1390  -62.0350   54.9620 C.3   235  LEU235      0.0001
    192  CD2      -17.4410  -64.5750   55.0230 C.3   235  LEU235      0.0001
    193  N        -15.4890  -61.6590   57.9900 N.am  236  LEU236     -0.1980
    194  CA       -14.5290  -60.6360   57.5880 C.3   236  LEU236      0.1596
    195  C        -13.1530  -61.0950   57.9780 C.2   236  LEU236      0.2287
    196  O        -12.2190  -61.0310   57.1780 O.2   236  LEU236     -0.2864
    197  CB       -14.8880  -59.2850   58.2270 C.3   236  LEU236      0.0297
    198  CG       -16.1140  -58.5200   57.6960 C.3   236  LEU236      0.0022
    199  CD1      -16.2470  -57.2510   58.5920 C.3   236  LEU236      0.0001
    200  CD2      -16.0280  -58.1250   56.2560 C.3   236  LEU236      0.0001
@<TRIPOS>BOND
     1     8     7    1
     2     7     6    1
     3    16    14    1
     4     6     5    1
     5     5     2    1
     6    14    13    1
     7     1     2    1
     8     2     3    1
     9    13    15    1
    10    13    10    1
    11     9     3   am
    12     9    10    1
    13     3     4    2
    14    10    11    1
    15    11    12    2
    16    22    21    1
    17    21    18    1
    18    32    33   ar
    19    32    30   ar
    20    33    31   ar
    21    30    28   ar
    22    17    18    1
    23    18    19    1
    24    31    29   ar
    25    28    29   ar
    26    28    27    1
    27    19    23   am
    28    19    20    2
    29    23    24    1
    30    27    24    1
    31    24    25    1
    32    39    38    1
    33   191   190    1
    34   192   190    1
    35   190   189    1
    36    25    26    2
    37    38    40    1
    38    38    35    1
    39   118   117    2
    40   200   198    1
    41   188   187    2
    42   128   130   ar
    43   128   127   ar
    44   130   132   ar
    45    34    35    1
    46   126   127    1
    47   126   123    1
    48   127   129   ar
    49   132   133    1
    50   132   131   ar
    51   196   195    2
    52    35    36    1
    53   189   186    1
    54   129   131   ar
    55   117   116    1
    56   187   186    1
    57   187   193   am
    58   194   195    1
    59   194   193    1
    60   194   197    1
    61   183   182    1
    62   198   197    1
    63   198   199    1
    64   186   185    1
    65   122   123    1
    66   119   116    1
    67   119   121    1
    68   119   120    1
    69   123   124    1
    70   116   115    1
    71    48    46    1
    72    36    37    2
    73   147   145    1
    74   182   184    1
    75   182   181    1
    76   145   144    1
    77   124   125    2
    78   124   134   am
    79   180   179    2
    80    46    45    1
    81    46    47    1
    82   178   181    1
    83   178   179    1
    84   178   177    1
    85    45    42    1
    86   134   135    1
    87   144   141    1
    88   144   146    1
    89   137   136    2
    90   141   140    1
    91   141   142    1
    92   136   140   am
    93   136   135    1
    94   135   138    1
    95   107   106    2
    96   143   142    2
    97    41    42    1
    98    42    43    1
    99    53    50    1
   100   142   148   am
   101    49    43   am
   102    49    50    1
   103   113   111   ar
   104   113   114   ar
   105   111   109   ar
   106    60    59    1
   107    43    44    2
   108   106   105    1
   109    50    51    1
   110   138   139    1
   111   148   149    1
   112   109   108    1
   113   109   110   ar
   114   114   112   ar
   115   108   105    1
   116   159   160    1
   117   166   164    1
   118   105   104    1
   119   160   161    1
   120   160   163    1
   121   170   169    2
   122    59    61    1
   123    59    58    1
   124   162   161    2
   125   169   168    1
   126    51    52    2
   127   161   167   am
   128   149   150    1
   129   110   112   ar
   130   151   150    2
   131    99    98    2
   132    58    55    1
   133   163   164    1
   134   163   165    1
   135   167   168    1
   136   150   152   am
   137   168   171    1
   138   103   101   ar
   139    98    97    1
   140   101   100    1
   141   101   102   ar
   142   100    97    1
   143    54    55    1
   144    97    96    1
   145    55    56    1
   146   152   153    1
   147   171   172    1
   148   154   155    2
   149   154   153    1
   150    90    89    2
   151    62    56   am
   152    62    63    1
   153    56    57    2
   154   153   156    1
   155    96    89   am
   156    66    63    1
   157    66    67    1
   158   172   173   ar
   159   172   174   ar
   160    79    77    1
   161    89    88    1
   162    63    64    1
   163   173   175   ar
   164    67    68   ar
   165    67    69   ar
   166    68    70   ar
   167   174   176   ar
   168   156   157    1
   169   156   158    1
   170    77    76    1
   171    77    78    1
   172    69    71   ar
   173    76    73    1
   174   175   176   ar
   175    70    71   ar
   176    88    91    1
   177    88    87    1
   178    64    65    2
   179    91    92    1
   180    72    73    1
   181    73    74    1
   182    92    93    1
   183    94    93   ar
   184    93    95   ar
   185    74    80   am
   186    74    75    2
   187    80    81    1
   188    86    84    1
   189    81    84    1
   190    81    82    1
   191    84    85    1
   192    82    83    2
