@<TRIPOS>MOLECULE
tmp/3i4dB05.pdb
 101 100 0 0 0
SMALL
GASTEIGER

@<TRIPOS>ATOM
      1  N        -27.7090  -31.6930   60.0630 N.3    55  LEU55      -0.1245
      2  CA       -26.3200  -32.0870   60.0620 C.3    55  LEU55       0.1561
      3  C        -26.0780  -33.2110   59.0700 C.2    55  LEU55       0.2260
      4  O        -25.0490  -33.2600   58.4030 O.2    55  LEU55      -0.2867
      5  CB       -25.9210  -32.5110   61.4480 C.3    55  LEU55       0.0270
      6  CG       -24.4290  -32.6390   61.7310 C.3    55  LEU55       0.0019
      7  CD1      -23.8030  -31.2920   61.4610 C.3    55  LEU55       0.0001
      8  CD2      -24.1840  -33.0360   63.1790 C.3    55  LEU55       0.0001
      9  N        -26.0560  -31.8170   55.4860 N.3    58  LEU58      -0.1245
     10  CA       -24.7800  -31.1560   55.2560 C.3    58  LEU58       0.1561
     11  C        -23.6660  -32.1760   54.9920 C.2    58  LEU58       0.2260
     12  O        -22.8500  -32.0110   54.0920 O.2    58  LEU58      -0.2867
     13  CB       -24.4060  -30.3430   56.4740 C.3    58  LEU58       0.0270
     14  CG       -23.0180  -29.7140   56.4290 C.3    58  LEU58       0.0019
     15  CD1      -22.8760  -28.7020   55.2640 C.3    58  LEU58       0.0001
     16  CD2      -22.7480  -29.0710   57.8040 C.3    58  LEU58       0.0001
     17  N        -13.3190  -32.6550   54.6700 N.3   123  PHE123     -0.1227
     18  CA       -13.1590  -32.2350   56.0700 C.3   123  PHE123      0.1736
     19  C        -14.5320  -32.0000   56.7150 C.2   123  PHE123      0.2595
     20  O        -14.8160  -32.4580   57.8060 O.2   123  PHE123     -0.2718
     21  CB       -12.3430  -30.9340   56.1150 C.3   123  PHE123      0.0547
     22  CG       -11.8890  -30.5210   57.4900 C.ar  123  PHE123     -0.0202
     23  CD1      -10.6810  -30.9740   58.0000 C.ar  123  PHE123     -0.0042
     24  CD2      -12.6200  -29.6150   58.2430 C.ar  123  PHE123     -0.0042
     25  CE1      -10.2340  -30.5730   59.2530 C.ar  123  PHE123     -0.0003
     26  CE2      -12.1950  -29.2210   59.5130 C.ar  123  PHE123     -0.0003
     27  CZ       -10.9920  -29.6860   60.0140 C.ar  123  PHE123     -0.0000
     28  N        -15.3700  -31.2280   56.0360 N.am  124  VAL124     -0.1980
     29  CA       -16.7300  -30.9350   56.5170 C.3   124  VAL124      0.1595
     30  C        -17.5750  -32.2450   56.5900 C.2   124  VAL124      0.2287
     31  O        -18.3550  -32.4730   57.5360 O.2   124  VAL124     -0.2864
     32  CB       -17.4210  -29.8390   55.6440 C.3   124  VAL124      0.0276
     33  CG1      -18.8550  -29.6190   56.1010 C.3   124  VAL124      0.0022
     34  CG2      -16.6800  -28.5010   55.6930 C.3   124  VAL124      0.0022
     35  N        -16.2600  -34.5000   59.6560 N.3   127  TRP127     -0.1227
     36  CA       -16.4540  -33.9670   61.0190 C.3   127  TRP127      0.1737
     37  C        -17.9420  -33.8180   61.2950 C.2   127  TRP127      0.2596
     38  O        -18.3810  -34.0810   62.3880 O.2   127  TRP127     -0.2718
     39  CB       -15.7190  -32.6420   61.1890 C.3   127  TRP127      0.0564
     40  CG       -14.2920  -32.8350   61.5420 C.ar  127  TRP127      0.0003
     41  CD1      -13.2290  -32.5210   60.7780 C.ar  127  TRP127      0.0946
     42  CD2      -13.7700  -33.3680   62.7650 C.ar  127  TRP127      0.0152
     43  NE1      -12.0660  -32.8290   61.4320 N.ar  127  TRP127     -0.2442
     44  CE2      -12.3710  -33.3560   62.6560 C.ar  127  TRP127      0.0810
     45  CE3      -14.3490  -33.8140   63.9560 C.ar  127  TRP127      0.0012
     46  CZ2      -11.5330  -33.7980   63.6810 C.ar  127  TRP127      0.0191
     47  CZ3      -13.5150  -34.2750   64.9730 C.ar  127  TRP127      0.0001
     48  CH2      -12.1240  -34.2790   64.8230 C.ar  127  TRP127      0.0015
     49  N        -18.7520  -33.3800   60.3170 N.am  128  SER128     -0.1952
     50  CA       -20.2430  -33.3760   60.5320 C.3   128  SER128      0.1924
     51  C        -20.7670  -34.8090   60.7670 C.2   128  SER128      0.2314
     52  O        -21.6200  -35.0450   61.6090 O.2   128  SER128     -0.2863
     53  CB       -20.9460  -32.6590   59.3770 C.3   128  SER128      0.2116
     54  OG       -20.6640  -33.3160   58.1450 O.3   128  SER128     -0.2180
     55  N        -19.0190  -37.1680   62.1640 N.3   130  TRP130     -0.1227
     56  CA       -18.6120  -37.4050   63.5600 C.3   130  TRP130      0.1737
     57  C        -19.6720  -36.8360   64.5140 C.2   130  TRP130      0.2596
     58  O        -20.1160  -37.4920   65.4900 O.2   130  TRP130     -0.2718
     59  CB       -17.2380  -36.7820   63.8780 C.3   130  TRP130      0.0564
     60  CG       -16.8490  -37.1150   65.2810 C.ar  130  TRP130      0.0003
     61  CD1      -16.3470  -38.2990   65.7460 C.ar  130  TRP130      0.0946
     62  CD2      -17.0060  -36.2730   66.4150 C.ar  130  TRP130      0.0152
     63  NE1      -16.1970  -38.2370   67.1060 N.ar  130  TRP130     -0.2442
     64  CE2      -16.5780  -36.9980   67.5360 C.ar  130  TRP130      0.0810
     65  CE3      -17.4690  -34.9680   66.5930 C.ar  130  TRP130      0.0012
     66  CZ2      -16.5990  -36.4560   68.8310 C.ar  130  TRP130      0.0191
     67  CZ3      -17.4960  -34.4400   67.8710 C.ar  130  TRP130      0.0001
     68  CH2      -17.0730  -35.1910   68.9730 C.ar  130  TRP130      0.0015
     69  N        -20.0950  -35.6330   64.2220 N.am  131  GLY131     -0.1957
     70  CA       -21.1070  -34.9780   65.0510 C.3   131  GLY131      0.1869
     71  C        -22.3830  -35.8390   65.1200 C.2   131  GLY131      0.2309
     72  O        -22.9440  -36.0090   66.1930 O.2   131  GLY131     -0.2863
     73  N        -22.2540  -38.7620   67.4730 N.3   134  TYR134     -0.1227
     74  CA       -22.4030  -38.3430   68.8630 C.3   134  TYR134      0.1736
     75  C        -23.8710  -38.0670   69.1640 C.2   134  TYR134      0.2595
     76  O        -24.4200  -38.5520   70.1650 O.2   134  TYR134     -0.2718
     77  CB       -21.5460  -37.0970   69.1430 C.3   134  TYR134      0.0548
     78  CG       -21.5400  -36.7070   70.5990 C.ar  134  TYR134     -0.0200
     79  CD1      -22.6030  -36.0190   71.1670 C.ar  134  TYR134     -0.0009
     80  CD2      -20.4760  -37.0450   71.4040 C.ar  134  TYR134     -0.0009
     81  CE1      -22.6040  -35.6960   72.5070 C.ar  134  TYR134      0.0417
     82  CE2      -20.4730  -36.7260   72.7240 C.ar  134  TYR134      0.0417
     83  CZ       -21.5250  -36.0810   73.2770 C.ar  134  TYR134      0.1957
     84  OH       -21.4840  -35.7750   74.6230 O.3   134  TYR134     -0.2866
     85  N        -24.4920  -37.2830   68.2970 N.am  135  LEU135     -0.1980
     86  CA       -25.8510  -36.8140   68.5300 C.3   135  LEU135      0.1596
     87  C        -26.8630  -37.9100   68.3700 C.2   135  LEU135      0.2287
     88  O        -27.8780  -37.9150   69.0590 O.2   135  LEU135     -0.2864
     89  CB       -26.1700  -35.6430   67.6030 C.3   135  LEU135      0.0297
     90  CG       -25.4550  -34.3170   67.9180 C.3   135  LEU135      0.0022
     91  CD1      -25.7300  -33.2630   66.8230 C.3   135  LEU135      0.0001
     92  CD2      -25.9370  -33.7650   69.3030 C.3   135  LEU135      0.0001
     93  N        -26.7140  -39.6500   71.6010 N.3   138  GLN138     -0.1245
     94  CA       -27.2260  -38.8340   72.6610 C.3   138  GLN138      0.1566
     95  C        -28.7540  -38.8840   72.6190 C.2   138  GLN138      0.2260
     96  O        -29.4100  -38.8740   73.6660 O.2   138  GLN138     -0.2867
     97  CB       -26.7860  -37.3900   72.4760 C.3   138  GLN138      0.0367
     98  CG       -27.3750  -36.3630   73.4600 C.3   138  GLN138      0.0905
     99  CD       -26.7860  -34.9940   73.2260 C.2   138  GLN138      0.2608
    100  OE1      -27.0270  -34.3980   72.1980 O.2   138  GLN138     -0.2717
    101  NE2      -26.0020  -34.5020   74.1620 N.am  138  GLN138     -0.0878
@<TRIPOS>BOND
     1    12    11    2
     2    17    18    1
     3    11    10    1
     4    10     9    1
     5    10    13    1
     6    15    14    1
     7    32    34    1
     8    32    33    1
     9    32    29    1
    10    28    29    1
    11    28    19   am
    12    18    21    1
    13    18    19    1
    14    21    22    1
    15    14    13    1
    16    14    16    1
    17    29    30    1
    18    30    31    2
    19    19    20    2
    20    22    23   ar
    21    22    24   ar
    22    23    25   ar
    23    54    53    1
    24    24    26   ar
    25     4     3    2
    26     3     2    1
    27    25    27   ar
    28    53    50    1
    29    26    27   ar
    30    35    36    1
    31     2     1    1
    32     2     5    1
    33    49    50    1
    34    49    37   am
    35    50    51    1
    36    51    52    2
    37    41    43   ar
    38    41    40   ar
    39    36    39    1
    40    36    37    1
    41    39    40    1
    42    37    38    2
    43    43    44   ar
    44     5     6    1
    45     7     6    1
    46    40    42   ar
    47     6     8    1
    48    55    56    1
    49    44    42   ar
    50    44    46   ar
    51    42    45   ar
    52    56    59    1
    53    56    57    1
    54    46    48   ar
    55    59    60    1
    56    45    47   ar
    57    69    57   am
    58    69    70    1
    59    57    58    2
    60    48    47   ar
    61    70    71    1
    62    71    72    2
    63    60    61   ar
    64    60    62   ar
    65    61    63   ar
    66    62    65   ar
    67    62    64   ar
    68    65    67   ar
    69    91    90    1
    70    63    64   ar
    71    73    74    1
    72    64    66   ar
    73    89    90    1
    74    89    86    1
    75    67    68   ar
    76    90    92    1
    77    85    86    1
    78    85    75   am
    79    87    86    1
    80    87    88    2
    81    66    68   ar
    82    74    77    1
    83    74    75    1
    84    77    78    1
    85    75    76    2
    86    78    79   ar
    87    78    80   ar
    88    79    81   ar
    89    80    82   ar
    90    93    94    1
    91   100    99    2
    92    97    94    1
    93    97    98    1
    94    81    83   ar
    95    95    94    1
    96    95    96    2
    97    82    83   ar
    98    99    98    1
    99    99   101   am
   100    83    84    1
