@<TRIPOS>MOLECULE
tmp/3i4dB04.pdb
 78 78 0 0 0
SMALL
GASTEIGER

@<TRIPOS>ATOM
      1  N         -3.1080  -21.1640   49.6450 N.3   105  PHE105     -0.1227
      2  CA        -4.2250  -21.5580   48.7930 C.3   105  PHE105      0.1736
      3  C         -4.1600  -20.9150   47.3940 C.2   105  PHE105      0.2595
      4  O         -5.1780  -20.7230   46.7480 O.2   105  PHE105     -0.2718
      5  CB        -5.5350  -21.2510   49.5170 C.3   105  PHE105      0.0547
      6  CG        -5.6510  -21.9370   50.8500 C.ar  105  PHE105     -0.0202
      7  CD1       -6.3960  -23.1090   50.9910 C.ar  105  PHE105     -0.0042
      8  CD2       -4.9790  -21.4420   51.9610 C.ar  105  PHE105     -0.0042
      9  CE1       -6.5070  -23.7440   52.2060 C.ar  105  PHE105     -0.0003
     10  CE2       -5.0750  -22.0870   53.1890 C.ar  105  PHE105     -0.0003
     11  CZ        -5.8420  -23.2440   53.3070 C.ar  105  PHE105     -0.0000
     12  N         -2.9470  -20.6570   46.9130 N.am  106  ALA106     -0.1966
     13  CA        -2.7420  -19.8720   45.7170 C.3   106  ALA106      0.1728
     14  C         -2.4480  -20.7340   44.5080 C.2   106  ALA106      0.2616
     15  O         -2.2160  -20.2020   43.4300 O.2   106  ALA106     -0.2715
     16  CB        -1.5780  -18.8720   45.9260 C.3   106  ALA106      0.0334
     17  N         -2.4190  -22.0590   44.6750 N.am  107  ALA107     -0.1964
     18  CA        -2.1260  -22.9260   43.5380 C.3   107  ALA107      0.1713
     19  C         -3.3270  -22.8600   42.5880 C.2   107  ALA107      0.2458
     20  O         -4.4630  -22.7850   43.0370 O.2   107  ALA107     -0.2730
     21  CB        -1.8330  -24.3940   43.9870 C.3   107  ALA107      0.0333
     22  N         -3.0760  -22.8580   41.2760 N.am  108  PRO108     -0.2716
     23  CA        -4.1680  -22.8870   40.2930 C.3   108  PRO108      0.1536
     24  C         -5.0260  -24.1190   40.4420 C.2   108  PRO108      0.2598
     25  O         -4.5550  -25.1150   40.9490 O.2   108  PRO108     -0.2715
     26  CB        -3.4390  -22.9240   38.9420 C.3   108  PRO108      0.0310
     27  CG        -2.0400  -22.4180   39.2360 C.3   108  PRO108      0.0237
     28  CD        -1.7430  -22.7820   40.6490 C.3   108  PRO108      0.0939
     29  N         -6.2700  -24.0440   39.9880 N.am  109  LEU109     -0.1978
     30  CA        -7.2250  -25.1310   40.1620 C.3   109  LEU109      0.1596
     31  C         -6.6830  -26.4420   39.6490 C.2   109  LEU109      0.2287
     32  O         -6.9120  -27.4750   40.2370 O.2   109  LEU109     -0.2864
     33  CB        -8.5230  -24.8550   39.4130 C.3   109  LEU109      0.0297
     34  CG        -9.5880  -24.0200   40.1040 C.3   109  LEU109      0.0022
     35  CD1      -10.8140  -24.0380   39.2170 C.3   109  LEU109      0.0001
     36  CD2       -9.9170  -24.5430   41.4670 C.3   109  LEU109      0.0001
     37  N         -5.3480  -26.5950   43.4340 N.3   113  GLY113     -0.1225
     38  CA        -6.5310  -25.8930   43.9160 C.3   113  GLY113      0.1811
     39  C         -7.7360  -26.7910   44.0790 C.2   113  GLY113      0.2280
     40  O         -8.4220  -26.7460   45.1040 O.2   113  GLY113     -0.2866
     41  N         -7.4730  -28.9750   47.0310 N.3   116  LEU116     -0.1231
     42  CA        -7.8320  -28.2440   48.2600 C.3   116  LEU116      0.1693
     43  C         -9.3300  -28.1070   48.4470 C.2   116  LEU116      0.2591
     44  O         -9.8300  -28.2750   49.5700 O.2   116  LEU116     -0.2718
     45  CB        -7.1990  -26.8560   48.2890 C.3   116  LEU116      0.0284
     46  CG        -5.6770  -26.8020   48.5540 C.3   116  LEU116      0.0019
     47  CD1       -5.0970  -25.4990   48.0480 C.3   116  LEU116      0.0001
     48  CD2       -5.4950  -26.9740   50.0470 C.3   116  LEU116      0.0001
     49  N        -10.0410  -27.7990   47.3520 N.am  117  ILE117     -0.1980
     50  CA       -11.5080  -27.7480   47.3960 C.3   117  ILE117      0.1595
     51  C        -12.0610  -29.1160   47.7690 C.2   117  ILE117      0.2287
     52  O        -12.8760  -29.2260   48.6900 O.2   117  ILE117     -0.2864
     53  CB       -12.1060  -27.3010   46.0590 C.3   117  ILE117      0.0276
     54  CG1      -11.6960  -25.8510   45.7970 C.3   117  ILE117      0.0022
     55  CG2      -13.6590  -27.5250   46.0630 C.3   117  ILE117      0.0022
     56  CD1      -12.0690  -25.2850   44.3840 C.3   117  ILE117      0.0001
     57  N        -11.3520  -29.7810   51.4220 N.3   120  PHE120     -0.1227
     58  CA       -12.2600  -29.0000   52.2450 C.3   120  PHE120      0.1736
     59  C        -13.6030  -29.7040   52.3780 C.2   120  PHE120      0.2595
     60  O        -14.1290  -29.8440   53.4880 O.2   120  PHE120     -0.2718
     61  CB       -12.4660  -27.5880   51.6920 C.3   120  PHE120      0.0547
     62  CG       -13.5150  -26.7940   52.4600 C.ar  120  PHE120     -0.0202
     63  CD1      -13.2160  -26.2400   53.6900 C.ar  120  PHE120     -0.0042
     64  CD2      -14.8110  -26.6440   51.9650 C.ar  120  PHE120     -0.0042
     65  CE1      -14.1980  -25.5090   54.4190 C.ar  120  PHE120     -0.0003
     66  CE2      -15.8020  -25.9010   52.6830 C.ar  120  PHE120     -0.0003
     67  CZ       -15.4800  -25.3390   53.8960 C.ar  120  PHE120     -0.0000
     68  N        -14.1860  -30.1420   51.2620 N.am  121  PHE121     -0.1976
     69  CA       -15.4830  -30.8510   51.3590 C.3   121  PHE121      0.1639
     70  C        -15.3600  -32.1380   52.1780 C.2   121  PHE121      0.2290
     71  O        -16.3050  -32.5310   52.8260 O.2   121  PHE121     -0.2864
     72  CB       -16.0540  -31.2160   49.9870 C.3   121  PHE121      0.0560
     73  CG       -16.5750  -30.0320   49.1720 C.ar  121  PHE121     -0.0200
     74  CD1      -17.5690  -29.2240   49.6620 C.ar  121  PHE121     -0.0042
     75  CD2      -16.0770  -29.7800   47.9000 C.ar  121  PHE121     -0.0042
     76  CE1      -18.0700  -28.1560   48.9100 C.ar  121  PHE121     -0.0003
     77  CE2      -16.5530  -28.7170   47.1220 C.ar  121  PHE121     -0.0003
     78  CZ       -17.5460  -27.8930   47.6240 C.ar  121  PHE121     -0.0000
@<TRIPOS>BOND
     1    26    27    1
     2    26    23    1
     3    35    34    1
     4    27    28    1
     5    33    34    1
     6    33    30    1
     7    31    30    1
     8    31    32    2
     9    29    30    1
    10    29    24   am
    11    34    36    1
    12    23    24    1
    13    23    22    1
    14    24    25    2
    15    28    22    1
    16    22    19   am
    17    19    20    2
    18    19    18    1
    19    15    14    2
    20    37    38    1
    21    18    21    1
    22    18    17    1
    23    38    39    1
    24    39    40    2
    25    56    54    1
    26    14    17   am
    27    14    13    1
    28    13    16    1
    29    13    12    1
    30    54    53    1
    31    53    55    1
    32    53    50    1
    33     4     3    2
    34    12     3   am
    35    41    42    1
    36    77    78   ar
    37    77    75   ar
    38    49    50    1
    39    49    43   am
    40     3     2    1
    41    50    51    1
    42    78    76   ar
    43    51    52    2
    44    75    73   ar
    45    47    46    1
    46    42    45    1
    47    42    43    1
    48    45    46    1
    49    43    44    2
    50    46    48    1
    51     2     5    1
    52     2     1    1
    53    76    74   ar
    54    73    74   ar
    55    73    72    1
    56     5     6    1
    57    72    69    1
    58     6     7   ar
    59     6     8   ar
    60     7     9   ar
    61    68    69    1
    62    68    59   am
    63    69    70    1
    64    57    58    1
    65    61    58    1
    66    61    62    1
    67     8    10   ar
    68    64    62   ar
    69    64    66   ar
    70    70    71    2
    71     9    11   ar
    72    58    59    1
    73    59    60    2
    74    62    63   ar
    75    66    67   ar
    76    10    11   ar
    77    63    65   ar
    78    67    65   ar
