@<TRIPOS>MOLECULE
tmp/3i4lA00.pdb
 174 170 0 0 0
SMALL
GASTEIGER

@<TRIPOS>ATOM
      1  N         45.9110   20.3310   14.6930 N.3   155  GLN155     -0.1245
      2  CA        46.0990   18.9040   14.9050 C.3   155  GLN155      0.1566
      3  C         45.8090   18.1730   13.5980 C.2   155  GLN155      0.2260
      4  O         44.7070   18.1950   13.0960 O.2   155  GLN155     -0.2867
      5  CB        45.1990   18.4000   16.0470 C.3   155  GLN155      0.0367
      6  CG        45.1880   19.3000   17.2920 C.3   155  GLN155      0.0905
      7  CD        46.5970   19.6600   17.7880 C.2   155  GLN155      0.2608
      8  OE1       47.3150   18.7600   18.2340 O.2   155  GLN155     -0.2717
      9  NE2       46.9900   20.9720   17.7380 N.am  155  GLN155     -0.0878
     10  N         35.0480   11.0010   22.9870 N.3   173  PRO173     -0.2102
     11  CA        34.8170   10.2340   24.2040 C.3   173  PRO173      0.1504
     12  C         35.2890   10.8910   25.4980 C.2   173  PRO173      0.2576
     13  O         36.2580   11.6780   25.5140 O.2   173  PRO173     -0.2718
     14  CB        35.6620    8.9630   23.9910 C.3   173  PRO173      0.0282
     15  CG        35.8000    8.8270   22.5650 C.3   173  PRO173      0.0208
     16  CD        35.9070   10.2390   22.0570 C.3   173  PRO173      0.0893
     17  N         34.5470   10.5730   26.5610 N.am  174  GLY174     -0.1943
     18  CA        35.1220   10.3440   27.8920 C.3   174  GLY174      0.1998
     19  C         35.2140   11.6680   28.5660 C.2   174  GLY174      0.2480
     20  O         34.8930   12.6730   27.9230 O.2   174  GLY174     -0.2729
     21  N         35.6380   11.6840   29.8500 N.am  175  PRO175     -0.2726
     22  CA        35.7830   12.9620   30.5650 C.3   175  PRO175      0.1402
     23  C         36.9800   13.7660   30.0530 C.2   175  PRO175      0.2269
     24  O         38.0020   13.1880   29.6650 O.2   175  PRO175     -0.2865
     25  CB        35.9790   12.5390   32.0320 C.3   175  PRO175      0.0296
     26  CG        36.6010   11.1610   31.9400 C.3   175  PRO175      0.0237
     27  CD        35.9900   10.5230   30.6960 C.3   175  PRO175      0.0939
     28  N         40.2240   13.2170   31.8360 N.3   178  SER178     -0.1217
     29  CA        40.9780   11.9840   31.5870 C.3   178  SER178      0.1889
     30  C         42.4470   12.3170   31.2960 C.2   178  SER178      0.2288
     31  O         42.7620   13.1900   30.4600 O.2   178  SER178     -0.2866
     32  CB        40.3720   11.1510   30.4480 C.3   178  SER178      0.2089
     33  OG        41.1540    9.9800   30.1760 O.3   178  SER178     -0.2183
     34  N         44.5010   10.1000   30.2120 N.3   180  LYS180     -0.1231
     35  CA        44.9140    9.1640   29.1650 C.3   180  LYS180      0.1693
     36  C         45.1830    9.8660   27.8330 C.2   180  LYS180      0.2593
     37  O         45.8540    9.3030   26.9520 O.2   180  LYS180     -0.2718
     38  CB        43.8340    8.1030   28.9670 C.3   180  LYS180      0.0285
     39  CG        44.1820    6.6830   29.4240 C.3   180  LYS180      0.0035
     40  CD        44.3200    6.5500   30.9360 C.3   180  LYS180      0.0206
     41  CE        44.1370    5.0880   31.3790 C.3   180  LYS180      0.1093
     42  NZ        45.1220    4.6760   32.4360 N.3   180  LYS180     -0.1314
     43  N         44.6550   11.0950   27.7280 N.am  181  THR181     -0.1939
     44  CA        44.5530   11.8910   26.5030 C.3   181  THR181      0.2028
     45  C         44.9030   13.3470   26.8080 C.2   181  THR181      0.2642
     46  O         44.7800   13.7760   27.9730 O.2   181  THR181     -0.2714
     47  CB        43.0930   11.8820   25.9320 C.3   181  THR181      0.1808
     48  OG1       42.3320   12.9990   26.4300 O.3   181  THR181     -0.2208
     49  CG2       42.3490   10.6460   26.3420 C.3   181  THR181      0.0379
     50  N         45.3020   14.1110   25.7790 N.am  182  VAL182     -0.1963
     51  CA        45.5360   15.5780   25.9180 C.3   182  VAL182      0.1727
     52  C         44.9560   16.4050   24.7490 C.2   182  VAL182      0.2617
     53  O         45.1390   17.6280   24.6920 O.2   182  VAL182     -0.2715
     54  CB        47.0570   15.9590   26.1090 C.3   182  VAL182      0.0290
     55  CG1       47.6880   15.2770   27.3060 C.3   182  VAL182      0.0023
     56  CG2       47.8690   15.6810   24.8560 C.3   182  VAL182      0.0023
     57  N         44.2700   15.7440   23.8160 N.am  183  THR183     -0.1937
     58  CA        43.6710   16.4840   22.6930 C.3   183  THR183      0.2028
     59  C         42.5670   17.4520   23.0950 C.2   183  THR183      0.2642
     60  O         42.4490   18.5070   22.4990 O.2   183  THR183     -0.2714
     61  CB        43.2660   15.6120   21.4700 C.3   183  THR183      0.1808
     62  OG1       41.8510   15.3890   21.4500 O.3   183  THR183     -0.2208
     63  CG2       44.0030   14.3160   21.4440 C.3   183  THR183      0.0379
     64  N         41.8130   17.1180   24.1440 N.am  184  GLN184     -0.1976
     65  CA        40.8160   18.0140   24.7430 C.3   184  GLN184      0.1601
     66  C         41.4670   19.3410   24.9880 C.2   184  GLN184      0.2287
     67  O         40.9450   20.3710   24.5870 O.2   184  GLN184     -0.2864
     68  CB        40.2710   17.4980   26.0990 C.3   184  GLN184      0.0394
     69  CG        40.1560   15.9940   26.3260 C.3   184  GLN184      0.0908
     70  CD        41.4700   15.3410   26.7530 C.2   184  GLN184      0.2608
     71  OE1       41.6430   14.8900   27.8830 O.2   184  GLN184     -0.2717
     72  NE2       42.3780   15.2580   25.8280 N.am  184  GLN184     -0.0878
     73  N         44.4750   20.4200   23.7670 N.3   186  GLN186     -0.1245
     74  CA        45.0140   20.9770   22.5080 C.3   186  GLN186      0.1566
     75  C         43.9120   21.7670   21.7710 C.2   186  GLN186      0.2260
     76  O         44.1300   22.8640   21.2810 O.2   186  GLN186     -0.2867
     77  CB        45.5750   19.8690   21.6090 C.3   186  GLN186      0.0367
     78  CG        46.8680   19.1860   22.0840 C.3   186  GLN186      0.0905
     79  CD        48.0540   20.1310   22.1060 C.2   186  GLN186      0.2608
     80  OE1       48.3000   20.7620   23.1210 O.2   186  GLN186     -0.2717
     81  NE2       48.7880   20.2430   20.9780 N.am  186  GLN186     -0.0878
     82  N         29.4150    2.5080   24.9810 N.3   335  PHE335     -0.1241
     83  CA        29.1300    3.2860   23.7600 C.3   335  PHE335      0.1605
     84  C         28.0010    2.7460   22.8700 C.2   335  PHE335      0.2264
     85  O         27.9990    2.9480   21.6520 O.2   335  PHE335     -0.2867
     86  CB        30.4210    3.5120   22.9530 C.3   335  PHE335      0.0534
     87  CG        31.4090    4.4050   23.6430 C.ar  335  PHE335     -0.0203
     88  CD1       32.2640    3.8980   24.6220 C.ar  335  PHE335     -0.0042
     89  CD2       31.4800    5.7570   23.3290 C.ar  335  PHE335     -0.0042
     90  CE1       33.1810    4.7260   25.2800 C.ar  335  PHE335     -0.0003
     91  CE2       32.3950    6.5940   23.9820 C.ar  335  PHE335     -0.0003
     92  CZ        33.2470    6.0750   24.9570 C.ar  335  PHE335     -0.0000
     93  N         38.4770    8.7080   20.2530 N.3   353  LEU353     -0.1231
     94  CA        39.5890    8.4160   21.1670 C.3   353  LEU353      0.1693
     95  C         39.5080    6.9350   21.5430 C.2   353  LEU353      0.2592
     96  O         38.4250    6.4240   21.8900 O.2   353  LEU353     -0.2718
     97  CB        39.5020    9.2840   22.4140 C.3   353  LEU353      0.0284
     98  CG        40.3490   10.5500   22.5910 C.3   353  LEU353      0.0019
     99  CD1       40.7720   11.2270   21.3210 C.3   353  LEU353      0.0001
    100  CD2       39.6540   11.5300   23.5500 C.3   353  LEU353      0.0001
    101  N         40.6450    6.2630   21.4730 N.am  354  ASP354     -0.1960
    102  CA        40.6860    4.8160   21.4010 C.3   354  ASP354      0.1840
    103  C         41.7500    4.2450   22.3550 C.2   354  ASP354      0.2621
    104  O         42.9460    4.4070   22.1150 O.2   354  ASP354     -0.2715
    105  CB        40.9800    4.4290   19.9440 C.3   354  ASP354      0.1450
    106  CG        41.0710    2.9610   19.7400 C.2   354  ASP354      0.3671
    107  OD1       41.8750    2.3510   20.4290 O.co2 354  ASP354     -0.2456
    108  OD2       40.3710    2.4070   18.8710 O.co2 354  ASP354     -0.2456
    109  N         41.3050    3.5920   23.4350 N.am  355  ALA355     -0.1977
    110  CA        42.1900    3.0610   24.4830 C.3   355  ALA355      0.1597
    111  C         43.3250    2.1720   23.9450 C.2   355  ALA355      0.2287
    112  O         44.4390    2.1740   24.4900 O.2   355  ALA355     -0.2864
    113  CB        41.3680    2.3210   25.5660 C.3   355  ALA355      0.0319
    114  N         46.0750    4.5090   22.5180 N.3   358  ALA358     -0.1245
    115  CA        46.7750    5.1070   23.6420 C.3   358  ALA358      0.1562
    116  C         47.7690    4.1240   24.2400 C.2   358  ALA358      0.2260
    117  O         48.9170    4.4730   24.5010 O.2   358  ALA358     -0.2867
    118  CB        45.8000    5.5620   24.6950 C.3   358  ALA358      0.0290
    119  N         49.8450    8.6790   19.4520 N.3   363  PHE363     -0.1228
    120  CA        49.2090    9.9200   19.9200 C.3   363  PHE363      0.1721
    121  C         49.0070   10.8900   18.7950 C.2   363  PHE363      0.2437
    122  O         49.9300   11.0680   18.0110 O.2   363  PHE363     -0.2733
    123  CB        49.8650   10.5320   21.1510 C.3   363  PHE363      0.0547
    124  CG        49.7400    9.6850   22.3580 C.ar  363  PHE363     -0.0202
    125  CD1       50.8560    9.0260   22.8700 C.ar  363  PHE363     -0.0042
    126  CD2       48.4790    9.4890   22.9610 C.ar  363  PHE363     -0.0042
    127  CE1       50.7400    8.2090   24.0230 C.ar  363  PHE363     -0.0003
    128  CE2       48.3400    8.6860   24.0850 C.ar  363  PHE363     -0.0003
    129  CZ        49.4740    8.0380   24.6380 C.ar  363  PHE363     -0.0000
    130  N         48.0280   11.7770   18.9990 N.am  364  PRO364     -0.2718
    131  CA        46.5700   11.6670   19.2830 C.3   364  PRO364      0.1535
    132  C         45.9750   10.2770   19.0490 C.2   364  PRO364      0.2598
    133  O         46.1190    9.7000   17.9820 O.2   364  PRO364     -0.2715
    134  CB        45.9310   12.8320   18.5060 C.3   364  PRO364      0.0310
    135  CG        47.0930   13.4200   17.6620 C.3   364  PRO364      0.0237
    136  CD        48.3490   13.0730   18.3790 C.3   364  PRO364      0.0939
    137  N         45.3640    9.7190   20.0780 N.am  365  ALA365     -0.1978
    138  CA        44.8420    8.3570   20.0100 C.3   365  ALA365      0.1597
    139  C         43.4720    8.2920   19.3230 C.2   365  ALA365      0.2287
    140  O         42.5490    7.5910   19.7830 O.2   365  ALA365     -0.2864
    141  CB        44.8030    7.7090   21.4210 C.3   365  ALA365      0.0319
    142  N         51.3360   12.9680   16.4080 N.3   441  GLN441     -0.1231
    143  CA        51.7080   14.3480   16.5700 C.3   441  GLN441      0.1698
    144  C         52.1540   14.5260   18.0150 C.2   441  GLN441      0.2592
    145  O         51.5850   13.8710   18.9100 O.2   441  GLN441     -0.2718
    146  CB        50.5130   15.2420   16.2050 C.3   441  GLN441      0.0381
    147  CG        50.8450   16.7020   16.2340 C.3   441  GLN441      0.0905
    148  CD        49.8570   17.5730   15.5300 C.2   441  GLN441      0.2608
    149  OE1       50.0320   18.7890   15.5120 O.2   441  GLN441     -0.2717
    150  NE2       48.8540   16.9830   14.8990 N.am  441  GLN441     -0.0878
    151  N         53.1750   15.3600   18.2510 N.am  442  ASP442     -0.1960
    152  CA        53.7120   15.5450   19.6230 C.3   442  ASP442      0.1840
    153  C         53.2340   16.8300   20.2700 C.2   442  ASP442      0.2622
    154  O         53.7940   17.9060   20.0070 O.2   442  ASP442     -0.2715
    155  CB        55.2470   15.5130   19.6340 C.3   442  ASP442      0.1450
    156  CG        55.8440   15.2820   21.0380 C.2   442  ASP442      0.3671
    157  OD1       55.1450   15.3890   22.0910 O.co2 442  ASP442     -0.2456
    158  OD2       57.0570   14.9860   21.0810 O.co2 442  ASP442     -0.2456
    159  N         52.2220   16.7080   21.1220 N.am  443  ALA443     -0.1963
    160  CA        51.6210   17.8470   21.8180 C.3   443  ALA443      0.1728
    161  C         52.5710   18.4910   22.8170 C.2   443  ALA443      0.2616
    162  O         52.3720   19.6660   23.1960 O.2   443  ALA443     -0.2715
    163  CB        50.3690   17.4140   22.5530 C.3   443  ALA443      0.0334
    164  N         53.5790   17.7190   23.2400 N.am  444  PHE444     -0.1974
    165  CA        54.5970   18.1450   24.2070 C.3   444  PHE444      0.1639
    166  C         55.8270   18.7500   23.5770 C.2   444  PHE444      0.2290
    167  O         56.7670   19.0540   24.2880 O.2   444  PHE444     -0.2864
    168  CB        55.0270   16.9710   25.0850 C.3   444  PHE444      0.0560
    169  CG        53.8840   16.3310   25.8350 C.ar  444  PHE444     -0.0200
    170  CD1       53.6340   16.6630   27.1680 C.ar  444  PHE444     -0.0042
    171  CD2       53.0280   15.4210   25.1930 C.ar  444  PHE444     -0.0042
    172  CE1       52.5520   16.0580   27.8640 C.ar  444  PHE444     -0.0003
    173  CE2       51.9750   14.8260   25.8670 C.ar  444  PHE444     -0.0003
    174  CZ        51.7230   15.1400   27.1980 C.ar  444  PHE444     -0.0000
@<TRIPOS>BOND
     1     4     3    2
     2     3     2    1
     3     1     2    1
     4   150   148   am
     5     2     5    1
     6   149   148    2
     7   148   147    1
     8     5     6    1
     9   146   147    1
    10   146   143    1
    11   142   143    1
    12   143   144    1
    13     6     7    1
    14   135   136    1
    15   135   134    1
    16     9     7   am
    17     7     8    2
    18   133   132    2
    19   122   121    2
    20   144   151   am
    21   144   145    2
    22   151   152    1
    23   136   130    1
    24   134   131    1
    25   121   130   am
    26   121   120    1
    27   108   106   ar
    28   130   131    1
    29   132   131    1
    30   132   137   am
    31   139   140    2
    32   139   138    1
    33   119   120    1
    34   152   155    1
    35   152   153    1
    36   155   156    1
    37   106   105    1
    38   106   107   ar
    39   120   123    1
    40   105   102    1
    41   154   153    2
    42   138   137    1
    43   138   141    1
    44    93    94    1
    45   153   159   am
    46    81    79   am
    47   156   158   ar
    48   156   157   ar
    49   159   160    1
    50   123   124    1
    51    94    95    1
    52    94    97    1
    53    76    75    2
    54    99    98    1
    55   102   101    1
    56   102   103    1
    57    63    61    1
    58    62    61    1
    59    61    58    1
    60   101    95   am
    61    95    96    2
    62    77    78    1
    63    77    74    1
    64    85    84    2
    65    75    74    1
    66   160   163    1
    67   160   161    1
    68    16    15    1
    69    16    10    1
    70    78    79    1
    71    79    80    2
    72   104   103    2
    73   103   109   am
    74   124   125   ar
    75   124   126   ar
    76    97    98    1
    77    60    59    2
    78    74    73    1
    79   114   115    1
    80    15    14    1
    81    98   100    1
    82    58    59    1
    83    58    57    1
    84   161   162    2
    85   161   164   am
    86    84    83    1
    87   125   127   ar
    88    86    87    1
    89    86    83    1
    90   126   128   ar
    91    10    11    1
    92    59    64   am
    93   164   165    1
    94    89    87   ar
    95    89    91   ar
    96   109   110    1
    97   166   165    1
    98   166   167    2
    99   115   116    1
   100   115   118    1
   101    87    88   ar
   102    83    82    1
   103    57    52   am
   104   111   110    1
   105   111   112    2
   106    91    92   ar
   107    14    11    1
   108   127   129   ar
   109   128   129   ar
   110    64    65    1
   111    11    12    1
   112   165   168    1
   113   116   117    2
   114   110   113    1
   115    67    66    2
   116    88    90   ar
   117    53    52    2
   118    65    66    1
   119    65    68    1
   120    52    51    1
   121    56    54    1
   122    92    90   ar
   123   168   169    1
   124   171   169   ar
   125   171   173   ar
   126    12    13    2
   127    12    17   am
   128    50    51    1
   129    50    45   am
   130    72    70   am
   131   169   170   ar
   132   173   174   ar
   133    51    54    1
   134    47    49    1
   135    47    48    1
   136    47    44    1
   137    68    69    1
   138    54    55    1
   139    69    70    1
   140    44    45    1
   141    44    43    1
   142    17    18    1
   143    70    71    2
   144    45    46    2
   145    37    36    2
   146   170   172   ar
   147   174   172   ar
   148    43    36   am
   149    36    35    1
   150    18    19    1
   151    20    19    2
   152    19    21   am
   153    38    35    1
   154    38    39    1
   155    35    34    1
   156    39    40    1
   157    24    23    2
   158    21    22    1
   159    21    27    1
   160    23    22    1
   161    33    32    1
   162    32    29    1
   163    31    30    2
   164    22    25    1
   165    27    26    1
   166    40    41    1
   167    30    29    1
   168    41    42    1
   169    29    28    1
   170    26    25    1
