@<TRIPOS>MOLECULE
tmp/3i4xA01.pdb
 140 134 0 0 0
SMALL
GASTEIGER

@<TRIPOS>ATOM
      1  N         22.1690   81.4840   15.9950 N.3    80  ILE80      -0.1231
      2  CA        22.9970   80.4290   16.5130 C.3    80  ILE80       0.1692
      3  C         24.4580   80.7810   16.2490 C.2    80  ILE80       0.2592
      4  O         25.3510   80.1430   16.8140 O.2    80  ILE80      -0.2718
      5  CB        22.6610   79.0750   15.8180 C.3    80  ILE80       0.0266
      6  CG1       23.0890   77.8740   16.6590 C.3    80  ILE80       0.0019
      7  CG2       23.4170   78.9450   14.4650 C.3    80  ILE80       0.0020
      8  CD1       22.7650   77.9270   18.1120 C.3    80  ILE80       0.0001
      9  N         24.7130   81.7540   15.3650 N.am   81  LEU81      -0.1966
     10  CA        26.1240   82.0920   14.9830 C.3    81  LEU81       0.1728
     11  C         27.0610   82.3980   16.1660 C.2    81  LEU81       0.2616
     12  O         28.2120   81.9230   16.2120 O.2    81  LEU81      -0.2715
     13  CB        26.1700   83.2520   13.9790 C.3    81  LEU81       0.0311
     14  CG        27.5250   83.6730   13.3660 C.3    81  LEU81       0.0022
     15  CD1       28.3680   82.4810   12.7740 C.3    81  LEU81       0.0001
     16  CD2       27.3380   84.7610   12.3350 C.3    81  LEU81       0.0001
     17  N         26.5830   83.1950   17.1190 N.am   82  THR82      -0.1951
     18  CA        27.4130   83.5760   18.2590 C.3    82  THR82       0.1897
     19  C         26.6360   83.2770   19.5420 C.2    82  THR82       0.2313
     20  O         25.4080   83.1600   19.5250 O.2    82  THR82      -0.2863
     21  CB        27.7740   85.0690   18.2250 C.3    82  THR82       0.1794
     22  OG1       26.5870   85.8160   18.5340 O.3    82  THR82      -0.2208
     23  CG2       28.2850   85.4890   16.8190 C.3    82  THR82       0.0378
     24  N         29.7630   87.4690   12.2250 N.3    89  GLU89      -0.1245
     25  CA        31.0650   87.1200   12.8050 C.3    89  GLU89       0.1567
     26  C         32.1660   87.0200   11.7510 C.2    89  GLU89       0.2260
     27  O         32.0110   86.3350   10.7280 O.2    89  GLU89      -0.2867
     28  CB        30.9740   85.7870   13.5570 C.3    89  GLU89       0.0388
     29  CG        32.2880   85.3570   14.2300 C.3    89  GLU89       0.1160
     30  CD        32.2560   83.8810   14.6720 C.2    89  GLU89       0.3649
     31  OE1       32.1780   82.9660   13.7920 O.co2  89  GLU89      -0.2457
     32  OE2       32.3000   83.6520   15.9020 O.co2  89  GLU89      -0.2457
     33  N         30.7690   85.3220    8.4110 N.3   102  THR102     -0.1218
     34  CA        29.5630   84.5730    8.3380 C.3   102  THR102      0.1862
     35  C         28.4380   85.4520    8.8440 C.2   102  THR102      0.2287
     36  O         28.6290   86.2340    9.7920 O.2   102  THR102     -0.2866
     37  CB        29.6360   83.3720    9.2700 C.3   102  THR102      0.1770
     38  OG1       30.8130   82.6310    8.9730 O.3   102  THR102     -0.2211
     39  CG2       28.4180   82.4650    9.0400 C.3   102  THR102      0.0375
     40  N         22.8210   79.9600    7.3200 N.3   174  LYS174     -0.1245
     41  CA        23.7140   81.1060    7.3810 C.3   174  LYS174      0.1561
     42  C         24.5400   81.1210    6.0940 C.2   174  LYS174      0.2260
     43  O         24.5820   80.1300    5.3820 O.2   174  LYS174     -0.2867
     44  CB        24.6510   80.9630    8.6050 C.3   174  LYS174      0.0271
     45  CG        23.9130   81.1850    9.9460 C.3   174  LYS174      0.0035
     46  CD        24.9150   81.0570   11.1200 C.3   174  LYS174      0.0206
     47  CE        25.3530   79.6260   11.2880 C.3   174  LYS174      0.1093
     48  NZ        26.3350   79.4320   12.3750 N.3   174  LYS174     -0.1314
     49  N         25.6610   77.3480    5.6990 N.3   189  TYR189     -0.1241
     50  CA        25.5640   76.4260    6.8330 C.3   189  TYR189      0.1605
     51  C         24.1170   76.1660    7.1050 C.2   189  TYR189      0.2264
     52  O         23.3550   77.1070    7.1870 O.2   189  TYR189     -0.2867
     53  CB        26.1960   77.0220    8.1020 C.3   189  TYR189      0.0534
     54  CG        27.6130   77.4650    7.8380 C.ar  189  TYR189     -0.0201
     55  CD1       28.6700   76.5870    7.9840 C.ar  189  TYR189     -0.0009
     56  CD2       27.8710   78.7440    7.3540 C.ar  189  TYR189     -0.0009
     57  CE1       29.9690   76.9710    7.6840 C.ar  189  TYR189      0.0417
     58  CE2       29.1770   79.1530    7.0580 C.ar  189  TYR189      0.0417
     59  CZ        30.2000   78.2850    7.2280 C.ar  189  TYR189      0.1957
     60  OH        31.4750   78.7420    6.9580 O.3   189  TYR189     -0.2866
     61  N         21.2190   74.0770    9.5040 N.3   191  TYR191     -0.1241
     62  CA        21.0000   73.5400   10.8320 C.3   191  TYR191      0.1605
     63  C         19.6820   72.7480   10.8220 C.2   191  TYR191      0.2264
     64  O         18.6080   73.3350   10.9380 O.2   191  TYR191     -0.2867
     65  CB        20.9670   74.7010   11.8570 C.3   191  TYR191      0.0534
     66  CG        22.3670   75.2210   12.1970 C.ar  191  TYR191     -0.0201
     67  CD1       22.9810   74.8700   13.4020 C.ar  191  TYR191     -0.0009
     68  CD2       23.0880   76.0530   11.2980 C.ar  191  TYR191     -0.0009
     69  CE1       24.2710   75.3040   13.6970 C.ar  191  TYR191      0.0417
     70  CE2       24.3760   76.4920   11.6000 C.ar  191  TYR191      0.0417
     71  CZ        24.9470   76.1190   12.8010 C.ar  191  TYR191      0.1957
     72  OH        26.1910   76.5620   13.1440 O.3   191  TYR191     -0.2866
     73  N         25.4140   68.1020   13.8270 N.3   244  ARG244     -0.1231
     74  CA        24.7440   69.3550   14.1890 C.3   244  ARG244      0.1694
     75  C         24.3780   70.2070   12.9790 C.2   244  ARG244      0.2591
     76  O         23.3480   70.8620   12.9650 O.2   244  ARG244     -0.2718
     77  CB        25.6300   70.1620   15.1440 C.3   244  ARG244      0.0321
     78  CG        25.1220   71.5590   15.4940 C.3   244  ARG244      0.0489
     79  CD        26.1860   72.2290   16.3660 C.3   244  ARG244      0.2205
     80  NE        25.8510   73.5660   16.8710 N.pl3 244  ARG244     -0.0865
     81  CZ        25.0130   73.8100   17.8780 C.cat 244  ARG244      0.5346
     82  NH1       24.3680   72.8050   18.4760 N.pl3 244  ARG244      0.1354
     83  NH2       24.8090   75.0630   18.2930 N.pl3 244  ARG244      0.1354
     84  N         25.2490   70.2460   11.9890 N.am  245  LEU245     -0.1980
     85  CA        24.9970   71.0880   10.8210 C.3   245  LEU245      0.1596
     86  C         25.8070   70.5630    9.6550 C.2   245  LEU245      0.2287
     87  O         26.6710   69.6790    9.7990 O.2   245  LEU245     -0.2864
     88  CB        25.2970   72.5960   11.0620 C.3   245  LEU245      0.0297
     89  CG        26.8170   72.8490   11.1760 C.3   245  LEU245      0.0022
     90  CD1       27.2500   74.1750   10.5340 C.3   245  LEU245      0.0001
     91  CD2       27.2360   72.7840   12.6390 C.3   245  LEU245      0.0001
     92  N         29.3360   68.5040   10.2230 N.3   261  TYR261     -0.1241
     93  CA        29.8540   68.9430   11.5110 C.3   261  TYR261      0.1605
     94  C         29.2820   68.1020   12.6280 C.2   261  TYR261      0.2264
     95  O         28.0500   67.8990   12.7300 O.2   261  TYR261     -0.2867
     96  CB        29.4170   70.3720   11.7720 C.3   261  TYR261      0.0534
     97  CG        30.1040   71.3900   10.9010 C.ar  261  TYR261     -0.0201
     98  CD1       29.7490   71.5470    9.5590 C.ar  261  TYR261     -0.0009
     99  CD2       31.0670   72.2190   11.4350 C.ar  261  TYR261     -0.0009
    100  CE1       30.3610   72.5060    8.7580 C.ar  261  TYR261      0.0417
    101  CE2       31.7110   73.1700   10.6500 C.ar  261  TYR261      0.0417
    102  CZ        31.3600   73.3100    9.3060 C.ar  261  TYR261      0.1957
    103  OH        32.0150   74.2590    8.5170 O.3   261  TYR261     -0.2866
    104  N         33.9940   70.9490   18.4410 N.3   328  MET328     -0.1245
    105  CA        33.3470   70.6620   17.1970 C.3   328  MET328      0.1570
    106  C         34.3590   70.1390   16.1990 C.2   328  MET328      0.2261
    107  O         35.5190   70.4100   16.3190 O.2   328  MET328     -0.2867
    108  CB        32.6950   71.9270   16.6730 C.3   328  MET328      0.0387
    109  CG        31.3290   72.0740   17.3060 C.3   328  MET328      0.0595
    110  SD        30.1160   72.4220   16.0410 S.3   328  MET328     -0.1393
    111  CE        30.1380   74.1730   16.3480 C.3   328  MET328      0.0692
    112  N         35.9770   82.8440   19.8820 N.3   397  ALA397     -0.1231
    113  CA        34.9320   81.8350   19.9490 C.3   397  ALA397      0.1694
    114  C         35.4940   80.4280   19.6490 C.2   397  ALA397      0.2592
    115  O         35.1820   79.4610   20.3530 O.2   397  ALA397     -0.2718
    116  CB        33.6890   82.2060   18.9940 C.3   397  ALA397      0.0304
    117  N         36.3020   80.3150   18.5950 N.am  398  TYR398     -0.1976
    118  CA        36.7870   79.0100   18.1340 C.3   398  TYR398      0.1639
    119  C         38.1050   79.2310   17.4470 C.2   398  TYR398      0.2290
    120  O         38.3120   80.2780   16.8400 O.2   398  TYR398     -0.2864
    121  CB        35.8840   78.4480   17.0330 C.3   398  TYR398      0.0560
    122  CG        34.5510   78.0080   17.4950 C.ar  398  TYR398     -0.0198
    123  CD1       33.4570   78.8960   17.5400 C.ar  398  TYR398     -0.0009
    124  CD2       34.3590   76.6810   17.8900 C.ar  398  TYR398     -0.0009
    125  CE1       32.2050   78.4510   18.0080 C.ar  398  TYR398      0.0417
    126  CE2       33.1270   76.2320   18.3210 C.ar  398  TYR398      0.0417
    127  CZ        32.0550   77.1130   18.3900 C.ar  398  TYR398      0.1957
    128  OH        30.8520   76.6070   18.8420 O.3   398  TYR398     -0.2866
    129  N         37.8720   82.5730   15.0960 N.3   413  TYR413     -0.1241
    130  CA        36.5360   83.0730   14.8850 C.3   413  TYR413      0.1605
    131  C         36.3570   84.0240   16.0380 C.2   413  TYR413      0.2264
    132  O         36.4890   83.6360   17.1910 O.2   413  TYR413     -0.2867
    133  CB        35.5200   81.9350   14.9480 C.3   413  TYR413      0.0534
    134  CG        35.6940   81.0000   13.7770 C.ar  413  TYR413     -0.0201
    135  CD1       34.8290   81.0480   12.6620 C.ar  413  TYR413     -0.0009
    136  CD2       36.7730   80.1000   13.7510 C.ar  413  TYR413     -0.0009
    137  CE1       35.0370   80.1830   11.5620 C.ar  413  TYR413      0.0417
    138  CE2       36.9920   79.2660   12.6610 C.ar  413  TYR413      0.0417
    139  CZ        36.1310   79.3060   11.5860 C.ar  413  TYR413      0.1957
    140  OH        36.3840   78.4270   10.5500 O.3   413  TYR413     -0.2866
@<TRIPOS>BOND
     1    43    42    2
     2    49    50    1
     3    42    41    1
     4    50    51    1
     5    50    53    1
     6    60    59    1
     7    58    59   ar
     8    58    56   ar
     9    51    52    2
    10    59    57   ar
    11    40    41    1
    12    56    54   ar
    13    41    44    1
    14    57    55   ar
    15    54    55   ar
    16    54    53    1
    17    34    33    1
    18    34    35    1
    19    34    37    1
    20   103   102    1
    21    44    45    1
    22   100   102   ar
    23   100    98   ar
    24    35    36    2
    25    38    37    1
    26    39    37    1
    27   102   101   ar
    28    61    62    1
    29    98    97   ar
    30    86    87    2
    31    86    85    1
    32    45    46    1
    33    92    93    1
    34    90    89    1
    35   140   139    1
    36   101    99   ar
    37    27    26    2
    38    85    88    1
    39    85    84    1
    40    63    62    1
    41    63    64    2
    42    62    65    1
    43    97    99   ar
    44    97    96    1
    45    88    89    1
    46    46    47    1
    47    89    91    1
    48    47    48    1
    49    68    70   ar
    50    68    66   ar
    51    93    96    1
    52    93    94    1
    53   137   139   ar
    54   137   135   ar
    55   139   138   ar
    56    70    71   ar
    57    26    25    1
    58    65    66    1
    59    84    75   am
    60    66    67   ar
    61    24    25    1
    62    16    14    1
    63    94    95    2
    64   138   136   ar
    65   135   134   ar
    66    15    14    1
    67    71    72    1
    68    71    69   ar
    69    25    28    1
    70    76    75    2
    71    75    74    1
    72    14    13    1
    73    67    69   ar
    74    28    29    1
    75   136   134   ar
    76   134   133    1
    77    31    30   ar
    78    73    74    1
    79    13    10    1
    80    74    77    1
    81    29    30    1
    82     7     5    1
    83    30    32   ar
    84   130   133    1
    85   130   129    1
    86   130   131    1
    87    10     9    1
    88    10    11    1
    89    77    78    1
    90     9     3   am
    91    78    79    1
    92     5     2    1
    93     5     6    1
    94     1     2    1
    95   131   132    2
    96   110   111    1
    97   110   109    1
    98    11    12    2
    99    11    17   am
   100   106   107    2
   101   106   105    1
   102     3     2    1
   103     3     4    2
   104    79    80    1
   105     6     8    1
   106   108   105    1
   107   108   109    1
   108    23    21    1
   109   120   119    2
   110    80    81    2
   111   121   122    1
   112   121   118    1
   113    17    18    1
   114   105   104    1
   115   119   118    1
   116   122   123   ar
   117   122   124   ar
   118   123   125   ar
   119    81    83    1
   120    81    82    1
   121   124   126   ar
   122   125   127   ar
   123   118   117    1
   124    21    18    1
   125    21    22    1
   126    18    19    1
   127   126   127   ar
   128   127   128    1
   129   117   114   am
   130   116   113    1
   131    20    19    2
   132   114   113    1
   133   114   115    2
   134   112   113    1
