@<TRIPOS>MOLECULE
tmp/3i4xA00.pdb
 184 173 0 0 0
SMALL
GASTEIGER

@<TRIPOS>ATOM
      1  N         29.7630   87.4690   12.2250 N.3    89  GLU89      -0.1245
      2  CA        31.0650   87.1200   12.8050 C.3    89  GLU89       0.1567
      3  C         32.1660   87.0200   11.7510 C.2    89  GLU89       0.2260
      4  O         32.0110   86.3350   10.7280 O.2    89  GLU89      -0.2867
      5  CB        30.9740   85.7870   13.5570 C.3    89  GLU89       0.0388
      6  CG        32.2880   85.3570   14.2300 C.3    89  GLU89       0.1160
      7  CD        32.2560   83.8810   14.6720 C.2    89  GLU89       0.3649
      8  OE1       32.1780   82.9660   13.7920 O.co2  89  GLU89      -0.2457
      9  OE2       32.3000   83.6520   15.9020 O.co2  89  GLU89      -0.2457
     10  N         37.3430   86.1630    6.4020 N.3   100  ARG100     -0.1245
     11  CA        36.0450   85.6020    6.0260 C.3   100  ARG100      0.1563
     12  C         35.0100   86.1290    7.0090 C.2   100  ARG100      0.2260
     13  O         35.3400   86.6500    8.0680 O.2   100  ARG100     -0.2867
     14  CB        36.1060   84.0570    6.0390 C.3   100  ARG100      0.0307
     15  CG        37.3810   83.4840    5.3250 C.3   100  ARG100      0.0489
     16  CD        38.5530   83.1210    6.3430 C.3   100  ARG100      0.2205
     17  NE        37.9670   82.3350    7.4170 N.pl3 100  ARG100     -0.0865
     18  CZ        37.6400   81.0550    7.3110 C.cat 100  ARG100      0.5346
     19  NH1       37.0340   80.4620    8.3220 N.pl3 100  ARG100      0.1354
     20  NH2       37.9230   80.3740    6.1980 N.pl3 100  ARG100      0.1354
     21  N         30.7690   85.3220    8.4110 N.3   102  THR102     -0.1218
     22  CA        29.5630   84.5730    8.3380 C.3   102  THR102      0.1862
     23  C         28.4380   85.4520    8.8440 C.2   102  THR102      0.2287
     24  O         28.6290   86.2340    9.7920 O.2   102  THR102     -0.2866
     25  CB        29.6360   83.3720    9.2700 C.3   102  THR102      0.1770
     26  OG1       30.8130   82.6310    8.9730 O.3   102  THR102     -0.2211
     27  CG2       28.4180   82.4650    9.0400 C.3   102  THR102      0.0375
     28  N         34.3140   83.9780    1.8000 N.3   178  ASP178     -0.1239
     29  CA        35.7910   83.9600    1.9100 C.3   178  ASP178      0.1674
     30  C         36.2870   85.0400    0.9610 C.2   178  ASP178      0.2266
     31  O         35.9980   85.0180   -0.2280 O.2   178  ASP178     -0.2867
     32  CB        36.3530   82.6100    1.4370 C.3   178  ASP178      0.1410
     33  CG        36.0240   81.4500    2.3820 C.2   178  ASP178      0.3668
     34  OD1       35.3830   81.6500    3.4320 O.co2 178  ASP178     -0.2456
     35  OD2       36.4310   80.3140    2.0810 O.co2 178  ASP178     -0.2456
     36  N         29.6720   80.2900    0.9750 N.3   187  LYS187     -0.1245
     37  CA        29.4690   79.0290    1.6790 C.3   187  LYS187      0.1561
     38  C         28.1260   79.1470    2.3890 C.2   187  LYS187      0.2260
     39  O         27.6740   80.2650    2.7120 O.2   187  LYS187     -0.2867
     40  CB        30.5630   78.7770    2.7320 C.3   187  LYS187      0.0271
     41  CG        32.0020   78.8090    2.1830 C.3   187  LYS187      0.0035
     42  CD        33.1000   78.6810    3.2870 C.3   187  LYS187      0.0206
     43  CE        33.0750   79.8520    4.3000 C.3   187  LYS187      0.1093
     44  NZ        34.3130   79.9300    5.2060 N.3   187  LYS187     -0.1314
     45  N         25.6610   77.3480    5.6990 N.3   189  TYR189     -0.1241
     46  CA        25.5640   76.4260    6.8330 C.3   189  TYR189      0.1605
     47  C         24.1170   76.1660    7.1050 C.2   189  TYR189      0.2264
     48  O         23.3550   77.1070    7.1870 O.2   189  TYR189     -0.2867
     49  CB        26.1960   77.0220    8.1020 C.3   189  TYR189      0.0534
     50  CG        27.6130   77.4650    7.8380 C.ar  189  TYR189     -0.0201
     51  CD1       28.6700   76.5870    7.9840 C.ar  189  TYR189     -0.0009
     52  CD2       27.8710   78.7440    7.3540 C.ar  189  TYR189     -0.0009
     53  CE1       29.9690   76.9710    7.6840 C.ar  189  TYR189      0.0417
     54  CE2       29.1770   79.1530    7.0580 C.ar  189  TYR189      0.0417
     55  CZ        30.2000   78.2850    7.2280 C.ar  189  TYR189      0.1957
     56  OH        31.4750   78.7420    6.9580 O.3   189  TYR189     -0.2866
     57  N         21.2190   74.0770    9.5040 N.3   191  TYR191     -0.1241
     58  CA        21.0000   73.5400   10.8320 C.3   191  TYR191      0.1605
     59  C         19.6820   72.7480   10.8220 C.2   191  TYR191      0.2264
     60  O         18.6080   73.3350   10.9380 O.2   191  TYR191     -0.2867
     61  CB        20.9670   74.7010   11.8570 C.3   191  TYR191      0.0534
     62  CG        22.3670   75.2210   12.1970 C.ar  191  TYR191     -0.0201
     63  CD1       22.9810   74.8700   13.4020 C.ar  191  TYR191     -0.0009
     64  CD2       23.0880   76.0530   11.2980 C.ar  191  TYR191     -0.0009
     65  CE1       24.2710   75.3040   13.6970 C.ar  191  TYR191      0.0417
     66  CE2       24.3760   76.4920   11.6000 C.ar  191  TYR191      0.0417
     67  CZ        24.9470   76.1190   12.8010 C.ar  191  TYR191      0.1957
     68  OH        26.1910   76.5620   13.1440 O.3   191  TYR191     -0.2866
     69  N         25.2490   70.2460   11.9890 N.3   245  LEU245     -0.1245
     70  CA        24.9970   71.0880   10.8210 C.3   245  LEU245      0.1561
     71  C         25.8070   70.5630    9.6550 C.2   245  LEU245      0.2260
     72  O         26.6710   69.6790    9.7990 O.2   245  LEU245     -0.2867
     73  CB        25.2970   72.5960   11.0620 C.3   245  LEU245      0.0270
     74  CG        26.8170   72.8490   11.1760 C.3   245  LEU245      0.0019
     75  CD1       27.2500   74.1750   10.5340 C.3   245  LEU245      0.0001
     76  CD2       27.2360   72.7840   12.6390 C.3   245  LEU245      0.0001
     77  N         32.8100   71.5700   -1.7140 N.3   257  ARG257     -0.1245
     78  CA        32.9540   70.6960   -0.5630 C.3   257  ARG257      0.1563
     79  C         31.6090   70.5500    0.1370 C.2   257  ARG257      0.2260
     80  O         30.8480   71.5000    0.2140 O.2   257  ARG257     -0.2867
     81  CB        33.9100   71.3320    0.4520 C.3   257  ARG257      0.0307
     82  CG        35.3350   71.5550   -0.0430 C.3   257  ARG257      0.0489
     83  CD        36.1450   72.4360    0.9320 C.3   257  ARG257      0.2205
     84  NE        35.5080   73.7350    1.1300 N.pl3 257  ARG257     -0.0865
     85  CZ        35.8040   74.6060    2.1000 C.cat 257  ARG257      0.5346
     86  NH1       36.7820   74.3420    2.9780 N.pl3 257  ARG257      0.1354
     87  NH2       35.0970   75.7540    2.2020 N.pl3 257  ARG257      0.1354
     88  N         30.5180   69.6440    4.0070 N.3   259  LYS259     -0.1245
     89  CA        31.1870   69.4820    5.2860 C.3   259  LYS259      0.1561
     90  C         30.1120   69.1090    6.2840 C.2   259  LYS259      0.2260
     91  O         29.0980   69.7740    6.3700 O.2   259  LYS259     -0.2867
     92  CB        31.9490   70.7660    5.6900 C.3   259  LYS259      0.0271
     93  CG        33.0950   71.1020    4.7390 C.3   259  LYS259      0.0035
     94  CD        33.3310   72.6000    4.4890 C.3   259  LYS259      0.0206
     95  CE        32.9830   73.5410    5.6570 C.3   259  LYS259      0.1093
     96  NZ        33.5190   74.9370    5.4250 N.3   259  LYS259     -0.1314
     97  N         29.3360   68.5040   10.2230 N.3   261  TYR261     -0.1241
     98  CA        29.8540   68.9430   11.5110 C.3   261  TYR261      0.1605
     99  C         29.2820   68.1020   12.6280 C.2   261  TYR261      0.2264
    100  O         28.0500   67.8990   12.7300 O.2   261  TYR261     -0.2867
    101  CB        29.4170   70.3720   11.7720 C.3   261  TYR261      0.0534
    102  CG        30.1040   71.3900   10.9010 C.ar  261  TYR261     -0.0201
    103  CD1       29.7490   71.5470    9.5590 C.ar  261  TYR261     -0.0009
    104  CD2       31.0670   72.2190   11.4350 C.ar  261  TYR261     -0.0009
    105  CE1       30.3610   72.5060    8.7580 C.ar  261  TYR261      0.0417
    106  CE2       31.7110   73.1700   10.6500 C.ar  261  TYR261      0.0417
    107  CZ        31.3600   73.3100    9.3060 C.ar  261  TYR261      0.1957
    108  OH        32.0150   74.2590    8.5170 O.3   261  TYR261     -0.2866
    109  N         33.9940   70.9490   18.4410 N.3   328  MET328     -0.1245
    110  CA        33.3470   70.6620   17.1970 C.3   328  MET328      0.1570
    111  C         34.3590   70.1390   16.1990 C.2   328  MET328      0.2261
    112  O         35.5190   70.4100   16.3190 O.2   328  MET328     -0.2867
    113  CB        32.6950   71.9270   16.6730 C.3   328  MET328      0.0387
    114  CG        31.3290   72.0740   17.3060 C.3   328  MET328      0.0595
    115  SD        30.1160   72.4220   16.0410 S.3   328  MET328     -0.1393
    116  CE        30.1380   74.1730   16.3480 C.3   328  MET328      0.0692
    117  N         38.4490   68.7490   10.0450 N.3   343  GLN343     -0.1245
    118  CA        38.8940   70.0280   10.5290 C.3   343  GLN343      0.1566
    119  C         38.3170   70.0660   11.9310 C.2   343  GLN343      0.2260
    120  O         37.1250   69.8290   12.1130 O.2   343  GLN343     -0.2867
    121  CB        38.3380   71.1870    9.6800 C.3   343  GLN343      0.0367
    122  CG        38.6590   72.6000   10.2620 C.3   343  GLN343      0.0905
    123  CD        38.7400   73.7170    9.1870 C.2   343  GLN343      0.2608
    124  OE1       37.8110   74.4860    9.0460 O.2   343  GLN343     -0.2717
    125  NE2       39.8320   73.7660    8.4130 N.am  343  GLN343     -0.0878
    126  N         37.7640   71.9670   15.7940 N.3   345  TYR345     -0.1241
    127  CA        37.5750   73.2760   16.4290 C.3   345  TYR345      0.1605
    128  C         37.8980   73.2400   17.9180 C.2   345  TYR345      0.2264
    129  O         37.2600   72.5040   18.6830 O.2   345  TYR345     -0.2867
    130  CB        36.1470   73.7930   16.1840 C.3   345  TYR345      0.0534
    131  CG        35.8810   73.8820   14.7090 C.ar  345  TYR345     -0.0201
    132  CD1       36.0740   75.0660   14.0150 C.ar  345  TYR345     -0.0009
    133  CD2       35.5020   72.7450   13.9890 C.ar  345  TYR345     -0.0009
    134  CE1       35.8270   75.1350   12.6230 C.ar  345  TYR345      0.0417
    135  CE2       35.3160   72.7880   12.6370 C.ar  345  TYR345      0.0417
    136  CZ        35.4760   73.9790   11.9550 C.ar  345  TYR345      0.1957
    137  OH        35.3050   73.9640   10.5970 O.3   345  TYR345     -0.2866
    138  N         36.3020   80.3150   18.5950 N.3   398  TYR398     -0.1241
    139  CA        36.7870   79.0100   18.1340 C.3   398  TYR398      0.1605
    140  C         38.1050   79.2310   17.4470 C.2   398  TYR398      0.2264
    141  O         38.3120   80.2780   16.8400 O.2   398  TYR398     -0.2867
    142  CB        35.8840   78.4480   17.0330 C.3   398  TYR398      0.0534
    143  CG        34.5510   78.0080   17.4950 C.ar  398  TYR398     -0.0201
    144  CD1       33.4570   78.8960   17.5400 C.ar  398  TYR398     -0.0009
    145  CD2       34.3590   76.6810   17.8900 C.ar  398  TYR398     -0.0009
    146  CE1       32.2050   78.4510   18.0080 C.ar  398  TYR398      0.0417
    147  CE2       33.1270   76.2320   18.3210 C.ar  398  TYR398      0.0417
    148  CZ        32.0550   77.1130   18.3900 C.ar  398  TYR398      0.1957
    149  OH        30.8520   76.6070   18.8420 O.3   398  TYR398     -0.2866
    150  N         46.1190   70.5590    5.2560 N.3   404  ARG404     -0.1245
    151  CA        45.6560   70.4140    3.8910 C.3   404  ARG404      0.1563
    152  C         46.8990   70.5730    3.0710 C.2   404  ARG404      0.2260
    153  O         47.6080   71.5680    3.2310 O.2   404  ARG404     -0.2867
    154  CB        44.6650   71.5520    3.5480 C.3   404  ARG404      0.0307
    155  CG        43.6270   71.9270    4.6660 C.3   404  ARG404      0.0489
    156  CD        42.7110   73.0700    4.1760 C.3   404  ARG404      0.2205
    157  NE        41.5240   73.2710    5.0260 N.pl3 404  ARG404     -0.0865
    158  CZ        40.5410   74.1290    4.7500 C.cat 404  ARG404      0.5346
    159  NH1       39.4840   74.2540    5.5780 N.pl3 404  ARG404      0.1354
    160  NH2       40.6010   74.8560    3.6300 N.pl3 404  ARG404      0.1354
    161  N         46.5460   74.7130    8.7160 N.3   409  TYR409     -0.1241
    162  CA        45.5570   75.6520    8.3330 C.3   409  TYR409      0.1605
    163  C         44.8130   76.0180    9.6160 C.2   409  TYR409      0.2264
    164  O         44.2680   75.1550   10.3200 O.2   409  TYR409     -0.2867
    165  CB        44.6900   75.0290    7.2470 C.3   409  TYR409      0.0534
    166  CG        43.4610   75.8210    6.8580 C.ar  409  TYR409     -0.0201
    167  CD1       43.3940   76.4970    5.6210 C.ar  409  TYR409     -0.0009
    168  CD2       42.3660   75.8940    7.7160 C.ar  409  TYR409     -0.0009
    169  CE1       42.2190   77.2360    5.2520 C.ar  409  TYR409      0.0417
    170  CE2       41.1820   76.6020    7.3650 C.ar  409  TYR409      0.0417
    171  CZ        41.1310   77.2690    6.1430 C.ar  409  TYR409      0.1957
    172  OH        39.9860   77.9580    5.8410 O.3   409  TYR409     -0.2866
    173  N         37.8720   82.5730   15.0960 N.3   413  TYR413     -0.1241
    174  CA        36.5360   83.0730   14.8850 C.3   413  TYR413      0.1605
    175  C         36.3570   84.0240   16.0380 C.2   413  TYR413      0.2264
    176  O         36.4890   83.6360   17.1910 O.2   413  TYR413     -0.2867
    177  CB        35.5200   81.9350   14.9480 C.3   413  TYR413      0.0534
    178  CG        35.6940   81.0000   13.7770 C.ar  413  TYR413     -0.0201
    179  CD1       34.8290   81.0480   12.6620 C.ar  413  TYR413     -0.0009
    180  CD2       36.7730   80.1000   13.7510 C.ar  413  TYR413     -0.0009
    181  CE1       35.0370   80.1830   11.5620 C.ar  413  TYR413      0.0417
    182  CE2       36.9920   79.2660   12.6610 C.ar  413  TYR413      0.0417
    183  CZ        36.1310   79.3060   11.5860 C.ar  413  TYR413      0.1957
    184  OH        36.3840   78.4270   10.5500 O.3   413  TYR413     -0.2866
@<TRIPOS>BOND
     1    77    78    1
     2    78    79    1
     3    78    81    1
     4    31    30    2
     5    82    81    1
     6    82    83    1
     7    79    80    2
     8    83    84    1
     9    30    29    1
    10    36    37    1
    11    84    85    2
    12    32    29    1
    13    32    33    1
    14    37    38    1
    15    37    40    1
    16    28    29    1
    17    35    33   ar
    18    85    87    1
    19    85    86    1
    20    41    40    1
    21    41    42    1
    22    33    34   ar
    23    38    39    2
    24   152   153    2
    25   152   151    1
    26    42    43    1
    27   154   151    1
    28   154   155    1
    29   160   158    1
    30   151   150    1
    31    88    89    1
    32   156   155    1
    33   156   157    1
    34    43    44    1
    35    94    93    1
    36    94    95    1
    37    93    92    1
    38   158   157    2
    39   158   159    1
    40   169   167   ar
    41   169   171   ar
    42    89    92    1
    43    89    90    1
    44    15    14    1
    45    15    16    1
    46    96    95    1
    47   167   166   ar
    48    45    46    1
    49   172   171    1
    50    11    14    1
    51    11    10    1
    52    11    12    1
    53   171   170   ar
    54    20    18    1
    55    90    91    2
    56    16    17    1
    57    46    47    1
    58    46    49    1
    59   166   165    1
    60   166   168   ar
    61    56    55    1
    62    12    13    2
    63    54    55   ar
    64    54    52   ar
    65    47    48    2
    66    55    53   ar
    67   165   162    1
    68    18    17    2
    69    18    19    1
    70    52    50   ar
    71   170   168   ar
    72    53    51   ar
    73    50    51   ar
    74    50    49    1
    75   162   161    1
    76   162   163    1
    77    22    21    1
    78    22    23    1
    79    22    25    1
    80   125   123   am
    81   108   107    1
    82   105   107   ar
    83   105   103   ar
    84    23    24    2
    85    26    25    1
    86    27    25    1
    87   124   123    2
    88   123   122    1
    89   107   106   ar
    90    57    58    1
    91   103   102   ar
    92   163   164    2
    93    71    72    2
    94    71    70    1
    95   121   122    1
    96   121   118    1
    97   117   118    1
    98    97    98    1
    99   118   119    1
   100    75    74    1
   101   184   183    1
   102   137   136    1
   103   106   104   ar
   104     4     3    2
   105    70    73    1
   106    70    69    1
   107    59    58    1
   108    59    60    2
   109    58    61    1
   110   102   104   ar
   111   102   101    1
   112    73    74    1
   113    74    76    1
   114    64    66   ar
   115    64    62   ar
   116    98   101    1
   117    98    99    1
   118   181   183   ar
   119   181   179   ar
   120   183   182   ar
   121    66    67   ar
   122     3     2    1
   123    61    62    1
   124   119   120    2
   125   136   134   ar
   126   136   135   ar
   127    62    63   ar
   128     1     2    1
   129   134   132   ar
   130    99   100    2
   131   135   133   ar
   132   182   180   ar
   133   179   178   ar
   134    67    68    1
   135    67    65   ar
   136     2     5    1
   137    63    65   ar
   138     5     6    1
   139   180   178   ar
   140   178   177    1
   141     8     7   ar
   142   133   131   ar
   143   132   131   ar
   144     6     7    1
   145     7     9   ar
   146   131   130    1
   147   174   177    1
   148   174   173    1
   149   174   175    1
   150   126   127    1
   151   175   176    2
   152   115   116    1
   153   115   114    1
   154   130   127    1
   155   111   112    2
   156   111   110    1
   157   127   128    1
   158   113   110    1
   159   113   114    1
   160   141   140    2
   161   142   143    1
   162   142   139    1
   163   110   109    1
   164   140   139    1
   165   143   144   ar
   166   143   145   ar
   167   144   146   ar
   168   145   147   ar
   169   128   129    2
   170   146   148   ar
   171   139   138    1
   172   147   148   ar
   173   148   149    1
