@<TRIPOS>MOLECULE
tmp/3i4yA00.pdb
 122 117 0 0 0
SMALL
GASTEIGER

@<TRIPOS>ATOM
      1  N          1.2390   -4.4070   27.0150 N.3    53  LEU53      -0.1245
      2  CA         0.4600   -3.7300   26.0070 C.3    53  LEU53       0.1561
      3  C         -0.1290   -2.3880   26.4520 C.2    53  LEU53       0.2260
      4  O          0.1040   -1.3700   25.8180 O.2    53  LEU53      -0.2867
      5  CB        -0.6440   -4.6550   25.5340 C.3    53  LEU53       0.0270
      6  CG        -1.6510   -4.1070   24.5060 C.3    53  LEU53       0.0019
      7  CD1       -0.8740   -3.5830   23.3620 C.3    53  LEU53       0.0001
      8  CD2       -2.5850   -5.1950   24.0450 C.3    53  LEU53       0.0001
      9  N          2.6330    0.2480   27.3460 N.3    56  ASP56      -0.1225
     10  CA         3.4510    0.6770   26.2200 C.3    56  ASP56       0.1805
     11  C          2.6270    1.5070   25.2940 C.2    56  ASP56       0.2597
     12  O          3.1350    2.4800   24.7820 O.2    56  ASP56      -0.2718
     13  CB         4.1230   -0.4610   25.4790 C.3    56  ASP56       0.1424
     14  CG         5.1690   -1.1350   26.2930 C.2    56  ASP56       0.3668
     15  OD1        5.4830   -0.6800   27.4270 O.co2  56  ASP56      -0.2456
     16  OD2        5.6440   -2.1580   25.8110 O.co2  56  ASP56      -0.2456
     17  N          1.3290    1.1720   25.1450 N.am   57  VAL57      -0.1980
     18  CA         0.4050    2.0550   24.3610 C.3    57  VAL57       0.1595
     19  C          0.1480    3.4060   25.0400 C.2    57  VAL57       0.2287
     20  O          0.2730    4.4830   24.4060 O.2    57  VAL57      -0.2864
     21  CB        -0.9280    1.3220   23.9800 C.3    57  VAL57       0.0276
     22  CG1       -1.8990    2.2050   23.3560 C.3    57  VAL57       0.0022
     23  CG2       -0.6200    0.2220   23.0480 C.3    57  VAL57       0.0022
     24  N          9.0950    4.6480   21.2880 N.3    78  ILE78      -0.1245
     25  CA         8.8770    3.6230   22.2750 C.3    78  ILE78       0.1561
     26  C          9.3020    2.2380   21.7280 C.2    78  ILE78       0.2260
     27  O          9.2520    1.9740   20.5220 O.2    78  ILE78      -0.2867
     28  CB         7.3680    3.6310   22.7080 C.3    78  ILE78       0.0252
     29  CG1        6.4650    3.1640   21.5780 C.3    78  ILE78       0.0019
     30  CG2        6.9910    5.0740   23.2620 C.3    78  ILE78       0.0019
     31  CD1        4.9880    3.0920   21.9550 C.3    78  ILE78       0.0001
     32  N          7.7310   -0.5560   22.6390 N.3    80  GLY80      -0.1210
     33  CA         6.5270   -1.3500   22.5230 C.3    80  GLY80       0.1940
     34  C          6.7860   -2.7690   23.1030 C.2    80  GLY80       0.2454
     35  O          7.8990   -3.0740   23.5540 O.2    80  GLY80      -0.2732
     36  N          5.7650   -3.6580   23.0730 N.am   81  PRO81      -0.2717
     37  CA         5.8400   -4.9350   23.8180 C.3    81  PRO81       0.1535
     38  C          6.5360   -6.1320   23.1320 C.2    81  PRO81       0.2598
     39  O          6.7860   -7.1650   23.7910 O.2    81  PRO81      -0.2715
     40  CB         4.3460   -5.2880   24.0760 C.3    81  PRO81       0.0310
     41  CG         3.5260   -4.4060   23.1050 C.3    81  PRO81       0.0237
     42  CD         4.5170   -3.5530   22.2860 C.3    81  PRO81       0.0939
     43  N          6.8720   -6.0050   21.8440 N.am   82  TYR82      -0.1974
     44  CA         7.2520   -7.1720   21.0230 C.3    82  TYR82       0.1639
     45  C          8.7330   -7.3360   20.6640 C.2    82  TYR82       0.2290
     46  O          9.1060   -8.1430   19.7750 O.2    82  TYR82      -0.2864
     47  CB         6.3700   -7.2500   19.7850 C.3    82  TYR82       0.0560
     48  CG         4.9050   -7.2380   20.1280 C.ar   82  TYR82      -0.0198
     49  CD1        4.0520   -6.3120   19.5570 C.ar   82  TYR82      -0.0009
     50  CD2        4.3810   -8.1040   21.0890 C.ar   82  TYR82      -0.0009
     51  CE1        2.7040   -6.2690   19.8630 C.ar   82  TYR82       0.0417
     52  CE2        2.9990   -8.0570   21.4360 C.ar   82  TYR82       0.0417
     53  CZ         2.1680   -7.1390   20.7910 C.ar   82  TYR82       0.1957
     54  OH         0.8090   -7.0290   21.0860 O.3    82  TYR82      -0.2866
     55  N          3.5410  -10.5440   14.6890 N.3   138  TYR138     -0.1241
     56  CA         4.9400  -10.6760   15.0580 C.3   138  TYR138      0.1605
     57  C          5.3320  -12.1070   15.3830 C.2   138  TYR138      0.2264
     58  O          4.6180  -12.7940   16.0960 O.2   138  TYR138     -0.2867
     59  CB         5.2350   -9.8310   16.3130 C.3   138  TYR138      0.0534
     60  CG         5.2720   -8.3080   16.0950 C.ar  138  TYR138     -0.0201
     61  CD1        4.1240   -7.5350   16.2310 C.ar  138  TYR138     -0.0009
     62  CD2        6.4810   -7.6510   15.8310 C.ar  138  TYR138     -0.0009
     63  CE1        4.1900   -6.0970   16.0660 C.ar  138  TYR138      0.0417
     64  CE2        6.5480   -6.2450   15.6820 C.ar  138  TYR138      0.0417
     65  CZ         5.3910   -5.4930   15.7970 C.ar  138  TYR138      0.1957
     66  OH         5.4500   -4.1140   15.6530 O.3   138  TYR138     -0.2866
     67  N         -0.8350   -2.1940   12.7320 N.3   172  TYR172     -0.1241
     68  CA        -1.1700   -3.1340   13.8260 C.3   172  TYR172      0.1605
     69  C         -2.4720   -2.7450   14.5210 C.2   172  TYR172      0.2264
     70  O         -2.6730   -1.5850   14.8680 O.2   172  TYR172     -0.2867
     71  CB        -0.0520   -3.1440   14.8800 C.3   172  TYR172      0.0534
     72  CG        -0.2220   -4.2660   15.8780 C.ar  172  TYR172     -0.0201
     73  CD1        0.3550   -5.5120   15.6270 C.ar  172  TYR172     -0.0009
     74  CD2       -1.0040   -4.1000   17.0400 C.ar  172  TYR172     -0.0009
     75  CE1        0.1920   -6.5780   16.5090 C.ar  172  TYR172      0.0417
     76  CE2       -1.1650   -5.1710   17.9530 C.ar  172  TYR172      0.0417
     77  CZ        -0.5440   -6.4030   17.6580 C.ar  172  TYR172      0.1957
     78  OH        -0.6690   -7.5150   18.4940 O.3   172  TYR172     -0.2866
     79  N         -4.7000   -3.4190   17.9970 N.3   174  ILE174     -0.1245
     80  CA        -4.8970   -3.9800   19.3640 C.3   174  ILE174      0.1561
     81  C         -6.1660   -4.8420   19.4050 C.2   174  ILE174      0.2260
     82  O         -7.2700   -4.3210   19.2250 O.2   174  ILE174     -0.2867
     83  CB        -5.0080   -2.9170   20.5080 C.3   174  ILE174      0.0252
     84  CG1       -4.5820   -1.5130   20.0420 C.3   174  ILE174      0.0019
     85  CG2       -3.4970   -3.1330   21.1130 C.3   174  ILE174      0.0019
     86  CD1       -4.0760   -0.6140   21.1430 C.3   174  ILE174      0.0001
     87  N         -2.4480    1.1250   15.2090 N.3   193  ARG193     -0.1245
     88  CA        -1.1430    1.7800   15.0420 C.3   193  ARG193      0.1563
     89  C         -0.8120    1.8140   13.5320 C.2   193  ARG193      0.2260
     90  O         -1.0480    0.8380   12.8230 O.2   193  ARG193     -0.2867
     91  CB        -0.0520    1.0080   15.7780 C.3   193  ARG193      0.0307
     92  CG        -0.1790    1.0740   17.3170 C.3   193  ARG193      0.0489
     93  CD         1.2050    1.0490   17.9420 C.3   193  ARG193      0.2205
     94  NE         1.9130    2.2790   17.6480 N.pl3 193  ARG193     -0.0865
     95  CZ         3.1840    2.3570   17.3380 C.cat 193  ARG193      0.5346
     96  NH1        3.9370    1.2720   17.2790 N.pl3 193  ARG193      0.1354
     97  NH2        3.6870    3.5500   17.0090 N.pl3 193  ARG193      0.1354
     98  N          4.8370    0.1920   10.9200 N.3   196  HIS196     -0.1241
     99  CA         6.1170    0.6900   11.5040 C.3   196  HIS196      0.1621
    100  C          7.1450   -0.3890   11.6010 C.2   196  HIS196      0.2264
    101  O          6.8350   -1.5210   11.9960 O.2   196  HIS196     -0.2867
    102  CB         5.9430    1.3030   12.9350 C.3   196  HIS196      0.0745
    103  CG         5.2560    0.3590   13.9020 C.ar  196  HIS196      0.0817
    104  ND1        3.8870    0.1700   13.9100 N.ar  196  HIS196     -0.2268
    105  CD2        5.7570   -0.5300   14.7920 C.ar  196  HIS196      0.1154
    106  CE1        3.5740   -0.7900   14.7690 C.ar  196  HIS196      0.1986
    107  NE2        4.6920   -1.2160   15.3250 N.ar  196  HIS196     -0.2212
    108  N         10.4890   -1.3930   13.8840 N.3   198  HIS198     -0.1241
    109  CA        11.1090   -1.1660   15.1740 C.3   198  HIS198      0.1621
    110  C         12.5880   -1.4080   14.9900 C.2   198  HIS198      0.2264
    111  O         12.9750   -2.4220   14.3660 O.2   198  HIS198     -0.2867
    112  CB        10.6360   -2.2240   16.1880 C.3   198  HIS198      0.0745
    113  CG         9.2210   -2.0880   16.6360 C.ar  198  HIS198      0.0817
    114  ND1        8.8670   -1.2760   17.6910 N.ar  198  HIS198     -0.2268
    115  CD2        8.0900   -2.7200   16.2420 C.ar  198  HIS198      0.1154
    116  CE1        7.5620   -1.3690   17.8880 C.ar  198  HIS198      0.1986
    117  NE2        7.0770   -2.2740   17.0520 N.ar  198  HIS198     -0.2212
    118  N         -0.8430    4.7800   20.1850 N.3   226  ALA226     -0.1245
    119  CA         0.2910    4.9270   21.1310 C.3   226  ALA226      0.1562
    120  C          1.0010    6.2670   21.2330 C.2   226  ALA226      0.2260
    121  O          1.9390    6.3650   21.9840 O.2   226  ALA226     -0.2867
    122  CB         1.3260    3.8330   20.9400 C.3   226  ALA226      0.0290
@<TRIPOS>BOND
     1    98    99    1
     2    99   100    1
     3    99   102    1
     4   100   101    2
     5    67    68    1
     6    90    89    2
     7   102   103    1
     8    89    88    1
     9    68    69    1
    10    68    71    1
    11   108   109    1
    12   103   104   ar
    13   103   105   ar
    14   104   106   ar
    15   111   110    2
    16    69    70    2
    17    55    56    1
    18   106   107   ar
    19   105   107   ar
    20    71    72    1
    21   110   109    1
    22    88    87    1
    23    88    91    1
    24    56    57    1
    25    56    59    1
    26   109   112    1
    27    57    58    2
    28    73    72   ar
    29    73    75   ar
    30    66    65    1
    31    64    65   ar
    32    64    62   ar
    33    91    92    1
    34    65    63   ar
    35    62    60   ar
    36    72    74   ar
    37    63    61   ar
    38    60    61   ar
    39    60    59    1
    40   112   113    1
    41   115   113   ar
    42   115   117   ar
    43    75    77   ar
    44   113   114   ar
    45    97    95    1
    46    74    76   ar
    47   117   116   ar
    48    96    95    1
    49    92    93    1
    50    95    94    2
    51    94    93    1
    52    77    76   ar
    53    77    78    1
    54   114   116   ar
    55    79    80    1
    56    82    81    2
    57    80    81    1
    58    80    83    1
    59    49    51   ar
    60    49    48   ar
    61    46    45    2
    62    47    48    1
    63    47    44    1
    64    51    53   ar
    65    84    83    1
    66    84    86    1
    67    48    50   ar
    68   118   119    1
    69    83    85    1
    70    27    26    2
    71    45    44    1
    72    53    54    1
    73    53    52   ar
    74   122   119    1
    75    44    43    1
    76    50    52   ar
    77   119   120    1
    78   120   121    2
    79    24    25    1
    80    29    31    1
    81    29    28    1
    82    26    25    1
    83    43    38   am
    84    25    28    1
    85    42    36    1
    86    42    41    1
    87    33    32    1
    88    33    34    1
    89    28    30    1
    90    23    21    1
    91    36    34   am
    92    36    37    1
    93    34    35    2
    94    41    40    1
    95    38    39    2
    96    38    37    1
    97    22    21    1
    98     7     6    1
    99    37    40    1
   100    21    18    1
   101     8     6    1
   102    18    19    1
   103    18    17    1
   104    20    19    2
   105     6     5    1
   106    12    11    2
   107    17    11   am
   108    11    10    1
   109    13    10    1
   110    13    14    1
   111     5     2    1
   112    16    14   ar
   113     4     3    2
   114     2     3    1
   115     2     1    1
   116    10     9    1
   117    14    15   ar
