@<TRIPOS>MOLECULE
tmp/3i51A00.pdb
 131 127 0 0 0
SMALL
GASTEIGER

@<TRIPOS>ATOM
      1  N          0.9320   -4.5050   27.1680 N.3    53  LEU53      -0.1245
      2  CA         0.2290   -3.8280   26.1160 C.3    53  LEU53       0.1561
      3  C         -0.3410   -2.4980   26.5560 C.2    53  LEU53       0.2260
      4  O         -0.0730   -1.4690   25.9550 O.2    53  LEU53      -0.2867
      5  CB        -0.8750   -4.7320   25.5410 C.3    53  LEU53       0.0270
      6  CG        -1.6940   -4.1370   24.3760 C.3    53  LEU53       0.0019
      7  CD1       -0.8860   -3.9370   23.0930 C.3    53  LEU53       0.0001
      8  CD2       -2.8570   -5.0800   24.1060 C.3    53  LEU53       0.0001
      9  N          2.3890    0.1920   27.4200 N.3    56  ASP56      -0.1225
     10  CA         3.1380    0.6190   26.2300 C.3    56  ASP56       0.1805
     11  C          2.2680    1.4380   25.3110 C.2    56  ASP56       0.2597
     12  O          2.7690    2.4080   24.7110 O.2    56  ASP56      -0.2718
     13  CB         3.7780   -0.5530   25.5030 C.3    56  ASP56       0.1424
     14  CG         4.8760   -1.2090   26.3060 C.2    56  ASP56       0.3668
     15  OD1        5.2410   -0.7200   27.4250 O.co2  56  ASP56      -0.2456
     16  OD2        5.3550   -2.2650   25.8040 O.co2  56  ASP56      -0.2456
     17  N          0.9530    1.1180   25.2410 N.am   57  VAL57      -0.1980
     18  CA         0.0240    1.9780   24.4430 C.3    57  VAL57       0.1595
     19  C         -0.1470    3.3460   25.0970 C.2    57  VAL57       0.2287
     20  O         -0.0180    4.3880   24.4320 O.2    57  VAL57      -0.2864
     21  CB        -1.3850    1.3190   24.1690 C.3    57  VAL57       0.0276
     22  CG1       -2.3170    2.2960   23.5060 C.3    57  VAL57       0.0022
     23  CG2       -1.2700    0.0680   23.3360 C.3    57  VAL57       0.0022
     24  N          8.7740    4.5900   21.2470 N.3    78  ILE78      -0.1231
     25  CA         8.5870    3.5740   22.2510 C.3    78  ILE78       0.1692
     26  C          9.1190    2.2240   21.7500 C.2    78  ILE78       0.2592
     27  O          9.1660    1.9730   20.5420 O.2    78  ILE78      -0.2718
     28  CB         7.0500    3.4780   22.6520 C.3    78  ILE78       0.0266
     29  CG1        6.1770    3.0180   21.4830 C.3    78  ILE78       0.0019
     30  CG2        6.5750    4.8150   23.1870 C.3    78  ILE78       0.0020
     31  CD1        4.7000    2.6340   21.9650 C.3    78  ILE78       0.0001
     32  N          9.5240    1.3640   22.6820 N.am   79  GLU79      -0.1966
     33  CA         9.9030    0.0050   22.3520 C.3    79  GLU79       0.1733
     34  C          8.6300   -0.8010   22.0250 C.2    79  GLU79       0.2617
     35  O          8.6200   -1.6010   21.0780 O.2    79  GLU79      -0.2715
     36  CB        10.6660   -0.6280   23.5300 C.3    79  GLU79       0.0429
     37  CG        11.0840   -2.0820   23.2720 C.3    79  GLU79       0.1163
     38  CD        11.8130   -2.6990   24.4500 C.2    79  GLU79       0.3649
     39  OE1       12.7110   -2.0260   25.0050 O.co2  79  GLU79      -0.2457
     40  OE2       11.4810   -3.8420   24.8210 O.co2  79  GLU79      -0.2457
     41  N          7.5750   -0.5690   22.7890 N.am   80  GLY80      -0.1941
     42  CA         6.3730   -1.4050   22.6870 C.3    80  GLY80       0.1998
     43  C          6.6400   -2.8180   23.2160 C.2    80  GLY80       0.2481
     44  O          7.7270   -3.1260   23.6750 O.2    80  GLY80      -0.2729
     45  N          5.6340   -3.7030   23.1680 N.am   81  PRO81      -0.2715
     46  CA         5.7660   -4.9900   23.8860 C.3    81  PRO81       0.1536
     47  C          6.4130   -6.1420   23.1180 C.2    81  PRO81       0.2598
     48  O          6.5720   -7.2370   23.6950 O.2    81  PRO81      -0.2715
     49  CB         4.2960   -5.3670   24.2020 C.3    81  PRO81       0.0310
     50  CG         3.4000   -4.4690   23.2990 C.3    81  PRO81       0.0237
     51  CD         4.3590   -3.5870   22.4540 C.3    81  PRO81       0.0939
     52  N          6.7690   -5.9410   21.8500 N.am   82  TYR82      -0.1974
     53  CA         7.1600   -7.0680   20.9750 C.3    82  TYR82       0.1639
     54  C          8.6250   -7.2480   20.6630 C.2    82  TYR82       0.2290
     55  O          8.9810   -8.0220   19.7840 O.2    82  TYR82      -0.2864
     56  CB         6.3640   -7.0140   19.6830 C.3    82  TYR82       0.0560
     57  CG         4.9000   -7.0130   19.9790 C.ar   82  TYR82      -0.0198
     58  CD1        4.1220   -5.8760   19.7540 C.ar   82  TYR82      -0.0009
     59  CD2        4.2940   -8.1250   20.5520 C.ar   82  TYR82      -0.0009
     60  CE1        2.7690   -5.8690   20.0250 C.ar   82  TYR82       0.0417
     61  CE2        2.9340   -8.1290   20.8470 C.ar   82  TYR82       0.0417
     62  CZ         2.1750   -6.9870   20.5800 C.ar   82  TYR82       0.1957
     63  OH         0.8190   -6.9630   20.8820 O.3    82  TYR82      -0.2866
     64  N          3.3800  -10.5290   14.8040 N.3   138  TYR138     -0.1241
     65  CA         4.7980  -10.6520   15.1390 C.3   138  TYR138      0.1605
     66  C          5.1900  -12.0950   15.4580 C.2   138  TYR138      0.2264
     67  O          4.4290  -12.7750   16.1250 O.2   138  TYR138     -0.2867
     68  CB         5.0680   -9.8630   16.4040 C.3   138  TYR138      0.0534
     69  CG         5.1380   -8.3560   16.1810 C.ar  138  TYR138     -0.0201
     70  CD1        4.0160   -7.5590   16.3070 C.ar  138  TYR138     -0.0009
     71  CD2        6.3600   -7.7510   15.9040 C.ar  138  TYR138     -0.0009
     72  CE1        4.1160   -6.1380   16.1370 C.ar  138  TYR138      0.0417
     73  CE2        6.4600   -6.3340   15.7140 C.ar  138  TYR138      0.0417
     74  CZ         5.3410   -5.5620   15.8360 C.ar  138  TYR138      0.1957
     75  OH         5.3910   -4.2100   15.6850 O.3   138  TYR138     -0.2866
     76  N         -0.9750   -2.1560   12.7350 N.3   172  TYR172     -0.1241
     77  CA        -1.2470   -3.1050   13.8320 C.3   172  TYR172      0.1605
     78  C         -2.5810   -2.7690   14.5190 C.2   172  TYR172      0.2264
     79  O         -2.8480   -1.6180   14.7940 O.2   172  TYR172     -0.2867
     80  CB        -0.0810   -3.1020   14.8300 C.3   172  TYR172      0.0534
     81  CG        -0.3760   -3.8600   16.0990 C.ar  172  TYR172     -0.0201
     82  CD1        0.0430   -5.1690   16.2690 C.ar  172  TYR172     -0.0009
     83  CD2       -1.1170   -3.2590   17.1200 C.ar  172  TYR172     -0.0009
     84  CE1       -0.2690   -5.8680   17.4670 C.ar  172  TYR172      0.0417
     85  CE2       -1.4130   -3.9280   18.2940 C.ar  172  TYR172      0.0417
     86  CZ        -1.0000   -5.2140   18.4590 C.ar  172  TYR172      0.1957
     87  OH        -1.3090   -5.8100   19.6750 O.3   172  TYR172     -0.2866
     88  N         -4.9160   -3.3840   17.9830 N.3   174  ILE174     -0.1245
     89  CA        -5.0660   -3.9740   19.3310 C.3   174  ILE174      0.1561
     90  C         -6.3070   -4.8790   19.4300 C.2   174  ILE174      0.2260
     91  O         -7.4310   -4.4330   19.1820 O.2   174  ILE174     -0.2867
     92  CB        -4.9250   -2.9960   20.5220 C.3   174  ILE174      0.0252
     93  CG1       -5.1450   -1.5430   20.1670 C.3   174  ILE174      0.0019
     94  CG2       -3.4850   -2.9400   20.9600 C.3   174  ILE174      0.0019
     95  CD1       -4.3010   -0.5870   21.0770 C.3   174  ILE174      0.0001
     96  N         -2.4850    1.0620   15.2480 N.3   193  ARG193     -0.1245
     97  CA        -1.2310    1.8170   15.1500 C.3   193  ARG193      0.1563
     98  C         -0.8520    1.8580   13.6480 C.2   193  ARG193      0.2260
     99  O         -1.0550    0.8940   12.9550 O.2   193  ARG193     -0.2867
    100  CB        -0.1310    1.0710   15.8920 C.3   193  ARG193      0.0307
    101  CG        -0.2480    1.0030   17.4380 C.3   193  ARG193      0.0489
    102  CD         1.1800    0.9810   18.0070 C.3   193  ARG193      0.2205
    103  NE         1.8500    2.2290   17.6560 N.pl3 193  ARG193     -0.0865
    104  CZ         3.1390    2.3320   17.3750 C.cat 193  ARG193      0.5346
    105  NH1        3.9000    1.2660   17.4150 N.pl3 193  ARG193      0.1354
    106  NH2        3.6570    3.5150   17.0110 N.pl3 193  ARG193      0.1354
    107  N          4.7550    0.1740   10.9490 N.3   196  HIS196     -0.1241
    108  CA         6.0320    0.6900   11.5140 C.3   196  HIS196      0.1621
    109  C          7.1090   -0.3580   11.6020 C.2   196  HIS196      0.2264
    110  O          6.8030   -1.5520   11.8530 O.2   196  HIS196     -0.2867
    111  CB         5.8420    1.3100   12.9320 C.3   196  HIS196      0.0745
    112  CG         5.2180    0.3680   13.9180 C.ar  196  HIS196      0.0817
    113  ND1        3.8560    0.1350   13.9580 N.ar  196  HIS196     -0.2268
    114  CD2        5.7720   -0.4930   14.8170 C.ar  196  HIS196      0.1154
    115  CE1        3.6050   -0.8410   14.8250 C.ar  196  HIS196      0.1986
    116  NE2        4.7380   -1.1810   15.4090 N.ar  196  HIS196     -0.2212
    117  N         10.4270   -1.3380   13.7970 N.3   198  HIS198     -0.1241
    118  CA        11.1400   -1.0960   15.0230 C.3   198  HIS198      0.1621
    119  C         12.6180   -1.2980   14.8290 C.2   198  HIS198      0.2264
    120  O         13.0380   -2.3090   14.2490 O.2   198  HIS198     -0.2867
    121  CB        10.7520   -2.1170   16.0670 C.3   198  HIS198      0.0745
    122  CG         9.3280   -2.0340   16.5240 C.ar  198  HIS198      0.0817
    123  ND1        8.9650   -1.2930   17.6290 N.ar  198  HIS198     -0.2268
    124  CD2        8.2130   -2.6960   16.1270 C.ar  198  HIS198      0.1154
    125  CE1        7.6630   -1.4250   17.8220 C.ar  198  HIS198      0.1986
    126  NE2        7.2020   -2.3150   16.9620 N.ar  198  HIS198     -0.2212
    127  N         -1.0750    4.7560   20.2640 N.3   226  ALA226     -0.1245
    128  CA         0.0090    4.7540   21.2610 C.3   226  ALA226      0.1562
    129  C          0.7390    6.1020   21.3300 C.2   226  ALA226      0.2260
    130  O          1.6790    6.2370   22.0570 O.2   226  ALA226     -0.2867
    131  CB         1.0110    3.6440   20.9490 C.3   226  ALA226      0.0290
@<TRIPOS>BOND
     1   107   108    1
     2   108   109    1
     3   108   111    1
     4   109   110    2
     5    76    77    1
     6   111   112    1
     7    99    98    2
     8    98    97    1
     9   117   118    1
    10    77    78    1
    11    77    80    1
    12   112   113   ar
    13   112   114   ar
    14   113   115   ar
    15   120   119    2
    16    78    79    2
    17    64    65    1
    18   114   116   ar
    19   115   116   ar
    20   119   118    1
    21    80    81    1
    22   118   121    1
    23    65    66    1
    24    65    68    1
    25    97    96    1
    26    97   100    1
    27    66    67    2
    28    75    74    1
    29    73    74   ar
    30    73    71   ar
    31    74    72   ar
    32   100   101    1
    33    71    69   ar
    34   121   122    1
    35    81    82   ar
    36    81    83   ar
    37   124   122   ar
    38   124   126   ar
    39    72    70   ar
    40    69    70   ar
    41    69    68    1
    42    82    84   ar
    43   122   123   ar
    44   126   125   ar
    45   106   104    1
    46    83    85   ar
    47   104   105    1
    48   104   103    2
    49   101   102    1
    50    84    86   ar
    51   123   125   ar
    52   103   102    1
    53    88    89    1
    54    85    86   ar
    55    86    87    1
    56    91    90    2
    57    89    90    1
    58    89    92    1
    59    56    57    1
    60    56    53    1
    61    58    57   ar
    62    58    60   ar
    63    55    54    2
    64    57    59   ar
    65    60    62   ar
    66    93    92    1
    67    93    95    1
    68   127   128    1
    69    92    94    1
    70    27    26    2
    71    59    61   ar
    72    62    61   ar
    73    62    63    1
    74    54    53    1
    75   131   128    1
    76    53    52    1
    77    35    34    2
    78    24    25    1
    79   128   129    1
    80   129   130    2
    81    29    31    1
    82    29    28    1
    83    26    25    1
    84    26    32   am
    85    52    47   am
    86    34    33    1
    87    34    41   am
    88    25    28    1
    89    33    32    1
    90    33    36    1
    91    51    45    1
    92    51    50    1
    93    28    30    1
    94    42    41    1
    95    42    43    1
    96     7     6    1
    97    47    48    2
    98    47    46    1
    99    45    43   am
   100    45    46    1
   101    43    44    2
   102    37    36    1
   103    37    38    1
   104    50    49    1
   105    23    21    1
   106    22    21    1
   107    46    49    1
   108     8     6    1
   109    21    18    1
   110     6     5    1
   111    20    19    2
   112    18    19    1
   113    18    17    1
   114    38    40   ar
   115    38    39   ar
   116    12    11    2
   117    17    11   am
   118    11    10    1
   119    13    10    1
   120    13    14    1
   121     5     2    1
   122    16    14   ar
   123     4     3    2
   124     2     3    1
   125     2     1    1
   126    10     9    1
   127    14    15   ar
