@<TRIPOS>MOLECULE
tmp/3i52A01.pdb
 174 170 0 0 0
SMALL
GASTEIGER

@<TRIPOS>ATOM
      1  N          3.0830   10.0990   17.0950 N.3    71  GLY71      -0.1210
      2  CA         1.8920    9.4700   16.5490 C.3    71  GLY71       0.1956
      3  C          1.5160    9.9360   15.1580 C.2    71  GLY71       0.2612
      4  O          2.0790   10.8950   14.6130 O.2    71  GLY71      -0.2717
      5  N          0.5100    9.2720   14.6120 N.am   72  GLY72      -0.1942
      6  CA         0.1170    9.4630   13.2210 C.3    72  GLY72       0.2014
      7  C         -0.3110   10.8610   12.8490 C.2    72  GLY72       0.2638
      8  O         -0.3190   11.2090   11.6740 O.2    72  GLY72      -0.2714
      9  N         -0.6700   11.6480   13.8530 N.am   73  GLU73      -0.1977
     10  CA        -1.0860   13.0340   13.6720 C.3    73  GLU73       0.1602
     11  C          0.0860   14.0080   13.8320 C.2    73  GLU73       0.2287
     12  O         -0.0810   15.2130   13.6640 O.2    73  GLU73      -0.2864
     13  CB        -2.2270   13.3990   14.6580 C.3    73  GLU73       0.0415
     14  CG        -1.8910   13.2620   16.1920 C.3    73  GLU73       0.1163
     15  CD        -1.6200   11.7980   16.6590 C.2    73  GLU73       0.3649
     16  OE1       -2.2630   10.8560   16.1430 O.co2  73  GLU73      -0.2457
     17  OE2       -0.7620   11.5870   17.5430 O.co2  73  GLU73      -0.2457
     18  N          8.1750    5.0040   12.3320 N.3    98  GLU98      -0.1231
     19  CA         7.7680    4.0650   11.3330 C.3    98  GLU98       0.1699
     20  C          6.9170    2.9730   12.0330 C.2    98  GLU98       0.2592
     21  O          5.7040    3.1100   12.1310 O.2    98  GLU98      -0.2718
     22  CB         9.0170    3.4570   10.6650 C.3    98  GLU98       0.0402
     23  CG         9.7770    4.3920    9.7080 C.3    98  GLU98       0.1161
     24  CD         9.2100    4.3740    8.3150 C.2    98  GLU98       0.3649
     25  OE1        8.5790    3.3630    7.9480 O.co2  98  GLU98      -0.2457
     26  OE2        9.3670    5.3750    7.5940 O.co2  98  GLU98      -0.2457
     27  N          7.5620    1.9110   12.5010 N.am   99  PHE99      -0.1962
     28  CA         7.0010    0.9420   13.4350 C.3    99  PHE99       0.1771
     29  C          5.7450    0.2810   12.9560 C.2    99  PHE99       0.2620
     30  O          4.8650   -0.0300   13.7330 O.2    99  PHE99      -0.2715
     31  CB         6.8260    1.5620   14.8330 C.3    99  PHE99       0.0574
     32  CG         8.1250    1.9410   15.4540 C.ar   99  PHE99      -0.0200
     33  CD1        8.5740    3.2630   15.4180 C.ar   99  PHE99      -0.0042
     34  CD2        8.9610    0.9550   15.9710 C.ar   99  PHE99      -0.0042
     35  CE1        9.8110    3.6090   15.9390 C.ar   99  PHE99      -0.0003
     36  CE2       10.2050    1.2810   16.4970 C.ar   99  PHE99      -0.0003
     37  CZ        10.6380    2.6240   16.4800 C.ar   99  PHE99      -0.0000
     38  N          5.6940    0.0240   11.6590 N.am  100  GLY100     -0.1940
     39  CA         4.5590   -0.6640   11.0880 C.3   100  GLY100      0.2014
     40  C          4.9500   -1.4020    9.8430 C.2   100  GLY100      0.2638
     41  O          5.7960   -2.3200    9.8550 O.2   100  GLY100     -0.2714
     42  N          4.2930   -1.0350    8.7630 N.am  101  HIS101     -0.1973
     43  CA         4.5450   -1.6670    7.4820 C.3   101  HIS101      0.1656
     44  C          5.6110   -0.9340    6.6810 C.2   101  HIS101      0.2291
     45  O          5.9960    0.2130    6.9800 O.2   101  HIS101     -0.2864
     46  CB         3.2440   -1.7250    6.6740 C.3   101  HIS101      0.0771
     47  CG         2.1200   -2.3940    7.3990 C.ar  101  HIS101      0.0820
     48  ND1        0.8130   -1.9820    7.2820 N.ar  101  HIS101     -0.2267
     49  CD2        2.1130   -3.4220    8.2790 C.ar  101  HIS101      0.1154
     50  CE1        0.0420   -2.7380    8.0470 C.ar  101  HIS101      0.1986
     51  NE2        0.8020   -3.6330    8.6520 N.ar  101  HIS101     -0.2212
     52  N          6.2800    1.3400    4.2490 N.3   103  VAL103     -0.1245
     53  CA         5.4950    2.4090    3.6350 C.3   103  VAL103      0.1561
     54  C          5.7830    2.5800    2.1590 C.2   103  VAL103      0.2260
     55  O          4.9620    3.1600    1.4480 O.2   103  VAL103     -0.2867
     56  CB         5.6640    3.7620    4.3250 C.3   103  VAL103      0.0252
     57  CG1        5.2400    3.6690    5.7770 C.3   103  VAL103      0.0019
     58  CG2        7.1120    4.2930    4.1860 C.3   103  VAL103      0.0019
     59  N         -1.2980    8.9660    5.6710 N.3   115  MET115     -0.1230
     60  CA        -0.2390    8.8110    6.6790 C.3   115  MET115      0.1702
     61  C          1.0650    8.2440    6.0340 C.2   115  MET115      0.2592
     62  O          2.1800    8.5530    6.4440 O.2   115  MET115     -0.2718
     63  CB        -0.6650    7.8980    7.8050 C.3   115  MET115      0.0401
     64  CG         0.5040    7.5330    8.7620 C.3   115  MET115      0.0596
     65  SD         0.0100    6.5650   10.2210 S.3   115  MET115     -0.1393
     66  CE        -1.5500    7.3720   10.5180 C.3   115  MET115      0.0692
     67  N          0.9090    7.4030    5.0300 N.am  116  TYR116     -0.1976
     68  CA         2.0570    6.7900    4.4020 C.3   116  TYR116      0.1639
     69  C          2.7230    7.8110    3.4830 C.2   116  TYR116      0.2290
     70  O          3.9700    7.8840    3.4200 O.2   116  TYR116     -0.2864
     71  CB         1.6320    5.5180    3.6960 C.3   116  TYR116      0.0560
     72  CG         1.5240    4.2910    4.5700 C.ar  116  TYR116     -0.0198
     73  CD1        1.4910    4.3700    5.9760 C.ar  116  TYR116     -0.0009
     74  CD2        1.4430    3.0270    3.9970 C.ar  116  TYR116     -0.0009
     75  CE1        1.3940    3.1980    6.7790 C.ar  116  TYR116      0.0417
     76  CE2        1.3510    1.8600    4.7900 C.ar  116  TYR116      0.0417
     77  CZ         1.3270    1.9560    6.1640 C.ar  116  TYR116      0.1957
     78  OH         1.2270    0.8000    6.9200 O.3   116  TYR116     -0.2866
     79  N          4.8390    9.6090    5.9400 N.3   119  LYS119     -0.1245
     80  CA         5.9810    8.8280    6.3350 C.3   119  LYS119      0.1561
     81  C          7.0300    8.7750    5.1940 C.2   119  LYS119      0.2260
     82  O          8.2250    8.9150    5.4420 O.2   119  LYS119     -0.2867
     83  CB         5.5360    7.4590    6.8440 C.3   119  LYS119      0.0271
     84  CG         4.9010    7.5000    8.2860 C.3   119  LYS119      0.0035
     85  CD         4.4990    6.1190    8.8190 C.3   119  LYS119      0.0206
     86  CE         3.9370    6.1480   10.2600 C.3   119  LYS119      0.1093
     87  NZ         3.9880    4.7930   10.8250 N.3   119  LYS119     -0.1314
     88  N          5.7180   -4.7320   11.5720 N.3   139  ASN139     -0.1225
     89  CA         4.4200   -5.3490   11.3480 C.3   139  ASN139      0.1785
     90  C          3.4210   -5.0790   12.5180 C.2   139  ASN139      0.2597
     91  O          3.4110   -3.9440   13.0050 O.2   139  ASN139     -0.2718
     92  CB         4.6310   -6.8090   10.9650 C.3   139  ASN139      0.1169
     93  CG         5.1410   -6.9540    9.5470 C.2   139  ASN139      0.2627
     94  OD1        4.6590   -6.2810    8.6310 O.2   139  ASN139     -0.2716
     95  ND2        6.1290   -7.8330    9.3580 N.am  139  ASN139     -0.0877
     96  N          2.5610   -6.0360   12.9180 N.am  140  SER140     -0.1952
     97  CA         1.4780   -5.7360   13.8730 C.3   140  SER140      0.1924
     98  C          1.8830   -6.0450   15.3140 C.2   140  SER140      0.2314
     99  O          2.4810   -7.0780   15.5890 O.2   140  SER140     -0.2863
    100  CB         0.1960   -6.5240   13.5410 C.3   140  SER140      0.2116
    101  OG        -0.2830   -6.1380   12.2760 O.3   140  SER140     -0.2180
    102  N         -9.3700    0.5450   16.1240 N.3   149  ASN149     -0.1225
    103  CA        -8.6570    0.8950   17.3590 C.3   149  ASN149      0.1785
    104  C         -7.1430    1.1110   17.1270 C.2   149  ASN149      0.2597
    105  O         -6.4630    0.1740   16.7070 O.2   149  ASN149     -0.2718
    106  CB        -8.8740   -0.2260   18.3650 C.3   149  ASN149      0.1169
    107  CG        -8.4960    0.1790   19.7900 C.2   149  ASN149      0.2627
    108  OD1       -7.4620    0.8350   20.0180 O.2   149  ASN149     -0.2716
    109  ND2       -9.3340   -0.2110   20.7570 N.am  149  ASN149     -0.0877
    110  N         -6.6240    2.3200   17.3990 N.am  150  ILE150     -0.1966
    111  CA        -5.1680    2.6160   17.2280 C.3   150  ILE150      0.1727
    112  C         -4.2230    1.9020   18.2380 C.2   150  ILE150      0.2616
    113  O         -3.0670    1.5840   17.8900 O.2   150  ILE150     -0.2715
    114  CB        -4.8190    4.1610   17.2000 C.3   150  ILE150      0.0290
    115  CG1       -5.0700    4.8500   18.5600 C.3   150  ILE150      0.0022
    116  CG2       -5.5850    4.8600   16.0900 C.3   150  ILE150      0.0023
    117  CD1       -4.2070    6.1320   18.7760 C.3   150  ILE150      0.0001
    118  N         -4.7140    1.6510   19.4580 N.am  151  HIS151     -0.1960
    119  CA        -3.9650    0.9080   20.4920 C.3   151  HIS151      0.1772
    120  C         -4.6890   -0.3860   20.9420 C.2   151  HIS151      0.2462
    121  O         -5.0090   -0.5340   22.1200 O.2   151  HIS151     -0.2730
    122  CB        -3.6910    1.8280   21.6930 C.3   151  HIS151      0.0785
    123  CG        -2.9160    3.0600   21.3370 C.ar  151  HIS151      0.0821
    124  ND1       -3.0560    4.2520   22.0150 N.ar  151  HIS151     -0.2267
    125  CD2       -2.0100    3.2930   20.3560 C.ar  151  HIS151      0.1154
    126  CE1       -2.2550    5.1590   21.4810 C.ar  151  HIS151      0.1986
    127  NE2       -1.6100    4.6030   20.4710 N.ar  151  HIS151     -0.2212
    128  N         -4.9030   -1.3410   20.0020 N.am  152  PRO152     -0.2727
    129  CA        -5.8080   -2.4880   20.2120 C.3   152  PRO152      0.1402
    130  C         -5.4010   -3.3950   21.3700 C.2   152  PRO152      0.2269
    131  O         -6.2780   -3.9900   22.0340 O.2   152  PRO152     -0.2865
    132  CB        -5.7320   -3.2640   18.8780 C.3   152  PRO152      0.0296
    133  CG        -4.4310   -2.9000   18.2890 C.3   152  PRO152      0.0237
    134  CD        -4.1450   -1.4790   18.7390 C.3   152  PRO152      0.0939
    135  N         -8.8020    8.8800   14.0780 N.3   244  PRO244     -0.2116
    136  CA        -7.9850    7.9080   13.3380 C.3   244  PRO244      0.1372
    137  C         -8.6260    6.5290   13.0670 C.2   244  PRO244      0.2244
    138  O         -7.9470    5.6160   12.5710 O.2   244  PRO244     -0.2868
    139  CB        -6.7620    7.7510   14.2540 C.3   244  PRO244      0.0268
    140  CG        -7.3310    7.8780   15.6440 C.3   244  PRO244      0.0207
    141  CD        -8.5580    8.7840   15.5350 C.3   244  PRO244      0.0892
    142  N         -8.4900    5.3730    9.5160 N.3   247  VAL247     -0.1231
    143  CA        -7.0930    5.0830    9.1450 C.3   247  VAL247      0.1692
    144  C         -6.8130    3.6250    9.4780 C.2   247  VAL247      0.2591
    145  O         -6.3230    2.8780    8.6380 O.2   247  VAL247     -0.2718
    146  CB        -6.0670    6.0090    9.8600 C.3   247  VAL247      0.0266
    147  CG1       -4.6400    5.6890    9.4480 C.3   247  VAL247      0.0020
    148  CG2       -6.3610    7.4750    9.5550 C.3   247  VAL247      0.0020
    149  N         -7.1610    3.2170   10.6950 N.am  248  VAL248     -0.1980
    150  CA        -6.9130    1.8470   11.1290 C.3   248  VAL248      0.1595
    151  C         -7.7110    0.8660   10.2850 C.2   248  VAL248      0.2287
    152  O         -7.2570   -0.2380   10.0250 O.2   248  VAL248     -0.2864
    153  CB        -7.2580    1.6660   12.6310 C.3   248  VAL248      0.0276
    154  CG1       -6.9470    0.2260   13.1010 C.3   248  VAL248      0.0022
    155  CG2       -6.4770    2.7090   13.4620 C.3   248  VAL248      0.0022
    156  N         -5.8400    0.1960    7.1080 N.3   251  PHE251     -0.1241
    157  CA        -4.6880   -0.6810    7.3730 C.3   251  PHE251      0.1605
    158  C         -5.1260   -2.1280    7.5590 C.2   251  PHE251      0.2264
    159  O         -4.4940   -3.0540    7.0660 O.2   251  PHE251     -0.2867
    160  CB        -3.9550   -0.2260    8.6620 C.3   251  PHE251      0.0534
    161  CG        -3.2550    1.1130    8.5580 C.ar  251  PHE251     -0.0203
    162  CD1       -2.8640    1.6400    7.3310 C.ar  251  PHE251     -0.0042
    163  CD2       -2.9140    1.8060    9.7040 C.ar  251  PHE251     -0.0042
    164  CE1       -2.1730    2.8560    7.2570 C.ar  251  PHE251     -0.0003
    165  CE2       -2.2140    3.0270    9.6370 C.ar  251  PHE251     -0.0003
    166  CZ        -1.8560    3.5510    8.4190 C.ar  251  PHE251     -0.0000
    167  N         -3.8240   -5.1970    5.3740 N.3   255  ILE255     -0.1245
    168  CA        -3.2210   -6.3350    6.0090 C.3   255  ILE255      0.1561
    169  C         -3.9630   -7.6560    5.7320 C.2   255  ILE255      0.2260
    170  O         -3.3540   -8.6440    5.2820 O.2   255  ILE255     -0.2867
    171  CB        -3.2230   -6.1530    7.5620 C.3   255  ILE255      0.0252
    172  CG1       -2.2990   -5.0340    7.9830 C.3   255  ILE255      0.0019
    173  CG2       -2.7620   -7.4380    8.2530 C.3   255  ILE255      0.0019
    174  CD1       -2.3890   -4.7090    9.4540 C.3   255  ILE255      0.0001
@<TRIPOS>BOND
     1    55    54    2
     2    54    53    1
     3    70    69    2
     4    69    68    1
     5    53    52    1
     6    53    56    1
     7    71    68    1
     8    71    72    1
     9    74    72   ar
    10    74    76   ar
    11    58    56    1
    12    56    57    1
    13    68    67    1
    14    72    73   ar
    15    76    77   ar
    16    67    61   am
    17    81    82    2
    18    81    80    1
    19   170   169    2
    20   167   168    1
    21    59    60    1
    22   169   168    1
    23    79    80    1
    24    73    75   ar
    25   168   171    1
    26    61    62    2
    27    61    60    1
    28    77    75   ar
    29    77    78    1
    30    80    83    1
    31    46    47    1
    32    46    43    1
    33    60    63    1
    34    44    45    2
    35    44    43    1
    36    83    84    1
    37   159   158    2
    38   156   157    1
    39   164   162   ar
    40   164   166   ar
    41    48    47   ar
    42    48    50   ar
    43   162   161   ar
    44   157   158    1
    45   157   160    1
    46    47    49   ar
    47    43    42    1
    48   171   172    1
    49   171   173    1
    50    26    24   ar
    51    63    64    1
    52    25    24   ar
    53   172   174    1
    54    50    51   ar
    55    49    51   ar
    56    84    85    1
    57    24    23    1
    58   166   165   ar
    59   161   160    1
    60   161   163   ar
    61    94    93    2
    62   145   144    2
    63    64    65    1
    64    42    40   am
    65    85    86    1
    66   143   144    1
    67   143   142    1
    68   143   146    1
    69    95    93   am
    70   147   146    1
    71   144   149   am
    72    93    92    1
    73   148   146    1
    74   165   163   ar
    75    23    22    1
    76    40    41    2
    77    40    39    1
    78   152   151    2
    79    65    66    1
    80    86    87    1
    81   151   150    1
    82    22    19    1
    83   149   150    1
    84    92    89    1
    85    39    38    1
    86   150   153    1
    87    19    20    1
    88    19    18    1
    89    89    88    1
    90    89    90    1
    91    38    29   am
    92     8     7    2
    93    20    21    2
    94    20    27   am
    95   101   100    1
    96    27    28    1
    97    90    96   am
    98    90    91    2
    99   138   137    2
   100   153   154    1
   101   153   155    1
   102     7     6    1
   103     7     9   am
   104    96    97    1
   105    29    28    1
   106    29    30    2
   107   137   136    1
   108     6     5    1
   109   136   135    1
   110   136   139    1
   111    28    31    1
   112   100    97    1
   113    12    11    2
   114    10    11    1
   115    10     9    1
   116    10    13    1
   117    97    98    1
   118   135   141    1
   119   139   140    1
   120     5     3   am
   121     4     3    2
   122    13    14    1
   123    31    32    1
   124     3     2    1
   125    98    99    2
   126    33    32   ar
   127    33    35   ar
   128    32    34   ar
   129   141   140    1
   130    35    37   ar
   131    34    36   ar
   132   116   114    1
   133   102   103    1
   134    16    15   ar
   135    14    15    1
   136    37    36   ar
   137     2     1    1
   138    15    17   ar
   139   105   104    2
   140   104   103    1
   141   104   110   am
   142   114   111    1
   143   114   115    1
   144   111   110    1
   145   111   112    1
   146   103   106    1
   147   113   112    2
   148   112   118   am
   149   133   134    1
   150   133   132    1
   151   106   107    1
   152   115   117    1
   153   134   128    1
   154   132   129    1
   155   118   119    1
   156   107   108    2
   157   107   109   am
   158   128   129    1
   159   128   120   am
   160   129   130    1
   161   125   127   ar
   162   125   123   ar
   163   127   126   ar
   164   119   120    1
   165   119   122    1
   166   120   121    2
   167   123   122    1
   168   123   124   ar
   169   130   131    2
   170   126   124   ar
