@<TRIPOS>MOLECULE
tmp/3i54D00.pdb
 152 145 0 0 0
SMALL
GASTEIGER

@<TRIPOS>ATOM
      1  N         19.1770   61.1030   37.1150 N.3    43  PHE43      -0.1241
      2  CA        18.9280   61.2220   38.5200 C.3    43  PHE43       0.1605
      3  C         19.9380   60.3250   39.2420 C.2    43  PHE43       0.2264
      4  O         20.6840   59.5460   38.6220 O.2    43  PHE43      -0.2867
      5  CB        17.4630   60.8870   38.8440 C.3    43  PHE43       0.0534
      6  CG        17.0310   59.4970   38.3690 C.ar   43  PHE43      -0.0203
      7  CD1       17.5660   58.3490   38.9740 C.ar   43  PHE43      -0.0042
      8  CD2       16.0730   59.3390   37.3700 C.ar   43  PHE43      -0.0042
      9  CE1       17.2110   57.0980   38.5570 C.ar   43  PHE43      -0.0003
     10  CE2       15.7040   58.0690   36.9650 C.ar   43  PHE43      -0.0003
     11  CZ        16.2590   56.9590   37.5550 C.ar   43  PHE43      -0.0000
     12  N         22.5480   52.1690   34.3310 N.3    62  ILE62      -0.1245
     13  CA        22.0030   52.1820   35.6590 C.3    62  ILE62       0.1561
     14  C         23.0920   51.6700   36.6240 C.2    62  ILE62       0.2260
     15  O         23.5610   50.5720   36.4650 O.2    62  ILE62      -0.2867
     16  CB        20.7460   51.2600   35.7740 C.3    62  ILE62       0.0252
     17  CG1       19.5970   51.8580   34.9410 C.3    62  ILE62       0.0019
     18  CG2       20.2880   51.1890   37.2110 C.3    62  ILE62       0.0019
     19  CD1       19.7360   51.5480   33.5350 C.3    62  ILE62       0.0001
     20  N         24.0080   47.9870   36.8710 N.3    74  LEU74      -0.1231
     21  CA        23.0260   46.9190   36.9550 C.3    74  LEU74       0.1693
     22  C         22.5690   46.5060   35.5730 C.2    74  LEU74       0.2592
     23  O         22.2300   45.3270   35.3650 O.2    74  LEU74      -0.2718
     24  CB        21.8260   47.2960   37.8260 C.3    74  LEU74       0.0284
     25  CG        22.0880   47.7820   39.2670 C.3    74  LEU74       0.0019
     26  CD1       20.7560   47.8810   40.0100 C.3    74  LEU74       0.0001
     27  CD2       23.0510   46.9110   39.9780 C.3    74  LEU74       0.0001
     28  N         22.5460   47.4550   34.6240 N.am   75  THR75      -0.1953
     29  CA        22.1530   47.1590   33.2520 C.3    75  THR75       0.1897
     30  C         22.3920   48.3810   32.3630 C.2    75  THR75       0.2313
     31  O         22.5950   49.4930   32.8500 O.2    75  THR75      -0.2863
     32  CB        20.6250   46.7530   33.1870 C.3    75  THR75       0.1794
     33  OG1       20.3460   46.1870   31.9180 O.3    75  THR75      -0.2208
     34  CG2       19.6620   47.9520   33.3910 C.3    75  THR75       0.0378
     35  N         20.3040   50.5070   29.5110 N.3    77  MET77      -0.1245
     36  CA        19.0180   50.7240   28.8460 C.3    77  MET77       0.1570
     37  C         19.1940   51.3370   27.4430 C.2    77  MET77       0.2261
     38  O         20.0330   52.1940   27.2460 O.2    77  MET77      -0.2867
     39  CB        18.1950   51.7030   29.6360 C.3    77  MET77       0.0387
     40  CG        17.8600   51.3320   31.0690 C.3    77  MET77       0.0595
     41  SD        16.6530   50.0520   31.2620 S.3    77  MET77      -0.1393
     42  CE        16.3640   50.1920   33.0700 C.3    77  MET77       0.0692
     43  N         12.9390   53.4580   32.4200 N.3    83  PHE83      -0.1227
     44  CA        13.6910   53.4990   33.6550 C.3    83  PHE83       0.1736
     45  C         13.1150   54.5700   34.6160 C.2    83  PHE83       0.2596
     46  O         12.4360   55.5340   34.2120 O.2    83  PHE83      -0.2718
     47  CB        15.2260   53.6600   33.4440 C.3    83  PHE83       0.0547
     48  CG        15.6330   54.9850   32.9460 C.ar   83  PHE83      -0.0202
     49  CD1       15.6820   55.2250   31.5780 C.ar   83  PHE83      -0.0042
     50  CD2       15.9450   56.0130   33.8220 C.ar   83  PHE83      -0.0042
     51  CE1       16.0380   56.4570   31.0780 C.ar   83  PHE83      -0.0003
     52  CE2       16.2780   57.2480   33.3270 C.ar   83  PHE83      -0.0003
     53  CZ        16.3280   57.4780   31.9330 C.ar   83  PHE83      -0.0000
     54  N         13.3690   54.3550   35.9040 N.am   84  GLY84      -0.1942
     55  CA        12.9530   55.2730   36.9430 C.3    84  GLY84       0.2014
     56  C         11.5690   54.9310   37.4490 C.2    84  GLY84       0.2639
     57  O         10.9370   55.7600   38.0860 O.2    84  GLY84      -0.2714
     58  N         11.1140   53.7100   37.1590 N.am   85  GLU85      -0.1963
     59  CA         9.7570   53.2510   37.5070 C.3    85  GLU85       0.1733
     60  C          9.5920   52.7070   38.9230 C.2    85  GLU85       0.2616
     61  O          8.5190   52.7960   39.4680 O.2    85  GLU85      -0.2715
     62  CB         9.2390   52.1850   36.4940 C.3    85  GLU85       0.0429
     63  CG         9.7240   50.7250   36.6930 C.3    85  GLU85       0.1163
     64  CD        11.2460   50.5450   36.4180 C.2    85  GLU85       0.3649
     65  OE1       11.9010   51.4340   35.8230 O.co2  85  GLU85      -0.2457
     66  OE2       11.7800   49.4790   36.7700 O.co2  85  GLU85      -0.2457
     67  N         10.6300   52.1050   39.5070 N.am   86  LEU86      -0.1963
     68  CA        10.4610   51.4110   40.7880 C.3    86  LEU86       0.1728
     69  C         10.0680   52.3930   41.8870 C.2    86  LEU86       0.2616
     70  O          9.2300   52.0810   42.7270 O.2    86  LEU86      -0.2715
     71  CB        11.7500   50.7040   41.2150 C.3    86  LEU86       0.0311
     72  CG        12.3860   49.7470   40.2020 C.3    86  LEU86       0.0022
     73  CD1       13.6890   49.1810   40.7350 C.3    86  LEU86       0.0001
     74  CD2       11.3870   48.6750   39.8930 C.3    86  LEU86       0.0001
     75  N         10.6900   53.5720   41.8960 N.am   87  SER87      -0.1950
     76  CA        10.4010   54.5690   42.9290 C.3    87  SER87       0.1924
     77  C          9.0090   55.1790   42.6910 C.2    87  SER87       0.2314
     78  O          8.4680   55.7830   43.5680 O.2    87  SER87      -0.2863
     79  CB        11.5280   55.6410   43.0040 C.3    87  SER87       0.2116
     80  OG        11.5860   56.4000   41.8150 O.3    87  SER87      -0.2180
     81  N         15.2380   56.6260   44.6720 N.3    94  ARG94      -0.1231
     82  CA        15.9050   55.9230   43.5790 C.3    94  ARG94       0.1694
     83  C         16.7880   54.7870   44.1320 C.2    94  ARG94       0.2593
     84  O         17.5290   54.9950   45.0630 O.2    94  ARG94      -0.2718
     85  CB        16.7610   56.8610   42.7320 C.3    94  ARG94       0.0321
     86  CG        16.0150   57.9800   42.0850 C.3    94  ARG94       0.0489
     87  CD        14.8600   57.5300   41.2400 C.3    94  ARG94       0.2205
     88  NE        14.3340   58.6490   40.4780 N.pl3  94  ARG94      -0.0865
     89  CZ        13.3520   58.5740   39.5940 C.cat  94  ARG94       0.5346
     90  NH1       12.9520   59.6860   38.9830 N.pl3  94  ARG94       0.1354
     91  NH2       12.7700   57.4250   39.3100 N.pl3  94  ARG94       0.1354
     92  N         16.6600   53.5980   43.5590 N.am   95  THR95      -0.1939
     93  CA        17.4560   52.4320   43.9300 C.3    95  THR95       0.2028
     94  C         18.8360   52.5160   43.2420 C.2    95  THR95       0.2643
     95  O         19.7730   51.8430   43.6710 O.2    95  THR95      -0.2714
     96  CB        16.7730   51.1280   43.4460 C.3    95  THR95       0.1808
     97  OG1       16.5850   51.1970   42.0290 O.3    95  THR95      -0.2208
     98  CG2       15.3860   50.8920   44.1380 C.3    95  THR95       0.0379
     99  N         18.9660   53.3560   42.2100 N.am   96  SER96      -0.1935
    100  CA        20.2200   53.5150   41.4590 C.3    96  SER96       0.2055
    101  C         20.2890   54.8770   40.7800 C.2    96  SER96       0.2644
    102  O         19.3140   55.5930   40.7580 O.2    96  SER96      -0.2714
    103  CB        20.2860   52.4860   40.3350 C.3    96  SER96       0.2130
    104  OG        19.7290   51.2810   40.6900 O.3    96  SER96      -0.2179
    105  N         21.4290   55.1850   40.1700 N.am   97  SER97      -0.1935
    106  CA        21.5590   56.3180   39.2930 C.3    97  SER97       0.2055
    107  C         21.3230   55.9220   37.8490 C.2    97  SER97       0.2642
    108  O         21.3400   54.7780   37.4930 O.2    97  SER97      -0.2714
    109  CB        22.9120   56.9750   39.4650 C.3    97  SER97       0.2130
    110  OG        23.8990   56.0550   39.1480 O.3    97  SER97      -0.2179
    111  N         21.0020   56.8940   37.0270 N.am   98  ALA98      -0.1977
    112  CA        20.7930   56.6850   35.5960 C.3    98  ALA98       0.1597
    113  C         21.5850   57.7950   35.0250 C.2    98  ALA98       0.2287
    114  O         21.2950   58.9500   35.3320 O.2    98  ALA98      -0.2864
    115  CB        19.3230   56.8480   35.1910 C.3    98  ALA98       0.0319
    116  N         12.7020   41.9240   34.1380 N.3   135  ARG135     -0.1245
    117  CA        13.7980   42.5480   34.8620 C.3   135  ARG135      0.1563
    118  C         14.2060   41.7300   36.0800 C.2   135  ARG135      0.2260
    119  O         15.4120   41.5830   36.4360 O.2   135  ARG135     -0.2867
    120  CB        13.3190   43.9330   35.2500 C.3   135  ARG135      0.0307
    121  CG        14.3600   44.9380   35.3950 C.3   135  ARG135      0.0489
    122  CD        13.7620   46.3690   35.2100 C.3   135  ARG135      0.2205
    123  NE        13.7550   46.8050   33.8250 N.pl3 135  ARG135     -0.0865
    124  CZ        13.4580   48.0440   33.4330 C.cat 135  ARG135      0.5346
    125  NH1       13.1370   48.9810   34.3390 N.pl3 135  ARG135      0.1354
    126  NH2       13.5200   48.3580   32.1440 N.pl3 135  ARG135      0.1354
    127  N         15.9660   38.5830   34.7380 N.3   138  ARG138     -0.1231
    128  CA        17.2920   38.8680   34.3140 C.3   138  ARG138      0.1694
    129  C         18.2420   39.1010   35.4860 C.2   138  ARG138      0.2592
    130  O         19.3930   38.6660   35.4600 O.2   138  ARG138     -0.2718
    131  CB        17.1700   40.0870   33.4800 C.3   138  ARG138      0.0321
    132  CG        18.3400   40.4990   32.7480 C.3   138  ARG138      0.0489
    133  CD        17.8560   41.5440   31.7680 C.3   138  ARG138      0.2205
    134  NE        16.9680   41.0140   30.7320 N.pl3 138  ARG138     -0.0865
    135  CZ        16.0270   41.7370   30.1190 C.cat 138  ARG138      0.5346
    136  NH1       15.8000   43.0110   30.4680 N.pl3 138  ARG138      0.1354
    137  NH2       15.2880   41.1880   29.1630 N.pl3 138  ARG138      0.1354
    138  N         17.7600   39.7690   36.5210 N.am  139  THR139     -0.1953
    139  CA        18.5780   40.0200   37.7030 C.3   139  THR139      0.1897
    140  C         18.9270   38.7690   38.5030 C.2   139  THR139      0.2313
    141  O         20.0490   38.6800   39.0580 O.2   139  THR139     -0.2863
    142  CB        17.8990   41.0570   38.6140 C.3   139  THR139      0.1794
    143  OG1       17.5760   42.1830   37.7990 O.3   139  THR139     -0.2208
    144  CG2       18.8620   41.4760   39.7390 C.3   139  THR139      0.0378
    145  N         21.7390   37.4020   36.6010 N.3   142  ASN142     -0.1240
    146  CA        22.9700   38.1580   36.9350 C.3   142  ASN142      0.1653
    147  C         23.6000   37.6450   38.2320 C.2   142  ASN142      0.2266
    148  O         24.8180   37.3890   38.3080 O.2   142  ASN142     -0.2867
    149  CB        22.7290   39.6580   37.0540 C.3   142  ASN142      0.1155
    150  CG        22.3650   40.2810   35.7590 C.2   142  ASN142      0.2627
    151  OD1       22.5700   39.6870   34.7070 O.2   142  ASN142     -0.2716
    152  ND2       21.7730   41.4690   35.8070 N.am  142  ASN142     -0.0877
@<TRIPOS>BOND
     1    38    37    2
     2    37    36    1
     3    36    35    1
     4    36    39    1
     5   137   135    1
     6    39    40    1
     7   135   136    1
     8   135   134    2
     9   134   133    1
    10    40    41    1
    11    51    49   ar
    12    51    53   ar
    13    41    42    1
    14    49    48   ar
    15   133   132    1
    16    33    32    1
    17    53    52   ar
    18   126   124    1
    19    30    31    2
    20    30    29    1
    21    43    44    1
    22   132   131    1
    23    48    47    1
    24    48    50   ar
    25    32    29    1
    26    32    34    1
    27    29    28    1
    28    52    50   ar
    29   124   123    2
    30   124   125    1
    31    47    44    1
    32   131   128    1
    33    19    17    1
    34    44    45    1
    35   123   122    1
    36   116   117    1
    37    46    45    2
    38   128   127    1
    39   128   129    1
    40    12    13    1
    41    45    54   am
    42    28    22   am
    43   151   150    2
    44   117   120    1
    45   117   118    1
    46    17    16    1
    47   113   114    2
    48   113   112    1
    49   115   112    1
    50   122   121    1
    51   120   121    1
    52    23    22    2
    53   130   129    2
    54   129   138   am
    55    22    21    1
    56   112   111    1
    57    13    16    1
    58    13    14    1
    59   150   152   am
    60   150   149    1
    61    16    18    1
    62    65    64   ar
    63    54    55    1
    64   118   119    2
    65    64    63    1
    66    64    66   ar
    67    15    14    2
    68    62    63    1
    69    62    59    1
    70   138   139    1
    71   145   146    1
    72    20    21    1
    73   146   149    1
    74   146   147    1
    75    55    56    1
    76    21    24    1
    77    10     8   ar
    78    10    11   ar
    79   111   107   am
    80     1     2    1
    81    58    56   am
    82    58    59    1
    83     8     6   ar
    84    56    57    2
    85   108   107    2
    86    59    60    1
    87    11     9   ar
    88   139   140    1
    89   139   142    1
    90   143   142    1
    91    24    25    1
    92   107   106    1
    93   147   148    2
    94     6     5    1
    95     6     7   ar
    96   140   141    2
    97     2     5    1
    98     2     3    1
    99     9     7   ar
   100   142   144    1
   101     4     3    2
   102    60    61    2
   103    60    67   am
   104    90    89    1
   105   110   109    1
   106    25    27    1
   107    25    26    1
   108   106   109    1
   109   106   105    1
   110    91    89    1
   111    67    68    1
   112    89    88    2
   113    74    72    1
   114   105   101   am
   115    72    73    1
   116    72    71    1
   117   103   104    1
   118   103   100    1
   119    88    87    1
   120   102   101    2
   121   101   100    1
   122    68    71    1
   123    68    69    1
   124    87    86    1
   125   100    99    1
   126    80    79    1
   127    69    75   am
   128    69    70    2
   129    75    76    1
   130    97    96    1
   131    86    85    1
   132    99    94   am
   133    77    76    1
   134    77    78    2
   135    85    82    1
   136    76    79    1
   137    94    95    2
   138    94    93    1
   139    96    93    1
   140    96    98    1
   141    92    93    1
   142    92    83   am
   143    82    83    1
   144    82    81    1
   145    83    84    2
