@<TRIPOS>MOLECULE
tmp/3i58A00.pdb
 198 194 0 0 0
SMALL
GASTEIGER

@<TRIPOS>ATOM
      1  N        -37.6490   13.9080  -25.1310 N.3   129  TRP129     -0.1241
      2  CA       -37.7150   12.7450  -26.0130 C.3   129  TRP129      0.1605
      3  C        -36.7460   11.6500  -25.6110 C.2   129  TRP129      0.2264
      4  O        -37.0580   10.4640  -25.7320 O.2   129  TRP129     -0.2867
      5  CB       -37.4650   13.1700  -27.4620 C.3   129  TRP129      0.0550
      6  CG       -38.4890   14.1500  -27.9620 C.ar  129  TRP129      0.0003
      7  CD1      -38.2470   15.3500  -28.5580 C.ar  129  TRP129      0.0946
      8  CD2      -39.9180   14.0280  -27.8750 C.ar  129  TRP129      0.0152
      9  NE1      -39.4320   15.9870  -28.8470 N.ar  129  TRP129     -0.2442
     10  CE2      -40.4720   15.1960  -28.4380 C.ar  129  TRP129      0.0810
     11  CE3      -40.7800   13.0490  -27.3750 C.ar  129  TRP129      0.0012
     12  CZ2      -41.8520   15.4110  -28.5140 C.ar  129  TRP129      0.0191
     13  CZ3      -42.1540   13.2630  -27.4500 C.ar  129  TRP129      0.0001
     14  CH2      -42.6750   14.4330  -28.0150 C.ar  129  TRP129      0.0015
     15  N        -38.4580    9.9150  -22.6320 N.3   132  LEU132     -0.1245
     16  CA       -39.5250    9.0080  -23.0260 C.3   132  LEU132      0.1561
     17  C        -38.9500    7.7860  -23.7360 C.2   132  LEU132      0.2260
     18  O        -39.4650    6.6730  -23.6090 O.2   132  LEU132     -0.2867
     19  CB       -40.5110    9.7120  -23.9620 C.3   132  LEU132      0.0270
     20  CG       -41.2670   10.9420  -23.4740 C.3   132  LEU132      0.0019
     21  CD1      -42.3850   11.2400  -24.4480 C.3   132  LEU132      0.0001
     22  CD2      -41.8310   10.6970  -22.0980 C.3   132  LEU132      0.0001
     23  N        -47.4880    9.4810  -22.1030 N.3   142  PHE142     -0.1227
     24  CA       -47.5190   10.5990  -23.0260 C.3   142  PHE142      0.1736
     25  C        -48.4560   10.2610  -24.1980 C.2   142  PHE142      0.2595
     26  O        -49.2680   11.0880  -24.6020 O.2   142  PHE142     -0.2718
     27  CB       -46.1090   10.9390  -23.5300 C.3   142  PHE142      0.0547
     28  CG       -46.0430   12.2390  -24.2900 C.ar  142  PHE142     -0.0202
     29  CD1      -46.4440   13.4310  -23.6880 C.ar  142  PHE142     -0.0042
     30  CD2      -45.6600   12.2640  -25.6200 C.ar  142  PHE142     -0.0042
     31  CE1      -46.4700   14.6240  -24.4000 C.ar  142  PHE142     -0.0003
     32  CE2      -45.6830   13.4520  -26.3430 C.ar  142  PHE142     -0.0003
     33  CZ       -46.0930   14.6370  -25.7270 C.ar  142  PHE142     -0.0000
     34  N        -48.3570    9.0410  -24.7250 N.am  143  ASP143     -0.1974
     35  CA       -49.2100    8.5980  -25.8390 C.3   143  ASP143      0.1709
     36  C        -50.6950    8.7350  -25.4950 C.2   143  ASP143      0.2293
     37  O        -51.5040    9.1690  -26.3180 O.2   143  ASP143     -0.2864
     38  CB       -48.9170    7.1300  -26.1960 C.3   143  ASP143      0.1436
     39  CG       -47.5570    6.9470  -26.8410 C.2   143  ASP143      0.3671
     40  OD1      -47.2000    7.8110  -27.6700 O.co2 143  ASP143     -0.2456
     41  OD2      -46.8520    5.9490  -26.5400 O.co2 143  ASP143     -0.2456
     42  N        -51.7010   12.5980  -25.3730 N.3   146  MET146     -0.1245
     43  CA       -51.8950   13.2300  -26.6690 C.3   146  MET146      0.1570
     44  C        -53.1480   12.6570  -27.2980 C.2   146  MET146      0.2261
     45  O        -53.8510   13.3330  -28.0470 O.2   146  MET146     -0.2867
     46  CB       -50.6950   12.9930  -27.5840 C.3   146  MET146      0.0387
     47  CG       -49.4040   13.6390  -27.1020 C.3   146  MET146      0.0595
     48  SD       -49.5550   15.4250  -26.9620 S.3   146  MET146     -0.1393
     49  CE       -49.8310   15.5440  -25.2100 C.3   146  MET146      0.0692
     50  N        -55.8470   14.6610  -25.8910 N.3   149  HIS149     -0.1226
     51  CA       -55.8340   16.0090  -26.4440 C.3   149  HIS149      0.1752
     52  C        -56.6110   16.0640  -27.7700 C.2   149  HIS149      0.2595
     53  O        -57.2070   17.0860  -28.1090 O.2   149  HIS149     -0.2718
     54  CB       -54.3700   16.4800  -26.5990 C.3   149  HIS149      0.0759
     55  CG       -53.9460   16.7770  -28.0090 C.ar  149  HIS149      0.0818
     56  ND1      -54.2440   17.9630  -28.6450 N.ar  149  HIS149     -0.2268
     57  CD2      -53.2320   16.0450  -28.8990 C.ar  149  HIS149      0.1154
     58  CE1      -53.7330   17.9480  -29.8650 C.ar  149  HIS149      0.1986
     59  NE2      -53.1140   16.7950  -30.0440 N.ar  149  HIS149     -0.2212
     60  N        -56.6210   14.9550  -28.5060 N.am  150  LEU150     -0.1980
     61  CA       -57.3300   14.8780  -29.7850 C.3   150  LEU150      0.1596
     62  C        -58.8360   15.0540  -29.5820 C.2   150  LEU150      0.2287
     63  O        -59.4940   15.7890  -30.3320 O.2   150  LEU150     -0.2864
     64  CB       -57.0770   13.5220  -30.4500 C.3   150  LEU150      0.0297
     65  CG       -55.6570   13.1230  -30.8540 C.3   150  LEU150      0.0022
     66  CD1      -55.6540   11.6530  -31.1940 C.3   150  LEU150      0.0001
     67  CD2      -55.1830   13.9490  -32.0350 C.3   150  LEU150      0.0001
     68  N        -49.3120   10.4240  -41.4330 N.3   171  ASP171     -0.1239
     69  CA       -49.3560   11.2160  -40.2120 C.3   171  ASP171      0.1674
     70  C        -47.9520   11.2240  -39.6250 C.2   171  ASP171      0.2266
     71  O        -47.5800   10.3120  -38.8880 O.2   171  ASP171     -0.2867
     72  CB       -50.3590   10.6110  -39.2170 C.3   171  ASP171      0.1410
     73  CG       -50.8290   11.6250  -38.1510 C.2   171  ASP171      0.3668
     74  OD1      -50.5980   12.8380  -38.3470 O.co2 171  ASP171     -0.2456
     75  OD2      -51.4370   11.2150  -37.1280 O.co2 171  ASP171     -0.2456
     76  N        -45.3370   11.8650  -37.2130 N.3   173  GLY173     -0.1210
     77  CA       -45.3260   12.0860  -35.7800 C.3   173  GLY173      0.1956
     78  C        -46.7040   11.7970  -35.2020 C.2   173  GLY173      0.2612
     79  O        -47.0690   12.3370  -34.1600 O.2   173  GLY173     -0.2717
     80  N        -47.4580   10.9250  -35.8690 N.am  174  GLY174     -0.1942
     81  CA       -48.8080   10.5830  -35.4490 C.3   174  GLY174      0.2014
     82  C        -49.0800    9.8000  -34.1710 C.2   174  GLY174      0.2639
     83  O        -50.1960    9.3180  -33.9930 O.2   174  GLY174     -0.2714
     84  N        -48.1040    9.6500  -33.2840 N.am  175  GLY175     -0.1954
     85  CA       -48.3610    8.9330  -32.0410 C.3   175  GLY175      0.1869
     86  C        -49.0630    7.5790  -32.1140 C.2   175  GLY175      0.2309
     87  O        -48.8120    6.7780  -33.0140 O.2   175  GLY175     -0.2863
     88  N        -55.4750   10.1090  -34.4740 N.3   179  LEU179     -0.1245
     89  CA       -56.0270   10.9310  -35.5320 C.3   179  LEU179      0.1561
     90  C        -56.3190   10.1190  -36.7730 C.2   179  LEU179      0.2260
     91  O        -57.4170   10.1800  -37.3110 O.2   179  LEU179     -0.2867
     92  CB       -55.0880   12.0880  -35.8810 C.3   179  LEU179      0.0270
     93  CG       -55.6740   13.0210  -36.9460 C.3   179  LEU179      0.0019
     94  CD1      -57.0050   13.5570  -36.4610 C.3   179  LEU179      0.0001
     95  CD2      -54.7230   14.1540  -37.2530 C.3   179  LEU179      0.0001
     96  N        -46.1360    7.5890  -38.9110 N.3   195  LEU195     -0.1231
     97  CA       -44.6710    7.5980  -38.8600 C.3   195  LEU195      0.1693
     98  C        -44.3130    8.1900  -37.4930 C.2   195  LEU195      0.2592
     99  O        -44.7440    9.2890  -37.1760 O.2   195  LEU195     -0.2718
    100  CB       -44.1280    8.4760  -39.9900 C.3   195  LEU195      0.0284
    101  CG       -42.6180    8.6480  -40.1820 C.3   195  LEU195      0.0019
    102  CD1      -42.0200    9.5230  -39.0830 C.3   195  LEU195      0.0001
    103  CD2      -41.9680    7.2830  -40.2020 C.3   195  LEU195      0.0001
    104  N        -43.5480    7.4730  -36.6760 N.am  196  ASP196     -0.1960
    105  CA       -43.2040    7.9840  -35.3470 C.3   196  ASP196      0.1840
    106  C        -42.0820    7.1400  -34.7570 C.2   196  ASP196      0.2621
    107  O        -41.6720    6.1490  -35.3460 O.2   196  ASP196     -0.2715
    108  CB       -44.4420    7.9170  -34.4330 C.3   196  ASP196      0.1450
    109  CG       -44.4830    9.0410  -33.3740 C.2   196  ASP196      0.3671
    110  OD1      -43.6340    9.0660  -32.4550 O.co2 196  ASP196     -0.2456
    111  OD2      -45.3870    9.9050  -33.4610 O.co2 196  ASP196     -0.2456
    112  N        -41.5680    7.5360  -33.6030 N.am  197  LEU197     -0.1977
    113  CA       -40.5170    6.7620  -32.9580 C.3   197  LEU197      0.1596
    114  C        -41.1410    5.4130  -32.6080 C.2   197  LEU197      0.2287
    115  O        -42.3680    5.2740  -32.6240 O.2   197  LEU197     -0.2864
    116  CB       -40.0260    7.4730  -31.6950 C.3   197  LEU197      0.0297
    117  CG       -39.5380    8.9080  -31.9150 C.3   197  LEU197      0.0022
    118  CD1      -39.1460    9.5280  -30.5850 C.3   197  LEU197      0.0001
    119  CD2      -38.3730    8.9070  -32.8780 C.3   197  LEU197      0.0001
    120  N        -44.5150    5.0750  -29.7200 N.3   200  PRO200     -0.2116
    121  CA       -45.8500    5.4160  -30.2140 C.3   200  PRO200      0.1372
    122  C        -46.2570    4.5680  -31.4270 C.2   200  PRO200      0.2244
    123  O        -47.3930    4.1070  -31.5100 O.2   200  PRO200     -0.2868
    124  CB       -45.7220    6.8980  -30.5750 C.3   200  PRO200      0.0268
    125  CG       -44.6450    7.3820  -29.6700 C.3   200  PRO200      0.0207
    126  CD       -43.6420    6.2600  -29.6880 C.3   200  PRO200      0.0892
    127  N        -39.6340    5.5040  -37.4950 N.3   222  GLY222     -0.1210
    128  CA       -38.5850    6.3560  -38.0250 C.3   222  GLY222      0.1956
    129  C        -38.6460    7.7960  -37.5460 C.2   222  GLY222      0.2613
    130  O        -39.6540    8.2410  -37.0080 O.2   222  GLY222     -0.2717
    131  N        -37.5530    8.5240  -37.7320 N.am  223  SER223     -0.1938
    132  CA       -37.4820    9.9240  -37.3440 C.3   223  SER223      0.2055
    133  C        -37.9640   10.7880  -38.5020 C.2   223  SER223      0.2643
    134  O        -37.6160   10.5140  -39.6480 O.2   223  SER223     -0.2714
    135  CB       -36.0440   10.2930  -37.0090 C.3   223  SER223      0.2130
    136  OG       -35.8620   11.6920  -37.0620 O.3   223  SER223     -0.2179
    137  N        -38.7660   11.8160  -38.2190 N.am  224  PHE224     -0.1959
    138  CA       -39.2440   12.6810  -39.2950 C.3   224  PHE224      0.1771
    139  C        -38.1660   13.6800  -39.7170 C.2   224  PHE224      0.2619
    140  O        -38.4370   14.6500  -40.4190 O.2   224  PHE224     -0.2715
    141  CB       -40.5500   13.4160  -38.9210 C.3   224  PHE224      0.0574
    142  CG       -40.5660   14.0010  -37.5340 C.ar  224  PHE224     -0.0200
    143  CD1      -39.4800   14.7110  -37.0400 C.ar  224  PHE224     -0.0042
    144  CD2      -41.6870   13.8530  -36.7260 C.ar  224  PHE224     -0.0042
    145  CE1      -39.5100   15.2570  -35.7660 C.ar  224  PHE224     -0.0003
    146  CE2      -41.7250   14.4000  -35.4460 C.ar  224  PHE224     -0.0003
    147  CZ       -40.6350   15.1010  -34.9660 C.ar  224  PHE224     -0.0000
    148  N        -36.9380   13.4470  -39.2670 N.am  225  PHE225     -0.1974
    149  CA       -35.8320   14.2990  -39.6710 C.3   225  PHE225      0.1639
    150  C        -35.1560   13.6350  -40.8740 C.2   225  PHE225      0.2290
    151  O        -34.4560   14.2940  -41.6440 O.2   225  PHE225     -0.2864
    152  CB       -34.8450   14.5010  -38.5250 C.3   225  PHE225      0.0560
    153  CG       -35.3150   15.4910  -37.5050 C.ar  225  PHE225     -0.0200
    154  CD1      -35.6690   15.0780  -36.2220 C.ar  225  PHE225     -0.0042
    155  CD2      -35.4270   16.8450  -37.8340 C.ar  225  PHE225     -0.0042
    156  CE1      -36.1290   15.9990  -35.2760 C.ar  225  PHE225     -0.0003
    157  CE2      -35.8860   17.7750  -36.9020 C.ar  225  PHE225     -0.0003
    158  CZ       -36.2390   17.3500  -35.6170 C.ar  225  PHE225     -0.0000
    159  N        -49.4690   16.9440  -36.9260 N.3   238  SER238     -0.1202
    160  CA       -50.4090   17.2660  -35.8650 C.3   238  SER238      0.2020
    161  C        -49.7580   17.5010  -34.5060 C.2   238  SER238      0.2619
    162  O        -49.3180   16.5590  -33.8520 O.2   238  SER238     -0.2717
    163  CB       -51.4320   16.1380  -35.7660 C.3   238  SER238      0.2103
    164  OG       -52.2660   16.2880  -34.6410 O.3   238  SER238     -0.2182
    165  N        -49.7150   18.7670  -34.0870 N.am  239  ALA239     -0.1965
    166  CA       -49.1340   19.1630  -32.8030 C.3   239  ALA239      0.1728
    167  C        -47.6810   18.7140  -32.7160 C.2   239  ALA239      0.2616
    168  O        -47.2370   18.1690  -31.7000 O.2   239  ALA239     -0.2715
    169  CB       -49.9500   18.5690  -31.6500 C.3   239  ALA239      0.0334
    170  N        -46.9510   18.9560  -33.8010 N.am  240  VAL240     -0.1977
    171  CA       -45.5420   18.6000  -33.8980 C.3   240  VAL240      0.1596
    172  C        -44.6480   19.8340  -33.9640 C.2   240  VAL240      0.2287
    173  O        -43.7350   20.0000  -33.1480 O.2   240  VAL240     -0.2864
    174  CB       -45.2690   17.7340  -35.1650 C.3   240  VAL240      0.0276
    175  CG1      -43.7640   17.5490  -35.3750 C.3   240  VAL240      0.0022
    176  CG2      -45.9560   16.3740  -35.0270 C.3   240  VAL240      0.0022
    177  N        -43.3460   21.7890  -31.0450 N.3   243  ASP243     -0.1225
    178  CA       -42.4260   21.1230  -30.1310 C.3   243  ASP243      0.1805
    179  C        -40.9840   21.4260  -30.5150 C.2   243  ASP243      0.2597
    180  O        -40.0690   21.0320  -29.8020 O.2   243  ASP243     -0.2718
    181  CB       -42.5870   19.6030  -30.1810 C.3   243  ASP243      0.1424
    182  CG       -43.9400   19.1280  -29.7000 C.2   243  ASP243      0.3668
    183  OD1      -44.6080   19.8770  -28.9660 O.co2 243  ASP243     -0.2456
    184  OD2      -44.3290   17.9850  -30.0380 O.co2 243  ASP243     -0.2456
    185  N        -40.7820   22.1160  -31.6370 N.am  244  TRP244     -0.1976
    186  CA       -39.4390   22.4040  -32.1350 C.3   244  TRP244      0.1640
    187  C        -39.1190   23.8560  -32.4220 C.2   244  TRP244      0.2290
    188  O        -40.0020   24.6300  -32.7860 O.2   244  TRP244     -0.2864
    189  CB       -39.1860   21.6160  -33.4310 C.3   244  TRP244      0.0576
    190  CG       -39.4140   20.1620  -33.2870 C.ar  244  TRP244      0.0006
    191  CD1      -40.5960   19.4950  -33.4540 C.ar  244  TRP244      0.0946
    192  CD2      -38.4680   19.1990  -32.8220 C.ar  244  TRP244      0.0152
    193  NE1      -40.4410   18.1750  -33.1110 N.ar  244  TRP244     -0.2442
    194  CE2      -39.1450   17.9640  -32.7190 C.ar  244  TRP244      0.0810
    195  CE3      -37.1100   19.2600  -32.4760 C.ar  244  TRP244      0.0012
    196  CZ2      -38.5120   16.7950  -32.2820 C.ar  244  TRP244      0.0191
    197  CZ3      -36.4780   18.0980  -32.0410 C.ar  244  TRP244      0.0001
    198  CH2      -37.1830   16.8800  -31.9470 C.ar  244  TRP244      0.0015
@<TRIPOS>BOND
     1   151   150    2
     2    68    69    1
     3   150   149    1
     4   140   139    2
     5    69    70    1
     6    69    72    1
     7   103   101    1
     8   101   100    1
     9   101   102    1
    10   100    97    1
    11   139   138    1
    12   139   148   am
    13   149   148    1
    14   149   152    1
    15   134   133    2
    16    70    71    2
    17   138   141    1
    18   138   137    1
    19    72    73    1
    20   141   142    1
    21    96    97    1
    22    97    98    1
    23   152   153    1
    24   133   137   am
    25   133   132    1
    26    74    73   ar
    27    73    75   ar
    28   128   129    1
    29   128   127    1
    30   155   153   ar
    31   155   157   ar
    32   131   129   am
    33   131   132    1
    34   129   130    2
    35   142   143   ar
    36   142   144   ar
    37   153   154   ar
    38    98    99    2
    39    98   104   am
    40   132   135    1
    41    91    90    2
    42    95    93    1
    43    76    77    1
    44   136   135    1
    45   143   145   ar
    46    93    94    1
    47    93    92    1
    48   159   160    1
    49   157   158   ar
    50    90    89    1
    51   144   146   ar
    52   104   105    1
    53   154   156   ar
    54    92    89    1
    55    80    81    1
    56    80    78   am
    57   160   163    1
    58   160   161    1
    59    77    78    1
    60   163   164    1
    61   145   147   ar
    62   158   156   ar
    63    89    88    1
    64    81    82    1
    65   146   147   ar
    66   175   174    1
    67   105   106    1
    68   105   108    1
    69   107   106    2
    70    78    79    2
    71   174   176    1
    72   174   171    1
    73   106   112   am
    74   161   165   am
    75   161   162    2
    76   108   109    1
    77    82    83    2
    78    82    84   am
    79   165   166    1
    80   172   171    1
    81   172   173    2
    82   171   170    1
    83   170   167   am
    84   112   113    1
    85   111   109   ar
    86   191   190   ar
    87   191   193   ar
    88   189   190    1
    89   189   186    1
    90   109   110   ar
    91   190   192   ar
    92    84    85    1
    93   193   194   ar
    94    87    86    2
    95   113   114    1
    96   113   116    1
    97   119   117    1
    98   192   194   ar
    99   192   195   ar
   100   166   167    1
   101   166   169    1
   102   188   187    2
   103   194   196   ar
   104   167   168    2
   105   115   114    2
   106   195   197   ar
   107   187   186    1
   108   196   198   ar
   109   186   185    1
   110    86    85    1
   111   197   198   ar
   112    67    65    1
   113   117   116    1
   114   117   118    1
   115   185   179   am
   116   123   122    2
   117   122   121    1
   118    66    65    1
   119   177   178    1
   120    65    64    1
   121   124   121    1
   122   124   125    1
   123   179   178    1
   124   179   180    2
   125    64    61    1
   126    63    62    2
   127   121   120    1
   128   181   178    1
   129   181   182    1
   130    59    58   ar
   131    59    57   ar
   132   184   182   ar
   133    58    56   ar
   134    61    62    1
   135    61    60    1
   136   120   126    1
   137   182   183   ar
   138   126   125    1
   139    57    55   ar
   140     9     7   ar
   141     9    10   ar
   142    56    55   ar
   143     7     6   ar
   144    12    10   ar
   145    12    14   ar
   146    60    52   am
   147    10     8   ar
   148    53    52    2
   149    45    44    2
   150    14    13   ar
   151    55    54    1
   152     6     8   ar
   153     6     5    1
   154     8    11   ar
   155    52    51    1
   156    40    39   ar
   157    46    47    1
   158    46    43    1
   159     5     2    1
   160    13    11   ar
   161    44    43    1
   162    47    48    1
   163    48    49    1
   164    39    41   ar
   165    39    38    1
   166    43    42    1
   167    54    51    1
   168    51    50    1
   169    32    33   ar
   170    32    30   ar
   171    37    36    2
   172    38    35    1
   173     2     3    1
   174     2     1    1
   175    35    36    1
   176    35    34    1
   177     4     3    2
   178    33    31   ar
   179    30    28   ar
   180    34    25   am
   181    26    25    2
   182    21    20    1
   183    31    29   ar
   184    28    29   ar
   185    28    27    1
   186    25    24    1
   187    19    20    1
   188    19    16    1
   189    17    18    2
   190    17    16    1
   191    27    24    1
   192    20    22    1
   193    24    23    1
   194    16    15    1
