@<TRIPOS>MOLECULE
tmp/3i58A01.pdb
 139 135 0 0 0
SMALL
GASTEIGER

@<TRIPOS>ATOM
      1  N        -53.5290   14.4810  -16.2040 N.3    92  TRP92      -0.1241
      2  CA       -52.6420   15.5390  -16.6810 C.3    92  TRP92       0.1605
      3  C        -51.8090   16.1470  -15.5460 C.2    92  TRP92       0.2264
      4  O        -50.7320   16.7020  -15.7850 O.2    92  TRP92      -0.2867
      5  CB       -53.4340   16.6520  -17.3640 C.3    92  TRP92       0.0550
      6  CG       -53.9390   16.2880  -18.7210 C.ar   92  TRP92       0.0003
      7  CD1      -55.0980   15.6400  -19.0140 C.ar   92  TRP92       0.0946
      8  CD2      -53.2890   16.5370  -19.9770 C.ar   92  TRP92       0.0152
      9  NE1      -55.2150   15.4680  -20.3730 N.ar   92  TRP92      -0.2442
     10  CE2      -54.1190   16.0080  -20.9890 C.ar   92  TRP92       0.0810
     11  CE3      -52.0830   17.1540  -20.3450 C.ar   92  TRP92       0.0012
     12  CZ2      -53.7860   16.0760  -22.3490 C.ar   92  TRP92       0.0191
     13  CZ3      -51.7520   17.2200  -21.7000 C.ar   92  TRP92       0.0001
     14  CH2      -52.6040   16.6840  -22.6830 C.ar   92  TRP92       0.0015
     15  N        -46.6660   14.6070  -18.8450 N.3    99  VAL99      -0.1245
     16  CA       -46.9950   16.0200  -18.7000 C.3    99  VAL99       0.1561
     17  C        -46.9620   16.5100  -17.2450 C.2    99  VAL99       0.2260
     18  O        -46.5550   17.6300  -16.9740 O.2    99  VAL99      -0.2867
     19  CB       -48.3780   16.3280  -19.3300 C.3    99  VAL99       0.0252
     20  CG1      -48.8100   17.7530  -19.0070 C.3    99  VAL99       0.0019
     21  CG2      -48.2950   16.1450  -20.8280 C.3    99  VAL99       0.0019
     22  N        -47.4880    9.4810  -22.1030 N.3   142  PHE142     -0.1241
     23  CA       -47.5190   10.5990  -23.0260 C.3   142  PHE142      0.1605
     24  C        -48.4560   10.2610  -24.1980 C.2   142  PHE142      0.2264
     25  O        -49.2680   11.0880  -24.6020 O.2   142  PHE142     -0.2867
     26  CB       -46.1090   10.9390  -23.5300 C.3   142  PHE142      0.0534
     27  CG       -46.0430   12.2390  -24.2900 C.ar  142  PHE142     -0.0203
     28  CD1      -46.4440   13.4310  -23.6880 C.ar  142  PHE142     -0.0042
     29  CD2      -45.6600   12.2640  -25.6200 C.ar  142  PHE142     -0.0042
     30  CE1      -46.4700   14.6240  -24.4000 C.ar  142  PHE142     -0.0003
     31  CE2      -45.6830   13.4520  -26.3430 C.ar  142  PHE142     -0.0003
     32  CZ       -46.0930   14.6370  -25.7270 C.ar  142  PHE142     -0.0000
     33  N        -51.7010   12.5980  -25.3730 N.3   146  MET146     -0.1245
     34  CA       -51.8950   13.2300  -26.6690 C.3   146  MET146      0.1570
     35  C        -53.1480   12.6570  -27.2980 C.2   146  MET146      0.2261
     36  O        -53.8510   13.3330  -28.0470 O.2   146  MET146     -0.2867
     37  CB       -50.6950   12.9930  -27.5840 C.3   146  MET146      0.0387
     38  CG       -49.4040   13.6390  -27.1020 C.3   146  MET146      0.0595
     39  SD       -49.5550   15.4250  -26.9620 S.3   146  MET146     -0.1393
     40  CE       -49.8310   15.5440  -25.2100 C.3   146  MET146      0.0692
     41  N        -55.8470   14.6610  -25.8910 N.3   149  HIS149     -0.1241
     42  CA       -55.8340   16.0090  -26.4440 C.3   149  HIS149      0.1621
     43  C        -56.6110   16.0640  -27.7700 C.2   149  HIS149      0.2264
     44  O        -57.2070   17.0860  -28.1090 O.2   149  HIS149     -0.2867
     45  CB       -54.3700   16.4800  -26.5990 C.3   149  HIS149      0.0745
     46  CG       -53.9460   16.7770  -28.0090 C.ar  149  HIS149      0.0817
     47  ND1      -54.2440   17.9630  -28.6450 N.ar  149  HIS149     -0.2268
     48  CD2      -53.2320   16.0450  -28.8990 C.ar  149  HIS149      0.1154
     49  CE1      -53.7330   17.9480  -29.8650 C.ar  149  HIS149      0.1986
     50  NE2      -53.1140   16.7950  -30.0440 N.ar  149  HIS149     -0.2212
     51  N        -60.2290   16.4100  -26.9940 N.3   152  LEU152     -0.1231
     52  CA       -60.3510   17.7530  -26.4580 C.3   152  LEU152      0.1693
     53  C        -60.3500   18.8430  -27.5230 C.2   152  LEU152      0.2592
     54  O        -61.2400   19.6950  -27.5350 O.2   152  LEU152     -0.2718
     55  CB       -59.2000   18.0230  -25.4830 C.3   152  LEU152      0.0284
     56  CG       -59.3460   17.8200  -23.9670 C.3   152  LEU152      0.0019
     57  CD1      -60.4950   16.8830  -23.6320 C.3   152  LEU152      0.0001
     58  CD2      -58.0290   17.2900  -23.4130 C.3   152  LEU152      0.0001
     59  N        -59.3770   18.8030  -28.4350 N.am  153  ASP153     -0.1974
     60  CA       -59.2400   19.8630  -29.4330 C.3   153  ASP153      0.1709
     61  C        -59.6750   19.6260  -30.8720 C.2   153  ASP153      0.2293
     62  O        -60.0660   20.5690  -31.5620 O.2   153  ASP153     -0.2864
     63  CB       -57.7760   20.3510  -29.4720 C.3   153  ASP153      0.1436
     64  CG       -57.1600   20.5200  -28.0840 C.2   153  ASP153      0.3671
     65  OD1      -57.8100   21.1210  -27.2060 O.co2 153  ASP153     -0.2456
     66  OD2      -56.0140   20.0610  -27.8700 O.co2 153  ASP153     -0.2456
     67  N        -49.7150   18.7670  -34.0870 N.3   239  ALA239     -0.1245
     68  CA       -49.1340   19.1630  -32.8030 C.3   239  ALA239      0.1562
     69  C        -47.6810   18.7140  -32.7160 C.2   239  ALA239      0.2260
     70  O        -47.2370   18.1690  -31.7000 O.2   239  ALA239     -0.2867
     71  CB       -49.9500   18.5690  -31.6500 C.3   239  ALA239      0.0290
     72  N        -44.8970   22.8710  -33.0290 N.3   242  HIS242     -0.1226
     73  CA       -44.6920   23.6780  -31.8380 C.3   242  HIS242      0.1752
     74  C        -43.7450   23.0360  -30.8140 C.2   242  HIS242      0.2596
     75  O        -43.3640   23.6670  -29.8390 O.2   242  HIS242     -0.2718
     76  CB       -46.0390   24.0570  -31.2150 C.3   242  HIS242      0.0759
     77  CG       -46.7990   22.9090  -30.6330 C.ar  242  HIS242      0.0818
     78  ND1      -48.1720   22.9250  -30.5000 N.ar  242  HIS242     -0.2268
     79  CD2      -46.3820   21.7510  -30.0710 C.ar  242  HIS242      0.1154
     80  CE1      -48.5670   21.8300  -29.8750 C.ar  242  HIS242      0.1986
     81  NE2      -47.4990   21.1010  -29.6030 N.ar  242  HIS242     -0.2212
     82  N        -43.3460   21.7890  -31.0450 N.am  243  ASP243     -0.1974
     83  CA       -42.4260   21.1230  -30.1310 C.3   243  ASP243      0.1709
     84  C        -40.9840   21.4260  -30.5150 C.2   243  ASP243      0.2293
     85  O        -40.0690   21.0320  -29.8020 O.2   243  ASP243     -0.2864
     86  CB       -42.5870   19.6030  -30.1810 C.3   243  ASP243      0.1436
     87  CG       -43.9400   19.1280  -29.7000 C.2   243  ASP243      0.3671
     88  OD1      -44.6080   19.8770  -28.9660 O.co2 243  ASP243     -0.2456
     89  OD2      -44.3290   17.9850  -30.0380 O.co2 243  ASP243     -0.2456
     90  N        -49.3820   28.1110  -22.8690 N.3   282  MET282     -0.1245
     91  CA       -48.9280   26.9830  -23.6690 C.3   282  MET282      0.1570
     92  C        -47.6100   27.3130  -24.3460 C.2   282  MET282      0.2261
     93  O        -46.7310   26.4660  -24.4640 O.2   282  MET282     -0.2867
     94  CB       -49.9620   26.6140  -24.7360 C.3   282  MET282      0.0387
     95  CG       -49.6050   25.3420  -25.5110 C.3   282  MET282      0.0595
     96  SD       -49.5600   23.7990  -24.4970 S.3   282  MET282     -0.1393
     97  CE       -50.5830   22.7300  -25.5250 C.3   282  MET282      0.0692
     98  N        -44.8430   26.6310  -22.0740 N.3   285  ARG285     -0.1231
     99  CA       -44.6470   25.2110  -21.8230 C.3   285  ARG285      0.1694
    100  C        -43.7730   24.6420  -22.9480 C.2   285  ARG285      0.2591
    101  O        -42.8450   23.8840  -22.6920 O.2   285  ARG285     -0.2718
    102  CB       -45.9880   24.4850  -21.7560 C.3   285  ARG285      0.0321
    103  CG       -45.8680   22.9600  -21.5980 C.3   285  ARG285      0.0489
    104  CD       -46.9150   22.4130  -20.6370 C.3   285  ARG285      0.2205
    105  NE       -48.2080   23.0170  -20.9080 N.pl3 285  ARG285     -0.0865
    106  CZ       -49.1680   23.1520  -20.0070 C.cat 285  ARG285      0.5346
    107  NH1      -48.9860   22.7150  -18.7660 N.pl3 285  ARG285      0.1354
    108  NH2      -50.3020   23.7540  -20.3460 N.pl3 285  ARG285      0.1354
    109  N        -44.0550   25.0270  -24.1900 N.am  286  MET286     -0.1979
    110  CA       -43.2610   24.5620  -25.3260 C.3   286  MET286      0.1605
    111  C        -41.8070   25.0030  -25.1700 C.2   286  MET286      0.2287
    112  O        -40.8770   24.2740  -25.5320 O.2   286  MET286     -0.2864
    113  CB       -43.8270   25.1100  -26.6360 C.3   286  MET286      0.0413
    114  CG       -45.1960   24.5540  -26.9990 C.3   286  MET286      0.0598
    115  SD       -45.2000   22.7420  -27.0670 S.3   286  MET286     -0.1393
    116  CE       -46.2180   22.3370  -25.6510 C.3   286  MET286      0.0692
    117  N        -40.2920   22.9180  -22.1580 N.3   289  TYR289     -0.1227
    118  CA       -40.1830   21.4950  -22.5050 C.3   289  TYR289      0.1736
    119  C        -39.1310   21.2140  -23.5660 C.2   289  TYR289      0.2595
    120  O        -38.2180   20.4210  -23.3460 O.2   289  TYR289     -0.2718
    121  CB       -41.5000   20.9380  -23.0430 C.3   289  TYR289      0.0548
    122  CG       -42.4730   20.4260  -22.0150 C.ar  289  TYR289     -0.0200
    123  CD1      -42.9040   21.2360  -20.9700 C.ar  289  TYR289     -0.0009
    124  CD2      -43.0300   19.1560  -22.1320 C.ar  289  TYR289     -0.0009
    125  CE1      -43.8710   20.8000  -20.0710 C.ar  289  TYR289      0.0417
    126  CE2      -44.0040   18.7090  -21.2340 C.ar  289  TYR289      0.0417
    127  CZ       -44.4180   19.5420  -20.2090 C.ar  289  TYR289      0.1957
    128  OH       -45.3890   19.1360  -19.3300 O.3   289  TYR289     -0.2866
    129  N        -39.2630   21.8310  -24.7350 N.am  290  PHE290     -0.1976
    130  CA       -38.2930   21.5480  -25.7870 C.3   290  PHE290      0.1639
    131  C        -37.7100   22.7440  -26.5040 C.2   290  PHE290      0.2290
    132  O        -36.9730   22.5780  -27.4680 O.2   290  PHE290     -0.2864
    133  CB       -38.8710   20.6010  -26.8570 C.3   290  PHE290      0.0560
    134  CG       -40.2370   20.0470  -26.5470 C.ar  290  PHE290     -0.0200
    135  CD1      -41.3660   20.8440  -26.6490 C.ar  290  PHE290     -0.0042
    136  CD2      -40.3930   18.7110  -26.1910 C.ar  290  PHE290     -0.0042
    137  CE1      -42.6340   20.3170  -26.4010 C.ar  290  PHE290     -0.0003
    138  CE2      -41.6560   18.1720  -25.9420 C.ar  290  PHE290     -0.0003
    139  CZ       -42.7770   18.9720  -26.0470 C.ar  290  PHE290     -0.0000
@<TRIPOS>BOND
     1    67    68    1
     2    72    73    1
     3    68    69    1
     4    68    71    1
     5    69    70    2
     6    73    76    1
     7    73    74    1
     8    62    61    2
     9    76    77    1
    10    82    74   am
    11    82    83    1
    12    61    60    1
    13    74    75    2
    14    77    78   ar
    15    77    79   ar
    16    84    83    1
    17    84    85    2
    18    78    80   ar
    19    86    83    1
    20    86    87    1
    21    79    81   ar
    22    50    49   ar
    23    50    48   ar
    24    89    87   ar
    25    80    81   ar
    26    49    47   ar
    27    87    88   ar
    28    63    60    1
    29    63    64    1
    30    60    59    1
    31    48    46   ar
    32    47    46   ar
    33    59    53   am
    34    44    43    2
    35    64    66   ar
    36    64    65   ar
    37    36    35    2
    38    46    45    1
    39    43    42    1
    40    37    38    1
    41    37    34    1
    42    54    53    2
    43    53    52    1
    44   132   131    2
    45    35    34    1
    46    38    39    1
    47   115   114    1
    48   115   116    1
    49   114   113    1
    50    51    52    1
    51    39    40    1
    52   133   134    1
    53   133   130    1
    54    34    33    1
    55   135   134   ar
    56   135   137   ar
    57   113   110    1
    58    45    42    1
    59   134   136   ar
    60   131   130    1
    61    52    55    1
    62    42    41    1
    63   137   139   ar
    64    31    32   ar
    65    31    29   ar
    66   136   138   ar
    67   139   138   ar
    68   130   129    1
    69    32    30   ar
    70    29    27   ar
    71   112   111    2
    72    97    96    1
    73    95    94    1
    74    95    96    1
    75    55    56    1
    76   110   111    1
    77   110   109    1
    78    94    91    1
    79   129   119   am
    80    25    24    2
    81    93    92    2
    82    30    28   ar
    83    92    91    1
    84    27    28   ar
    85    27    26    1
    86    24    23    1
    87   109   100   am
    88    56    57    1
    89    56    58    1
    90    91    90    1
    91   119   120    2
    92   119   118    1
    93    26    23    1
    94   121   118    1
    95   121   122    1
    96    23    22    1
    97   100   101    2
    98   100    99    1
    99    14    12   ar
   100    14    13   ar
   101   118   117    1
   102    12    10   ar
   103   124   122   ar
   104   124   126   ar
   105    98    99    1
   106   122   123   ar
   107    99   102    1
   108   102   103    1
   109    13    11   ar
   110   103   104    1
   111   126   127   ar
   112    10     9   ar
   113    10     8   ar
   114   123   125   ar
   115   105   104    1
   116   105   106    2
   117    21    19    1
   118     9     7   ar
   119   108   106    1
   120    11     8   ar
   121   127   125   ar
   122   127   128    1
   123   106   107    1
   124     8     6   ar
   125    19    20    1
   126    19    16    1
   127     7     6   ar
   128    15    16    1
   129     6     5    1
   130    16    17    1
   131     5     2    1
   132    17    18    2
   133     2     1    1
   134     2     3    1
   135     4     3    2
