@<TRIPOS>MOLECULE
tmp/3i59A00.pdb
 189 181 0 0 0
SMALL
GASTEIGER

@<TRIPOS>ATOM
      1  N          5.9150   12.4650  -13.7990 N.3    32  PHE32      -0.1241
      2  CA         7.0540   12.8580  -14.6100 C.3    32  PHE32       0.1605
      3  C          7.0210   14.3700  -14.7580 C.2    32  PHE32       0.2264
      4  O          5.9850   14.9990  -14.5360 O.2    32  PHE32      -0.2867
      5  CB         7.0330   12.1790  -15.9930 C.3    32  PHE32       0.0534
      6  CG         5.6850   12.2360  -16.6990 C.ar   32  PHE32      -0.0203
      7  CD1        5.1750   13.4400  -17.1790 C.ar   32  PHE32      -0.0042
      8  CD2        4.9520   11.0790  -16.9070 C.ar   32  PHE32      -0.0042
      9  CE1        3.9450   13.4790  -17.8600 C.ar   32  PHE32      -0.0003
     10  CE2        3.7100   11.1120  -17.5750 C.ar   32  PHE32      -0.0003
     11  CZ         3.2080   12.3070  -18.0460 C.ar   32  PHE32      -0.0000
     12  N         -2.1360   18.3620  -14.9170 N.3    51  ILE51      -0.1245
     13  CA        -1.2150   18.4630  -16.0250 C.3    51  ILE51       0.1561
     14  C         -0.7770   19.9130  -16.1180 C.2    51  ILE51       0.2260
     15  O         -1.5950   20.7970  -16.3280 O.2    51  ILE51      -0.2867
     16  CB        -1.9230   18.0470  -17.3260 C.3    51  ILE51       0.0252
     17  CG1       -2.5040   16.6330  -17.1790 C.3    51  ILE51       0.0019
     18  CG2       -0.9640   18.1140  -18.5240 C.3    51  ILE51       0.0019
     19  CD1       -1.4220   15.5230  -17.1090 C.3    51  ILE51       0.0001
     20  N          2.1010   23.0860  -17.3370 N.3    53  ARG53      -0.1245
     21  CA         3.1190   23.5700  -18.2420 C.3    53  ARG53       0.1563
     22  C          3.7130   24.8540  -17.7050 C.2    53  ARG53       0.2260
     23  O          3.0020   25.8230  -17.4650 O.2    53  ARG53      -0.2867
     24  CB         2.5330   23.8010  -19.6330 C.3    53  ARG53       0.0307
     25  CG         3.5370   23.5520  -20.7370 C.3    53  ARG53       0.0489
     26  CD         2.8780   23.3470  -22.0940 C.3    53  ARG53       0.2205
     27  NE         3.7770   22.6510  -23.0140 N.pl3  53  ARG53      -0.0865
     28  CZ         4.9650   23.1110  -23.4030 C.cat  53  ARG53       0.5346
     29  NH1        5.7120   22.4000  -24.2400 N.pl3  53  ARG53       0.1354
     30  NH2        5.4100   24.2790  -22.9550 N.pl3  53  ARG53       0.1354
     31  N         -1.9250   25.3340  -15.1740 N.3    60  LEU60      -0.1231
     32  CA        -2.5050   24.0110  -15.3040 C.3    60  LEU60       0.1693
     33  C         -3.3550   23.9490  -16.5580 C.2    60  LEU60       0.2592
     34  O         -4.0870   24.8980  -16.8700 O.2    60  LEU60      -0.2718
     35  CB        -3.3640   23.6940  -14.0810 C.3    60  LEU60       0.0284
     36  CG        -2.5580   23.5020  -12.7970 C.3    60  LEU60       0.0019
     37  CD1       -3.4390   22.9580  -11.6720 C.3    60  LEU60       0.0001
     38  CD2       -1.3810   22.5870  -13.0490 C.3    60  LEU60       0.0001
     39  N         -3.2770   22.8370  -17.2790 N.am   61  LEU61      -0.1966
     40  CA        -3.9950   22.7390  -18.5410 C.3    61  LEU61       0.1728
     41  C         -5.2110   21.8810  -18.3480 C.2    61  LEU61       0.2616
     42  O         -6.2610   22.1560  -18.9200 O.2    61  LEU61      -0.2715
     43  CB        -3.1070   22.1570  -19.6420 C.3    61  LEU61       0.0311
     44  CG        -1.7390   22.8160  -19.7650 C.3    61  LEU61       0.0022
     45  CD1       -0.9530   22.1480  -20.8660 C.3    61  LEU61       0.0001
     46  CD2       -1.9000   24.3010  -20.0440 C.3    61  LEU61       0.0001
     47  N         -5.0800   20.8290  -17.5440 N.am   62  THR62      -0.1951
     48  CA        -6.2340   19.9980  -17.2670 C.3    62  THR62       0.1897
     49  C         -6.0270   19.0910  -16.0630 C.2    62  THR62       0.2313
     50  O         -4.9120   18.9110  -15.5880 O.2    62  THR62      -0.2863
     51  CB        -6.6090   19.1270  -18.4920 C.3    62  THR62       0.1794
     52  OG1       -7.8550   18.4600  -18.2440 O.3    62  THR62      -0.2208
     53  CG2       -5.5330   18.0960  -18.7660 C.3    62  THR62       0.0378
     54  N         -2.8960    9.7510  -19.7810 N.3    69  PHE69      -0.1227
     55  CA        -1.9590   10.8450  -19.9630 C.3    69  PHE69       0.1736
     56  C         -0.5460   10.3270  -20.2500 C.2    69  PHE69       0.2596
     57  O         -0.2280    9.1780  -19.9430 O.2    69  PHE69      -0.2718
     58  CB        -1.9510   11.7520  -18.7300 C.3    69  PHE69       0.0547
     59  CG        -1.3740   11.1090  -17.5130 C.ar   69  PHE69      -0.0202
     60  CD1       -2.1800   10.3750  -16.6490 C.ar   69  PHE69      -0.0042
     61  CD2       -0.0290   11.2540  -17.2190 C.ar   69  PHE69      -0.0042
     62  CE1       -1.6530    9.7910  -15.4970 C.ar   69  PHE69      -0.0003
     63  CE2        0.5140   10.6730  -16.0720 C.ar   69  PHE69      -0.0003
     64  CZ        -0.3030    9.9400  -15.2080 C.ar   69  PHE69      -0.0000
     65  N          0.2930   11.1890  -20.8220 N.am   70  GLY70      -0.1942
     66  CA         1.6320   10.8050  -21.2500 C.3    70  GLY70       0.2014
     67  C          1.7220   10.0130  -22.5560 C.2    70  GLY70       0.2639
     68  O          2.7170    9.3310  -22.7970 O.2    70  GLY70      -0.2714
     69  N          0.7050   10.1060  -23.4110 N.am   71  GLU71      -0.1963
     70  CA         0.6810    9.3440  -24.6630 C.3    71  GLU71       0.1733
     71  C          1.3570   10.0910  -25.7950 C.2    71  GLU71       0.2616
     72  O          1.7390    9.5010  -26.7920 O.2    71  GLU71      -0.2715
     73  CB        -0.7520    9.0150  -25.0730 C.3    71  GLU71       0.0429
     74  CG        -1.5260   10.2170  -25.6480 C.3    71  GLU71       0.1163
     75  CD        -1.8610   11.2790  -24.5890 C.2    71  GLU71       0.3649
     76  OE1       -2.1040   10.9150  -23.4200 O.co2  71  GLU71      -0.2457
     77  OE2       -1.8680   12.4820  -24.9320 O.co2  71  GLU71      -0.2457
     78  N          1.5190   11.3960  -25.6360 N.am   72  LEU72      -0.1963
     79  CA         2.1980   12.1780  -26.6620 C.3    72  LEU72       0.1728
     80  C          3.6050   11.6610  -26.9700 C.2    72  LEU72       0.2616
     81  O          3.9090   11.3850  -28.1290 O.2    72  LEU72      -0.2715
     82  CB         2.2230   13.6570  -26.3010 C.3    72  LEU72       0.0311
     83  CG         0.8510   14.3040  -26.1750 C.3    72  LEU72       0.0022
     84  CD1        1.0060   15.8060  -26.1960 C.3    72  LEU72       0.0001
     85  CD2       -0.1060   13.8730  -27.2950 C.3    72  LEU72       0.0001
     86  N          4.4590   11.5130  -25.9580 N.am   73  SER73      -0.1950
     87  CA         5.8200   11.0630  -26.2420 C.3    73  SER73       0.1924
     88  C          5.9190    9.6010  -26.6820 C.2    73  SER73       0.2314
     89  O          6.9550    9.1690  -27.1830 O.2    73  SER73      -0.2863
     90  CB         6.8200   11.3820  -25.1170 C.3    73  SER73       0.2116
     91  OG         6.1900   11.8150  -23.9330 O.3    73  SER73      -0.2180
     92  N         10.2750   14.7790  -25.7600 N.3    79  PRO79      -0.2102
     93  CA        10.2480   14.9540  -24.3030 C.3    79  PRO79       0.1504
     94  C          8.8110   15.2260  -23.8470 C.2    79  PRO79       0.2576
     95  O          8.0010   15.5980  -24.6890 O.2    79  PRO79      -0.2718
     96  CB        11.1220   16.1960  -24.0720 C.3    79  PRO79       0.0282
     97  CG        11.5970   16.6490  -25.4670 C.3    79  PRO79       0.0208
     98  CD        10.7140   15.9970  -26.4610 C.3    79  PRO79       0.0893
     99  N          8.5110   15.0460  -22.5570 N.am   80  ARG80      -0.1966
    100  CA         7.1610   15.2740  -22.0470 C.3    80  ARG80       0.1729
    101  C          6.8260   16.7200  -22.3440 C.2    80  ARG80       0.2617
    102  O          7.6460   17.5930  -22.0930 O.2    80  ARG80      -0.2715
    103  CB         7.0850   15.0380  -20.5290 C.3    80  ARG80       0.0348
    104  CG         7.4480   13.6430  -20.0520 C.3    80  ARG80       0.0492
    105  CD         6.5830   12.5820  -20.6710 C.3    80  ARG80       0.2205
    106  NE         6.7180   11.2860  -20.0100 N.pl3  80  ARG80      -0.0865
    107  CZ         5.9720   10.2080  -20.2840 C.cat  80  ARG80       0.5346
    108  NH1        6.1620    9.0790  -19.6140 N.pl3  80  ARG80       0.1354
    109  NH2        5.0390   10.2460  -21.2290 N.pl3  80  ARG80       0.1354
    110  N          5.6330   16.9680  -22.8790 N.am   81  THR81      -0.1937
    111  CA         5.1950   18.3300  -23.2080 C.3    81  THR81       0.2028
    112  C          4.6460   19.0490  -21.9850 C.2    81  THR81       0.2643
    113  O          4.2650   20.2200  -22.0740 O.2    81  THR81      -0.2714
    114  CB         4.0640   18.3380  -24.2400 C.3    81  THR81       0.1808
    115  OG1        2.9400   17.6150  -23.7040 O.3    81  THR81      -0.2208
    116  CG2        4.5130   17.6990  -25.5150 C.3    81  THR81       0.0379
    117  N          4.5610   18.3390  -20.8590 N.am   82  SER82      -0.1935
    118  CA         4.1920   18.9730  -19.6010 C.3    82  SER82       0.2055
    119  C          4.4700   18.0500  -18.4230 C.2    82  SER82       0.2643
    120  O          4.9450   16.9420  -18.6180 O.2    82  SER82      -0.2714
    121  CB         2.7260   19.4280  -19.6310 C.3    82  SER82       0.2130
    122  OG         1.8420   18.3560  -19.4120 O.3    82  SER82      -0.2179
    123  N          4.2030   18.5100  -17.2090 N.am   83  SER83      -0.1949
    124  CA         4.3400   17.6450  -16.0420 C.3    83  SER83       0.1924
    125  C          3.0120   17.0210  -15.6740 C.2    83  SER83       0.2314
    126  O          1.9520   17.5860  -15.9410 O.2    83  SER83      -0.2863
    127  CB         4.8590   18.4350  -14.8340 C.3    83  SER83       0.2116
    128  OG         6.0580   19.1130  -15.1650 O.3    83  SER83      -0.2180
    129  N         -9.0230   15.9570  -27.9440 N.3   121  ARG121     -0.1245
    130  CA        -8.1350   16.9250  -27.2970 C.3   121  ARG121      0.1563
    131  C         -7.8300   18.1000  -28.2140 C.2   121  ARG121      0.2260
    132  O         -7.7250   19.2300  -27.7610 O.2   121  ARG121     -0.2867
    133  CB        -6.8430   16.2700  -26.7910 C.3   121  ARG121      0.0307
    134  CG        -6.9020   15.9220  -25.3140 C.3   121  ARG121      0.0489
    135  CD        -5.9530   14.8130  -24.8910 C.3   121  ARG121      0.2205
    136  NE        -6.5580   14.0250  -23.8220 N.pl3 121  ARG121     -0.0865
    137  CZ        -5.9490   13.0630  -23.1410 C.cat 121  ARG121      0.5346
    138  NH1       -4.6790   12.7680  -23.3770 N.pl3 121  ARG121      0.1354
    139  NH2       -6.6190   12.4180  -22.1970 N.pl3 121  ARG121      0.1354
    140  N        -10.8260   20.3930  -28.5950 N.3   124  ARG124     -0.1231
    141  CA       -10.9920   21.1300  -27.3600 C.3   124  ARG124      0.1694
    142  C         -9.9180   22.1800  -27.1730 C.2   124  ARG124      0.2592
    143  O        -10.1600   23.2250  -26.5890 O.2   124  ARG124     -0.2718
    144  CB       -10.9470   20.1630  -26.1980 C.3   124  ARG124      0.0321
    145  CG       -11.7660   20.6000  -25.0550 C.3   124  ARG124      0.0489
    146  CD       -12.3180   19.3850  -24.3480 C.3   124  ARG124      0.2205
    147  NE       -11.2680   18.3920  -24.2450 N.pl3 124  ARG124     -0.0865
    148  CZ       -11.4510   17.2210  -23.6530 C.cat 124  ARG124      0.5346
    149  NH1      -12.6510   16.9350  -23.1240 N.pl3 124  ARG124      0.1354
    150  NH2      -10.4470   16.3370  -23.5770 N.pl3 124  ARG124      0.1354
    151  N         -8.7210   21.8730  -27.6560 N.am  125  THR125     -0.1953
    152  CA        -7.6000   22.7980  -27.6710 C.3   125  THR125      0.1897
    153  C         -7.9370   24.1390  -28.3240 C.2   125  THR125      0.2313
    154  O         -7.4940   25.1840  -27.8470 O.2   125  THR125     -0.2863
    155  CB        -6.4000   22.1950  -28.4100 C.3   125  THR125      0.1794
    156  OG1       -5.6980   21.2990  -27.5400 O.3   125  THR125     -0.2208
    157  CG2       -5.4570   23.2950  -28.8490 C.3   125  THR125      0.0378
    158  N        -10.4330   26.1500  -25.8000 N.3   128  ASN128     -0.1225
    159  CA        -9.7260   26.6490  -24.6190 C.3   128  ASN128      0.1785
    160  C         -8.7820   27.7960  -24.9630 C.2   128  ASN128      0.2597
    161  O         -8.6200   28.7410  -24.1900 O.2   128  ASN128     -0.2718
    162  CB        -8.9350   25.5280  -23.9390 C.3   128  ASN128      0.1169
    163  CG        -9.8030   24.6270  -23.0920 C.2   128  ASN128      0.2627
    164  OD1      -10.9100   24.9960  -22.6840 O.2   128  ASN128     -0.2716
    165  ND2       -9.3020   23.4340  -22.8200 N.am  128  ASN128     -0.0877
    166  N         -8.1580   27.6950  -26.1300 N.am  129  LEU129     -0.1980
    167  CA        -7.2310   28.7100  -26.5900 C.3   129  LEU129      0.1596
    168  C         -7.9790   29.9810  -27.0090 C.2   129  LEU129      0.2287
    169  O         -7.4950   31.0900  -26.7940 O.2   129  LEU129     -0.2864
    170  CB        -6.3970   28.1570  -27.7380 C.3   129  LEU129      0.0297
    171  CG        -4.9210   28.5450  -27.7510 C.3   129  LEU129      0.0022
    172  CD1       -4.0740   27.3000  -27.7030 C.3   129  LEU129      0.0001
    173  CD2       -4.5810   29.4120  -28.9750 C.3   129  LEU129      0.0001
    174  N         -8.8570   31.8980  -23.8780 N.3   132  LEU132     -0.1245
    175  CA        -7.7180   32.6500  -23.3750 C.3   132  LEU132      0.1561
    176  C         -7.4880   33.9450  -24.1320 C.2   132  LEU132      0.2260
    177  O         -6.8040   34.8400  -23.6470 O.2   132  LEU132     -0.2867
    178  CB        -6.4590   31.7940  -23.4280 C.3   132  LEU132      0.0270
    179  CG        -6.4420   30.6260  -22.4300 C.3   132  LEU132      0.0019
    180  CD1       -5.1050   29.8600  -22.5120 C.3   132  LEU132      0.0001
    181  CD2       -6.7220   31.1090  -21.0040 C.3   132  LEU132      0.0001
    182  N         -5.7690   27.0160  -13.3070 N.3   174  LEU174     -0.1245
    183  CA        -6.5390   26.3160  -14.3070 C.3   174  LEU174      0.1561
    184  C         -7.2490   27.3640  -15.1680 C.2   174  LEU174      0.2260
    185  O         -7.2540   27.2700  -16.3860 O.2   174  LEU174     -0.2867
    186  CB        -7.5360   25.4050  -13.6030 C.3   174  LEU174      0.0270
    187  CG        -7.8940   24.0340  -14.1620 C.3   174  LEU174      0.0019
    188  CD1       -6.7030   23.2820  -14.7350 C.3   174  LEU174      0.0001
    189  CD2       -8.5810   23.2320  -13.0630 C.3   174  LEU174      0.0001
@<TRIPOS>BOND
     1   173   171    1
     2   157   155    1
     3   140   141    1
     4   155   152    1
     5   155   156    1
     6   153   154    2
     7   153   152    1
     8   131   132    2
     9   131   130    1
    10    81    80    2
    11   129   130    1
    12   171   170    1
    13   171   172    1
    14   170   167    1
    15   152   151    1
    16   151   142   am
    17   141   142    1
    18   141   144    1
    19   130   133    1
    20    85    83    1
    21    89    88    2
    22   142   143    2
    23   168   169    2
    24   168   167    1
    25    80    79    1
    26    80    86   am
    27    72    71    2
    28   133   134    1
    29    88    87    1
    30    79    82    1
    31    79    78    1
    32   167   166    1
    33    98    92    1
    34    98    97    1
    35    82    83    1
    36    87    86    1
    37    87    90    1
    38   144   145    1
    39    84    83    1
    40   166   160   am
    41   158   159    1
    42    71    78   am
    43    71    70    1
    44    92    93    1
    45    74    73    1
    46    74    75    1
    47   116   114    1
    48    97    96    1
    49   134   135    1
    50    90    91    1
    51    73    70    1
    52   145   146    1
    53   160   159    1
    54   160   161    2
    55    77    75   ar
    56   135   136    1
    57    95    94    2
    58    70    69    1
    59   159   162    1
    60    75    76   ar
    61   146   147    1
    62    93    96    1
    63    93    94    1
    64   147   148    2
    65   114   115    1
    66   114   111    1
    67    29    28    1
    68   176   177    2
    69   176   175    1
    70   162   163    1
    71   174   175    1
    72    94    99   am
    73   136   137    2
    74   148   150    1
    75   148   149    1
    76   178   175    1
    77   178   179    1
    78    69    67   am
    79    28    27    2
    80    28    30    1
    81   138   137    1
    82   111   110    1
    83   111   112    1
    84   137   139    1
    85   163   165   am
    86   163   164    2
    87    27    26    1
    88   110   101   am
    89    68    67    2
    90    99   100    1
    91    67    66    1
    92   180   179    1
    93   179   181    1
    94   101   102    2
    95   101   100    1
    96    26    25    1
    97   113   112    2
    98   100   103    1
    99   112   117   am
   100    66    65    1
   101   109   107    1
   102    45    44    1
   103   117   118    1
   104    65    56   am
   105    25    24    1
   106   105   104    1
   107   105   106    1
   108   103   104    1
   109   107   106    2
   110   107   108    1
   111    56    55    1
   112    56    57    2
   113    46    44    1
   114    55    54    1
   115    55    58    1
   116    44    43    1
   117    43    40    1
   118    24    21    1
   119   121   118    1
   120   121   122    1
   121   118   119    1
   122    42    41    2
   123    53    51    1
   124    58    59    1
   125   120   119    2
   126    40    41    1
   127    40    39    1
   128    18    16    1
   129    51    52    1
   130    51    48    1
   131   119   123   am
   132    41    47   am
   133    21    22    1
   134    21    20    1
   135    11     9   ar
   136    11    10   ar
   137     9     7   ar
   138    22    23    2
   139    10     8   ar
   140    47    48    1
   141    59    61   ar
   142    59    60   ar
   143    16    17    1
   144    16    13    1
   145    39    33   am
   146    48    49    1
   147    61    63   ar
   148   123   124    1
   149     7     6   ar
   150    17    19    1
   151     8     6   ar
   152    34    33    2
   153     6     5    1
   154    60    62   ar
   155    33    32    1
   156   185   184    2
   157    15    14    2
   158    14    13    1
   159    63    64   ar
   160    49    50    2
   161   124   125    1
   162   124   127    1
   163    13    12    1
   164     5     2    1
   165   126   125    2
   166    62    64   ar
   167    32    31    1
   168    32    35    1
   169   184   183    1
   170   128   127    1
   171     3     2    1
   172     3     4    2
   173   188   187    1
   174     2     1    1
   175   183   186    1
   176   183   182    1
   177   187   186    1
   178   187   189    1
   179    35    36    1
   180    38    36    1
   181    36    37    1
