@<TRIPOS>MOLECULE
tmp/3i5aA00.pdb
 102 97 0 0 0
SMALL
GASTEIGER

@<TRIPOS>ATOM
      1  N         23.3580  -10.8240   15.8380 N.3   222  SER222     -0.1202
      2  CA        24.6760  -11.2700   15.3950 C.3   222  SER222      0.2020
      3  C         25.3740  -10.2020   14.5490 C.2   222  SER222      0.2619
      4  O         26.5450   -9.8770   14.7730 O.2   222  SER222     -0.2717
      5  CB        24.5990  -12.6070   14.6490 C.3   222  SER222      0.2103
      6  OG        23.7870  -12.5120   13.4960 O.3   222  SER222     -0.2182
      7  N         24.6430   -9.6480   13.5900 N.am  223  CYS223     -0.1955
      8  CA        25.2080   -8.6730   12.6720 C.3   223  CYS223      0.1843
      9  C         24.9030   -7.2530   13.1400 C.2   223  CYS223      0.2626
     10  O         23.7930   -6.9650   13.5870 O.2   223  CYS223     -0.2714
     11  CB        24.6600   -8.9050   11.2620 C.3   223  CYS223      0.0997
     12  SG        22.8460   -8.9030   11.1390 S.3   223  CYS223     -0.0797
     13  N         25.8880   -6.3660   13.0380 N.am  224  SER224     -0.1936
     14  CA        25.6850   -4.9810   13.4480 C.3   224  SER224      0.2055
     15  C         26.5560   -3.9900   12.6800 C.2   224  SER224      0.2642
     16  O         27.0760   -3.0350   13.2540 O.2   224  SER224     -0.2714
     17  CB        25.9090   -4.8260   14.9570 C.3   224  SER224      0.2130
     18  OG        27.2440   -5.1370   15.3070 O.3   224  SER224     -0.2179
     19  N         26.7190   -4.2190   11.3840 N.am  225  ARG225     -0.1977
     20  CA        27.3830   -3.2460   10.5320 C.3   225  ARG225      0.1597
     21  C         26.3500   -2.6920    9.5780 C.2   225  ARG225      0.2287
     22  O         25.4110   -3.3890    9.2110 O.2   225  ARG225     -0.2864
     23  CB        28.5520   -3.8710    9.7780 C.3   225  ARG225      0.0334
     24  CG        29.6670   -4.3270   10.6940 C.3   225  ARG225      0.0492
     25  CD        30.8000   -4.9500    9.9400 C.3   225  ARG225      0.2205
     26  NE        31.8860   -5.3040   10.8380 N.pl3 225  ARG225     -0.0865
     27  CZ        33.0430   -5.8140   10.4340 C.cat 225  ARG225      0.5346
     28  NH1       33.2590   -6.0370    9.1390 N.pl3 225  ARG225      0.1354
     29  NH2       33.9840   -6.1070   11.3220 N.pl3 225  ARG225      0.1354
     30  N         25.1060   -5.0430    6.9690 N.3   228  ASP228     -0.1239
     31  CA        24.6570   -6.3710    7.3340 C.3   228  ASP228      0.1674
     32  C         23.1550   -6.3720    7.2000 C.2   228  ASP228      0.2266
     33  O         22.4940   -5.4550    7.6810 O.2   228  ASP228     -0.2867
     34  CB        25.0320   -6.6880    8.7730 C.3   228  ASP228      0.1410
     35  CG        26.5220   -6.8400    8.9640 C.2   228  ASP228      0.3668
     36  OD1       27.2560   -6.8970    7.9500 O.co2 228  ASP228     -0.2456
     37  OD2       26.9590   -6.8970   10.1300 O.co2 228  ASP228     -0.2456
     38  N         26.2410  -10.3430    4.3390 N.3   242  LEU242     -0.1231
     39  CA        27.3130   -9.6330    5.0110 C.3   242  LEU242      0.1678
     40  C         28.3210   -9.0810    4.0110 C.2   242  LEU242      0.2434
     41  O         29.3150   -9.7360    3.6980 O.2   242  LEU242     -0.2733
     42  CB        28.0360  -10.5650    5.9850 C.3   242  LEU242      0.0284
     43  CG        27.2160  -11.3640    6.9970 C.3   242  LEU242      0.0019
     44  CD1       28.1150  -12.3870    7.6780 C.3   242  LEU242      0.0001
     45  CD2       26.5380  -10.4500    8.0160 C.3   242  LEU242      0.0001
     46  N         28.0760   -7.8690    3.5090 N.am  243  PRO243     -0.2718
     47  CA        29.0600   -7.2460    2.6230 C.3   243  PRO243      0.1535
     48  C         30.4060   -7.0800    3.3190 C.2   243  PRO243      0.2599
     49  O         30.4570   -6.9850    4.5420 O.2   243  PRO243     -0.2715
     50  CB        28.4580   -5.8650    2.3510 C.3   243  PRO243      0.0310
     51  CG        27.0000   -5.9960    2.6740 C.3   243  PRO243      0.0237
     52  CD        26.9050   -7.0090    3.7540 C.3   243  PRO243      0.0939
     53  N         31.4810   -7.0500    2.5440 N.am  244  ASN244     -0.1959
     54  CA        32.8010   -6.7240    3.0750 C.3   244  ASN244      0.1819
     55  C         33.2730   -7.5980    4.2460 C.2   244  ASN244      0.2622
     56  O         33.9320   -7.1110    5.1780 O.2   244  ASN244     -0.2715
     57  CB        32.8440   -5.2460    3.4560 C.3   244  ASN244      0.1195
     58  CG        32.6150   -4.3470    2.2640 C.2   244  ASN244      0.2630
     59  OD1       33.2670   -4.5080    1.2320 O.2   244  ASN244     -0.2716
     60  ND2       31.6820   -3.3990    2.3890 N.am  244  ASN244     -0.0877
     61  N         32.9550   -8.8880    4.1820 N.am  245  THR245     -0.1937
     62  CA        33.2730   -9.8040    5.2720 C.3   245  THR245      0.2028
     63  C         34.0140  -11.0420    4.7670 C.2   245  THR245      0.2642
     64  O         33.5880  -11.6780    3.8070 O.2   245  THR245     -0.2714
     65  CB        31.9990  -10.2280    6.0130 C.3   245  THR245      0.1808
     66  OG1       31.3890   -9.0770    6.6150 O.3   245  THR245     -0.2208
     67  CG2       32.3230  -11.2460    7.0860 C.3   245  THR245      0.0379
     68  N         35.1300  -11.3770    5.4080 N.am  246  SER246     -0.1949
     69  CA        35.9680  -12.4710    4.9390 C.3   246  SER246      0.1924
     70  C         35.3270  -13.8180    5.2430 C.2   246  SER246      0.2314
     71  O         34.4260  -13.9040    6.0780 O.2   246  SER246     -0.2863
     72  CB        37.3420  -12.4010    5.5890 C.3   246  SER246      0.2116
     73  OG        37.3260  -13.0680    6.8350 O.3   246  SER246     -0.2180
     74  N         35.7800  -14.5140    8.7300 N.3   249  GLY249     -0.1225
     75  CA        34.9360  -13.6040    9.4870 C.3   249  GLY249      0.1811
     76  C         33.4950  -14.0820    9.4980 C.2   249  GLY249      0.2280
     77  O         32.8580  -14.1750   10.5460 O.2   249  GLY249     -0.2866
     78  N         33.1370  -17.1180   11.7530 N.3   252  LEU252     -0.1231
     79  CA        33.1930  -16.7210   13.1490 C.3   252  LEU252      0.1693
     80  C         31.8280  -16.1950   13.5740 C.2   252  LEU252      0.2591
     81  O         31.3010  -16.5530   14.6290 O.2   252  LEU252     -0.2718
     82  CB        34.2400  -15.6250   13.3230 C.3   252  LEU252      0.0284
     83  CG        35.0020  -15.6030   14.6430 C.3   252  LEU252      0.0019
     84  CD1       36.3740  -16.2200   14.4530 C.3   252  LEU252      0.0001
     85  CD2       35.1290  -14.1700   15.1530 C.3   252  LEU252      0.0001
     86  N         31.2590  -15.3440   12.7310 N.am  253  LEU253     -0.1980
     87  CA        29.9660  -14.7440   12.9990 C.3   253  LEU253      0.1596
     88  C         28.8980  -15.8140   13.0290 C.2   253  LEU253      0.2287
     89  O         27.9940  -15.7790   13.8610 O.2   253  LEU253     -0.2864
     90  CB        29.6390  -13.7230   11.9120 C.3   253  LEU253      0.0297
     91  CG        28.6750  -12.5950   12.2620 C.3   253  LEU253      0.0022
     92  CD1       29.0280  -11.9910   13.6170 C.3   253  LEU253      0.0001
     93  CD2       28.7340  -11.5610   11.1810 C.3   253  LEU253      0.0001
     94  N         29.1440  -17.8790   16.4250 N.3   256  LYS256     -0.1245
     95  CA        28.6260  -17.1540   17.5830 C.3   256  LYS256      0.1561
     96  C         27.1140  -17.2110   17.5880 C.2   256  LYS256      0.2260
     97  O         26.4900  -17.3360   18.6390 O.2   256  LYS256     -0.2867
     98  CB        29.0900  -15.6950   17.5850 C.3   256  LYS256      0.0271
     99  CG        30.5780  -15.5190   17.8350 C.3   256  LYS256      0.0035
    100  CD        30.9640  -14.0530   17.9180 C.3   256  LYS256      0.0206
    101  CE        32.4780  -13.8750   17.8480 C.3   256  LYS256      0.1093
    102  NZ        32.8780  -12.4310   17.8170 N.3   256  LYS256     -0.1314
@<TRIPOS>BOND
     1    59    58    2
     2    58    60   am
     3    58    57    1
     4    50    47    1
     5    50    51    1
     6    53    54    1
     7    53    48   am
     8    47    48    1
     9    47    46    1
    10    51    52    1
    11    54    57    1
    12    54    55    1
    13    48    49    2
    14    46    52    1
    15    46    40   am
    16    41    40    2
    17    64    63    2
    18    40    39    1
    19    61    55   am
    20    61    62    1
    21    55    56    2
    22    38    39    1
    23    63    62    1
    24    63    68   am
    25    69    70    1
    26    69    68    1
    27    69    72    1
    28    39    42    1
    29    70    71    2
    30    62    65    1
    31    72    73    1
    32    42    43    1
    33    65    66    1
    34    65    67    1
    35    30    31    1
    36    43    44    1
    37    43    45    1
    38    32    31    1
    39    32    33    2
    40    31    34    1
    41    36    35   ar
    42    74    75    1
    43    34    35    1
    44    35    37   ar
    45    28    27    1
    46    22    21    2
    47    75    76    1
    48    76    77    2
    49    21    20    1
    50    23    20    1
    51    23    24    1
    52    25    24    1
    53    25    26    1
    54    27    26    2
    55    27    29    1
    56    20    19    1
    57    12    11    1
    58    93    91    1
    59    11     8    1
    60    19    15   am
    61    78    79    1
    62    90    91    1
    63    90    87    1
    64    91    92    1
    65     8     9    1
    66     8     7    1
    67    15    16    2
    68    15    14    1
    69    86    87    1
    70    86    80   am
    71    87    88    1
    72    88    89    2
    73    13     9   am
    74    13    14    1
    75     9    10    2
    76    79    82    1
    77    79    80    1
    78    82    83    1
    79    14    17    1
    80     6     5    1
    81    80    81    2
    82     7     3   am
    83    84    83    1
    84     3     4    2
    85     3     2    1
    86    83    85    1
    87     5     2    1
    88    17    18    1
    89     2     1    1
    90    94    95    1
    91    95    98    1
    92    95    96    1
    93    98    99    1
    94    96    97    2
    95   102   101    1
    96    99   100    1
    97   101   100    1
