@<TRIPOS>MOLECULE
tmp/3i5bB00.pdb
 90 88 0 0 0
SMALL
GASTEIGER

@<TRIPOS>ATOM
      1  N        -23.5220    6.3930   27.7520 N.3    41  ASP41      -0.1225
      2  CA       -22.4430    5.9180   28.6070 C.3    41  ASP41       0.1805
      3  C        -22.3650    6.7640   29.8640 C.2    41  ASP41       0.2598
      4  O        -22.1820    7.9900   29.7770 O.2    41  ASP41      -0.2718
      5  CB       -21.1230    6.0100   27.8310 C.3    41  ASP41       0.1424
      6  CG       -19.9670    5.3980   28.5780 C.2    41  ASP41       0.3668
      7  OD1      -19.3850    4.4240   28.0660 O.co2  41  ASP41      -0.2456
      8  OD2      -19.6500    5.8810   29.6750 O.co2  41  ASP41      -0.2456
      9  N        -22.4920    6.1170   31.0260 N.am   42  VAL42      -0.1966
     10  CA       -22.4640    6.8280   32.3080 C.3    42  VAL42       0.1727
     11  C        -21.1060    7.4970   32.5550 C.2    42  VAL42       0.2616
     12  O        -20.0680    6.8600   32.4630 O.2    42  VAL42      -0.2715
     13  CB       -22.8280    5.9080   33.4860 C.3    42  VAL42       0.0290
     14  CG1      -22.8440    6.6980   34.8040 C.3    42  VAL42       0.0023
     15  CG2      -24.1840    5.2280   33.2430 C.3    42  VAL42       0.0023
     16  N        -21.1240    8.7920   32.8480 N.am   43  ASP43      -0.1957
     17  CA       -19.8890    9.5390   33.0820 C.3    43  ASP43       0.1840
     18  C        -19.2340    9.1720   34.4210 C.2    43  ASP43       0.2622
     19  O        -19.9240    8.9500   35.4280 O.2    43  ASP43      -0.2715
     20  CB       -20.1860   11.0330   33.0820 C.3    43  ASP43       0.1450
     21  CG       -20.6410   11.5400   31.7240 C.2    43  ASP43       0.3671
     22  OD1      -20.0920   11.0860   30.6850 O.co2  43  ASP43      -0.2456
     23  OD2      -21.5370   12.4070   31.6990 O.co2  43  ASP43      -0.2456
     24  N        -17.9050    9.1340   34.4330 N.am   44  TYR44      -0.1960
     25  CA       -17.1640    8.8900   35.6640 C.3    44  TYR44       0.1771
     26  C        -17.6460    7.6400   36.3940 C.2    44  TYR44       0.2620
     27  O        -17.7000    7.6210   37.6250 O.2    44  TYR44      -0.2715
     28  CB       -17.3200   10.0750   36.6110 C.3    44  TYR44       0.0574
     29  CG       -16.7690   11.3690   36.0840 C.ar   44  TYR44      -0.0198
     30  CD1      -17.6050   12.4600   35.8490 C.ar   44  TYR44      -0.0009
     31  CD2      -15.4090   11.5170   35.8460 C.ar   44  TYR44      -0.0009
     32  CE1      -17.0880   13.6750   35.3750 C.ar   44  TYR44       0.0417
     33  CE2      -14.8850   12.7280   35.3750 C.ar   44  TYR44       0.0417
     34  CZ       -15.7290   13.7940   35.1430 C.ar   44  TYR44       0.1957
     35  OH       -15.2130   14.9750   34.6800 O.3    44  TYR44      -0.2866
     36  N        -18.0050    6.6040   35.6480 N.am   45  PHE45      -0.1960
     37  CA       -18.5720    5.4090   36.2670 C.3    45  PHE45       0.1771
     38  C        -17.5270    4.5910   37.0170 C.2    45  PHE45       0.2619
     39  O        -17.8340    3.9850   38.0390 O.2    45  PHE45      -0.2715
     40  CB       -19.2820    4.5350   35.2390 C.3    45  PHE45       0.0574
     41  CG       -20.1560    3.4830   35.8500 C.ar   45  PHE45      -0.0200
     42  CD1      -21.2930    3.8380   36.5550 C.ar   45  PHE45      -0.0042
     43  CD2      -19.8370    2.1340   35.7250 C.ar   45  PHE45      -0.0042
     44  CE1      -22.1090    2.8650   37.1200 C.ar   45  PHE45      -0.0003
     45  CE2      -20.6470    1.1540   36.2900 C.ar   45  PHE45      -0.0003
     46  CZ       -21.7810    1.5240   36.9850 C.ar   45  PHE45      -0.0000
     47  N        -16.3060    4.5710   36.5000 N.am   46  LYS46      -0.1963
     48  CA       -15.2180    3.8310   37.1320 C.3    46  LYS46       0.1728
     49  C        -14.9940    4.3620   38.5420 C.2    46  LYS46       0.2616
     50  O        -14.9240    3.6030   39.5090 O.2    46  LYS46      -0.2715
     51  CB       -13.9360    3.9890   36.3230 C.3    46  LYS46       0.0311
     52  CG       -13.0170    2.8070   36.4110 C.3    46  LYS46       0.0038
     53  CD       -11.5810    3.2290   36.5830 C.3    46  LYS46       0.0206
     54  CE       -11.2870    3.5090   38.0480 C.3    46  LYS46       0.1093
     55  NZ        -9.9420    2.9760   38.4590 N.3    46  LYS46      -0.1314
     56  N        -14.8890    5.6810   38.6390 N.am   47  SER47      -0.1950
     57  CA       -14.7380    6.3520   39.9160 C.3    47  SER47       0.1924
     58  C        -15.9810    6.1220   40.7710 C.2    47  SER47       0.2314
     59  O        -15.8810    5.8740   41.9830 O.2    47  SER47      -0.2863
     60  CB       -14.4650    7.8410   39.7010 C.3    47  SER47       0.2116
     61  OG       -14.1920    8.5030   40.9170 O.3    47  SER47      -0.2180
     62  N        -21.4230    0.1660   31.7810 N.3    85  GLU85      -0.1245
     63  CA       -22.3000    1.3320   31.8810 C.3    85  GLU85       0.1567
     64  C        -22.6770    1.8630   30.5000 C.2    85  GLU85       0.2260
     65  O        -23.1950    2.9760   30.3790 O.2    85  GLU85      -0.2867
     66  CB       -21.6410    2.4460   32.7140 C.3    85  GLU85       0.0388
     67  CG       -20.5130    3.2100   31.9950 C.3    85  GLU85       0.1160
     68  CD       -19.1520    2.5450   32.1270 C.2    85  GLU85       0.3649
     69  OE1      -19.0980    1.3150   32.3560 O.co2  85  GLU85      -0.2457
     70  OE2      -18.1270    3.2510   32.0000 O.co2  85  GLU85      -0.2457
     71  N        -17.6330   12.9830   25.2910 N.3   159  LYS159     -0.1245
     72  CA       -16.8160   12.6650   26.4590 C.3   159  LYS159      0.1561
     73  C        -15.6540   13.6360   26.5770 C.2   159  LYS159      0.2260
     74  O        -15.1450   13.8670   27.6710 O.2   159  LYS159     -0.2867
     75  CB       -16.2530   11.2370   26.3760 C.3   159  LYS159      0.0271
     76  CG       -17.2570   10.1320   26.6840 C.3   159  LYS159      0.0035
     77  CD       -17.6240   10.0430   28.1780 C.3   159  LYS159      0.0206
     78  CE       -18.6770    8.9370   28.3580 C.3   159  LYS159      0.1093
     79  NZ       -18.9940    8.5370   29.7680 N.3   159  LYS159     -0.1314
     80  N        -18.3610   15.9960   28.8460 N.3   163  ARG163     -0.1245
     81  CA       -19.3460   15.0260   29.3490 C.3   163  ARG163      0.1563
     82  C        -20.7300   15.6460   29.5880 C.2   163  ARG163      0.2260
     83  O        -20.9700   16.7890   29.2390 O.2   163  ARG163     -0.2867
     84  CB       -18.8680   14.3790   30.6480 C.3   163  ARG163      0.0307
     85  CG       -17.6330   13.4810   30.5270 C.3   163  ARG163      0.0489
     86  CD       -17.2030   13.0120   31.9230 C.3   163  ARG163      0.2205
     87  NE       -16.1460   12.0130   31.8990 N.pl3 163  ARG163     -0.0865
     88  CZ       -14.8510   12.3010   31.9130 C.cat 163  ARG163      0.5346
     89  NH1      -14.4530   13.5690   31.9370 N.pl3 163  ARG163      0.1354
     90  NH2      -13.9560   11.3200   31.9070 N.pl3 163  ARG163      0.1354
@<TRIPOS>BOND
     1    71    72    1
     2    75    72    1
     3    75    76    1
     4    72    73    1
     5    73    74    2
     6    76    77    1
     7     1     2    1
     8     5     6    1
     9     5     2    1
    10     7     6   ar
    11    77    78    1
    12    78    79    1
    13     6     8   ar
    14     2     3    1
    15    80    81    1
    16    83    82    2
    17    81    82    1
    18    81    84    1
    19     4     3    2
    20     3     9   am
    21    65    64    2
    22    64    63    1
    23    85    84    1
    24    85    86    1
    25    22    21   ar
    26     9    10    1
    27    23    21   ar
    28    21    20    1
    29    62    63    1
    30    63    66    1
    31    87    88    2
    32    87    86    1
    33    90    88    1
    34    88    89    1
    35    67    68    1
    36    67    66    1
    37    70    68   ar
    38    68    69   ar
    39    10    11    1
    40    10    13    1
    41    12    11    2
    42    11    16   am
    43    16    17    1
    44    17    20    1
    45    17    18    1
    46    15    13    1
    47    13    14    1
    48    18    24   am
    49    18    19    2
    50    24    25    1
    51    35    34    1
    52    34    32   ar
    53    34    33   ar
    54    40    41    1
    55    40    37    1
    56    32    30   ar
    57    33    31   ar
    58    36    37    1
    59    36    26   am
    60    25    26    1
    61    25    28    1
    62    43    41   ar
    63    43    45   ar
    64    31    29   ar
    65    30    29   ar
    66    41    42   ar
    67    29    28    1
    68    37    38    1
    69    45    46   ar
    70    51    52    1
    71    51    48    1
    72    26    27    2
    73    52    53    1
    74    47    38   am
    75    47    48    1
    76    42    44   ar
    77    53    54    1
    78    46    44   ar
    79    38    39    2
    80    48    49    1
    81    54    55    1
    82    49    56   am
    83    49    50    2
    84    56    57    1
    85    60    57    1
    86    60    61    1
    87    57    58    1
    88    58    59    2
