@<TRIPOS>MOLECULE
tmp/3i5fA00.pdb
 183 180 0 0 0
SMALL
GASTEIGER

@<TRIPOS>ATOM
      1  N         21.6320    5.2680   70.0990 N.3   112  ILE112     -0.1245
      2  CA        21.7700    3.8500   69.8590 C.3   112  ILE112      0.1561
      3  C         21.7610    3.5560   68.3600 C.2   112  ILE112      0.2260
      4  O         22.7450    3.0020   67.8210 O.2   112  ILE112     -0.2867
      5  CB        20.6820    3.0640   70.5550 C.3   112  ILE112      0.0252
      6  CG1       19.3000    3.5760   70.1420 C.3   112  ILE112      0.0019
      7  CG2       20.8670    3.2160   72.0620 C.3   112  ILE112      0.0019
      8  CD1       18.1550    2.7930   70.7720 C.3   112  ILE112      0.0001
      9  N         21.9780   -1.9470   72.0490 N.3   124  ASN124     -0.1226
     10  CA        21.1210   -1.9960   73.2170 C.3   124  ASN124      0.1770
     11  C         21.3330   -0.9110   74.2530 C.2   124  ASN124      0.2439
     12  O         22.3170   -0.9000   74.9990 O.2   124  ASN124     -0.2733
     13  CB        21.2480   -3.3630   73.8880 C.3   124  ASN124      0.1168
     14  CG        20.1500   -3.6270   74.8410 C.2   124  ASN124      0.2627
     15  OD1       19.8130   -4.7920   75.1070 O.2   124  ASN124     -0.2716
     16  ND2       19.5560   -2.5500   75.3770 N.am  124  ASN124     -0.0877
     17  N         20.4110    0.0440   74.2870 N.am  125  PRO125     -0.2718
     18  CA        20.4890    1.1340   75.2480 C.3   125  PRO125      0.1535
     19  C         20.6530    0.5520   76.6410 C.2   125  PRO125      0.2599
     20  O         21.6670    0.8050   77.3180 O.2   125  PRO125     -0.2715
     21  CB        19.1440    1.8560   75.0780 C.3   125  PRO125      0.0310
     22  CG        18.3910    1.0500   73.9870 C.3   125  PRO125      0.0237
     23  CD        19.4520    0.3510   73.2210 C.3   125  PRO125      0.0939
     24  N         19.6780   -0.2910   76.9980 N.am  126  TYR126     -0.1960
     25  CA        19.5420   -0.9450   78.3060 C.3   126  TYR126      0.1771
     26  C         18.9860    0.2020   79.1370 C.2   126  TYR126      0.2619
     27  O         19.6960    0.8090   79.9370 O.2   126  TYR126     -0.2715
     28  CB        20.8860   -1.4170   78.9060 C.3   126  TYR126      0.0574
     29  CG        21.3570   -2.8360   78.5180 C.ar  126  TYR126     -0.0198
     30  CD1       22.6050   -3.0090   77.9200 C.ar  126  TYR126     -0.0009
     31  CD2       20.6090   -4.0020   78.8220 C.ar  126  TYR126     -0.0009
     32  CE1       23.1150   -4.2630   77.6470 C.ar  126  TYR126      0.0417
     33  CE2       21.1180   -5.2690   78.5330 C.ar  126  TYR126      0.0417
     34  CZ        22.3730   -5.4050   77.9530 C.ar  126  TYR126      0.1957
     35  OH        22.8970   -6.6770   77.7010 O.3   126  TYR126     -0.2866
     36  N         17.7210    0.5270   78.9020 N.am  127  ARG127     -0.1963
     37  CA        17.0400    1.6100   79.5940 C.3   127  ARG127      0.1729
     38  C         15.9870    2.1930   78.6810 C.2   127  ARG127      0.2616
     39  O         16.2380    2.4460   77.4960 O.2   127  ARG127     -0.2715
     40  CB        18.0130    2.7230   79.9830 C.3   127  ARG127      0.0348
     41  CG        18.8210    3.3590   78.8380 C.3   127  ARG127      0.0492
     42  CD        19.1900    4.8020   79.2070 C.3   127  ARG127      0.2205
     43  NE        20.1930    5.4240   78.3410 N.pl3 127  ARG127     -0.0865
     44  CZ        20.3950    6.7450   78.2920 C.cat 127  ARG127      0.5346
     45  NH1       19.6590    7.5670   79.0480 N.pl3 127  ARG127      0.1354
     46  NH2       21.3440    7.2620   77.5150 N.pl3 127  ARG127      0.1354
     47  N         14.8080    2.4160   79.2400 N.am  128  ARG128     -0.1963
     48  CA        13.7330    3.0120   78.4680 C.3   128  ARG128      0.1729
     49  C         14.2130    4.3210   77.8180 C.2   128  ARG128      0.2616
     50  O         14.8780    5.1240   78.4450 O.2   128  ARG128     -0.2715
     51  CB        12.5630    3.3260   79.3840 C.3   128  ARG128      0.0348
     52  CG        11.9040    2.1020   80.0240 C.3   128  ARG128      0.0492
     53  CD        10.3930    2.1790   79.8540 C.3   128  ARG128      0.2205
     54  NE         9.7400    0.9000   80.0940 N.pl3 128  ARG128     -0.0865
     55  CZ         8.4420    0.6860   79.8890 C.cat 128  ARG128      0.5346
     56  NH1        7.6620    1.6680   79.4420 N.pl3 128  ARG128      0.1354
     57  NH2        7.9170   -0.5140   80.1150 N.pl3 128  ARG128      0.1354
     58  N         13.9180    4.4970   76.5400 N.am  129  LEU129     -0.1977
     59  CA        14.2670    5.7140   75.8320 C.3   129  LEU129      0.1596
     60  C         12.9650    6.2550   75.2880 C.2   129  LEU129      0.2287
     61  O         11.9920    5.5120   75.1530 O.2   129  LEU129     -0.2864
     62  CB        15.2390    5.4630   74.6920 C.3   129  LEU129      0.0297
     63  CG        16.5810    4.9470   75.1890 C.3   129  LEU129      0.0022
     64  CD1       17.6960    5.3620   74.2350 C.3   129  LEU129      0.0001
     65  CD2       16.8700    5.5200   76.5650 C.3   129  LEU129      0.0001
     66  N         10.8140    6.0470   70.9490 N.3   132  TYR132     -0.1241
     67  CA         9.6520    5.3880   70.3730 C.3   132  TYR132      0.1605
     68  C          8.2590    5.9140   70.6520 C.2   132  TYR132      0.2264
     69  O          7.2900    5.1450   70.5560 O.2   132  TYR132     -0.2867
     70  CB         9.6850    3.8910   70.7100 C.3   132  TYR132      0.0534
     71  CG        11.0470    3.2760   70.6090 C.ar  132  TYR132     -0.0201
     72  CD1       11.8400    3.1180   71.7360 C.ar  132  TYR132     -0.0009
     73  CD2       11.5740    2.9330   69.3790 C.ar  132  TYR132     -0.0009
     74  CE1       13.1430    2.6440   71.6380 C.ar  132  TYR132      0.0417
     75  CE2       12.8820    2.4430   69.2560 C.ar  132  TYR132      0.0417
     76  CZ        13.6570    2.3100   70.3960 C.ar  132  TYR132      0.1957
     77  OH        14.9390    1.8720   70.2960 O.3   132  TYR132     -0.2866
     78  N         24.0840  -10.8140   68.0840 N.3   177  GLU177     -0.1231
     79  CA        24.2310  -11.8560   69.0950 C.3   177  GLU177      0.1699
     80  C         23.0510  -11.9110   70.0560 C.2   177  GLU177      0.2593
     81  O         22.0080  -11.3030   69.8260 O.2   177  GLU177     -0.2718
     82  CB        25.5390  -11.6670   69.8720 C.3   177  GLU177      0.0402
     83  CG        26.7230  -11.5020   68.9410 C.3   177  GLU177      0.1161
     84  CD        28.0760  -11.7990   69.5790 C.2   177  GLU177      0.3649
     85  OE1       28.2160  -11.7220   70.8250 O.co2 177  GLU177     -0.2457
     86  OE2       29.0230  -12.1170   68.8170 O.co2 177  GLU177     -0.2457
     87  N         23.2190  -12.6750   71.1240 N.am  178  SER178     -0.1938
     88  CA        22.1790  -12.8530   72.1160 C.3   178  SER178      0.2055
     89  C         22.1070  -11.6690   73.0730 C.2   178  SER178      0.2644
     90  O         23.1410  -11.1520   73.5310 O.2   178  SER178     -0.2714
     91  CB        22.4570  -14.1410   72.9000 C.3   178  SER178      0.2130
     92  OG        21.4240  -14.4090   73.8580 O.3   178  SER178     -0.2179
     93  N         20.8870  -11.2270   73.3590 N.am  179  GLY179     -0.1939
     94  CA        20.7310  -10.1200   74.2720 C.3   179  GLY179      0.2014
     95  C         21.2150   -8.8180   73.6640 C.2   179  GLY179      0.2639
     96  O         21.6430   -7.9200   74.3900 O.2   179  GLY179     -0.2714
     97  N         21.1630   -8.7060   72.3400 N.am  180  ALA180     -0.1963
     98  CA        21.5670   -7.4800   71.6730 C.3   180  ALA180      0.1728
     99  C         20.2750   -6.7880   71.2580 C.2   180  ALA180      0.2617
    100  O         20.2740   -5.8440   70.4560 O.2   180  ALA180     -0.2715
    101  CB        22.4380   -7.7970   70.4740 C.3   180  ALA180      0.0334
    102  N         19.1690   -7.2890   71.8080 N.am  181  GLY181     -0.1940
    103  CA        17.8780   -6.6890   71.5500 C.3   181  GLY181      0.2014
    104  C         17.3020   -6.6690   70.1390 C.2   181  GLY181      0.2639
    105  O         16.9950   -5.5730   69.6330 O.2   181  GLY181     -0.2714
    106  N         17.1120   -7.8210   69.4990 N.am  182  LYS182     -0.1963
    107  CA        16.5030   -7.7850   68.1830 C.3   182  LYS182      0.1728
    108  C         15.0180   -7.9910   68.3870 C.2   182  LYS182      0.2617
    109  O         14.2190   -7.5490   67.5770 O.2   182  LYS182     -0.2715
    110  CB        17.0950   -8.8730   67.3140 C.3   182  LYS182      0.0311
    111  CG        17.7360   -9.9440   68.1300 C.3   182  LYS182      0.0038
    112  CD        17.9350  -11.2250   67.3520 C.3   182  LYS182      0.0206
    113  CE        18.8780  -12.1230   68.0900 C.3   182  LYS182      0.1093
    114  NZ        20.2870  -11.7210   67.8210 N.3   182  LYS182     -0.1314
    115  N         14.6560   -8.6600   69.4750 N.am  183  THR183     -0.1937
    116  CA        13.2460   -8.8530   69.7660 C.3   183  THR183      0.2028
    117  C         12.7330   -7.5150   70.2680 C.2   183  THR183      0.2642
    118  O         11.5190   -7.2910   70.3660 O.2   183  THR183     -0.2714
    119  CB        12.9840   -9.9100   70.8940 C.3   183  THR183      0.1808
    120  OG1       13.4820  -11.1910   70.4760 O.3   183  THR183     -0.2208
    121  CG2       11.4920  -10.0140   71.2020 C.3   183  THR183      0.0379
    122  N         13.6390   -6.6090   70.6030 N.am  184  GLU184     -0.1963
    123  CA        13.1450   -5.3430   71.1070 C.3   184  GLU184      0.1733
    124  C         12.7120   -4.4250   69.9900 C.2   184  GLU184      0.2616
    125  O         11.5890   -3.8520   70.0310 O.2   184  GLU184     -0.2715
    126  CB        14.1740   -4.7010   72.0180 C.3   184  GLU184      0.0429
    127  CG        13.9100   -5.1170   73.4650 C.3   184  GLU184      0.1163
    128  CD        12.4540   -4.8560   73.8570 C.2   184  GLU184      0.3649
    129  OE1       12.1380   -4.8180   75.0630 O.co2 184  GLU184     -0.2457
    130  OE2       11.6010   -4.6820   72.9570 O.co2 184  GLU184     -0.2457
    131  N         13.5740   -4.3580   68.9760 N.am  185  ASN185     -0.1972
    132  CA        13.3020   -3.5740   67.8030 C.3   185  ASN185      0.1688
    133  C         12.1300   -4.2050   67.0650 C.2   185  ASN185      0.2292
    134  O         11.1430   -3.5360   66.7890 O.2   185  ASN185     -0.2864
    135  CB        14.5630   -3.5170   66.9740 C.3   185  ASN185      0.1181
    136  CG        15.5910   -2.5850   67.5970 C.2   185  ASN185      0.2629
    137  OD1       15.2190   -1.7430   68.3980 O.2   185  ASN185     -0.2716
    138  ND2       16.8710   -2.7160   67.2270 N.am  185  ASN185     -0.0877
    139  N          8.9040   -3.2090   67.7590 N.3   188  LYS188     -0.1245
    140  CA         8.7860   -1.7470   67.5690 C.3   188  LYS188      0.1561
    141  C          8.3530   -1.6580   66.1230 C.2   188  LYS188      0.2260
    142  O          7.2670   -1.1180   65.7930 O.2   188  LYS188     -0.2867
    143  CB        10.1220   -1.0090   67.6990 C.3   188  LYS188      0.0271
    144  CG        10.6140   -0.7740   69.1280 C.3   188  LYS188      0.0035
    145  CD         9.6360    0.0740   69.9120 C.3   188  LYS188      0.0206
    146  CE        10.0110    0.1110   71.3680 C.3   188  LYS188      0.1093
    147  NZ         8.7360    0.1260   72.1320 N.3   188  LYS188     -0.1314
    148  N         20.5270  -12.8910   78.5260 N.3   229  ASN229     -0.1225
    149  CA        19.3790  -12.0090   78.4310 C.3   229  ASN229      0.1785
    150  C         18.2320  -12.5680   79.2450 C.2   229  ASN229      0.2597
    151  O         17.8660  -13.7210   79.1110 O.2   229  ASN229     -0.2718
    152  CB        19.0370  -11.8310   76.9330 C.3   229  ASN229      0.1169
    153  CG        17.5870  -11.4650   76.6840 C.2   229  ASN229      0.2627
    154  OD1       16.9100  -10.8740   77.5370 O.2   229  ASN229     -0.2716
    155  ND2       17.1050  -11.8000   75.4920 N.am  229  ASN229     -0.0877
    156  N         17.6430  -11.7470   80.0920 N.am  230  ASN230     -0.1960
    157  CA        16.5590  -12.2510   80.8980 C.3   230  ASN230      0.1819
    158  C         15.3410  -12.5540   80.0800 C.2   230  ASN230      0.2621
    159  O         14.4250  -13.2090   80.5860 O.2   230  ASN230     -0.2715
    160  CB        16.1970  -11.2610   82.0070 C.3   230  ASN230      0.1195
    161  CG        17.3740  -10.9280   82.8620 C.2   230  ASN230      0.2630
    162  OD1       17.6590  -11.6010   83.8520 O.2   230  ASN230     -0.2716
    163  ND2       18.1040   -9.9020   82.4570 N.am  230  ASN230     -0.0877
    164  N         15.2830  -12.0550   78.8470 N.am  231  ASN231     -0.1958
    165  CA        14.0900  -12.3520   78.0630 C.3   231  ASN231      0.1819
    166  C         14.4040  -12.9990   76.7570 C.2   231  ASN231      0.2622
    167  O         13.7990  -12.7010   75.7170 O.2   231  ASN231     -0.2715
    168  CB        13.2620  -11.1140   77.7970 C.3   231  ASN231      0.1195
    169  CG        11.8820  -11.4700   77.3740 C.2   231  ASN231      0.2630
    170  OD1       11.5510  -12.6490   77.3010 O.2   231  ASN231     -0.2716
    171  ND2       11.0620  -10.4680   77.0820 N.am  231  ASN231     -0.0877
    172  N         15.3390  -13.9300   76.8430 N.am  232  SER232     -0.1936
    173  CA        15.7990  -14.5920   75.6510 C.3   232  SER232      0.2055
    174  C         14.7950  -15.2580   74.7630 C.2   232  SER232      0.2643
    175  O         13.9230  -16.0550   75.1400 O.2   232  SER232     -0.2714
    176  CB        16.8560  -15.6100   75.9440 C.3   232  SER232      0.2130
    177  OG        17.5730  -15.8480   74.7720 O.3   232  SER232     -0.2179
    178  N         15.0030  -14.9080   73.5190 N.am  233  SER233     -0.1949
    179  CA        14.2500  -15.3730   72.3860 C.3   233  SER233      0.1924
    180  C         14.8460  -16.8040   72.1910 C.2   233  SER233      0.2314
    181  O         15.9520  -16.9750   71.6510 O.2   233  SER233     -0.2863
    182  CB        14.6020  -14.3950   71.2630 C.3   233  SER233      0.2116
    183  OG        14.8110  -13.1030   71.8400 O.3   233  SER233     -0.2180
@<TRIPOS>BOND
     1   142   141    2
     2   141   140    1
     3   134   133    2
     4   135   136    1
     5   135   132    1
     6   133   132    1
     7   138   136   am
     8   110   111    1
     9   110   107    1
    10   112   113    1
    11   112   111    1
    12   140   143    1
    13   140   139    1
    14   109   108    2
    15   136   137    2
    16   143   144    1
    17   132   131    1
    18     4     3    2
    19   114   113    1
    20    78    79    1
    21   107   108    1
    22   107   106    1
    23     3     2    1
    24   108   115   am
    25    86    84   ar
    26    83    84    1
    27    83    82    1
    28   131   124   am
    29    79    82    1
    30    79    80    1
    31   144   145    1
    32    75    73   ar
    33    75    76   ar
    34    73    71   ar
    35   115   116    1
    36   106   104   am
    37    84    85   ar
    38   105   104    2
    39   116   117    1
    40   116   119    1
    41    81    80    2
    42     2     1    1
    43     2     5    1
    44   145   146    1
    45   124   125    2
    46   124   123    1
    47    80    87   am
    48   104   103    1
    49     6     5    1
    50     6     8    1
    51   117   118    2
    52   117   122   am
    53    77    76    1
    54    67    68    1
    55    67    70    1
    56    67    66    1
    57    76    74   ar
    58   100    99    2
    59   101    98    1
    60   120   119    1
    61     5     7    1
    62    69    68    2
    63   122   123    1
    64    71    70    1
    65    71    72   ar
    66   119   121    1
    67   123   126    1
    68    87    88    1
    69    99    98    1
    70    99   102   am
    71   182   183    1
    72   182   179    1
    73   146   147    1
    74   103   102    1
    75    74    72   ar
    76   181   180    2
    77    98    97    1
    78   126   127    1
    79     9    10    1
    80    88    91    1
    81    88    89    1
    82   180   179    1
    83    97    95   am
    84   179   178    1
    85    91    92    1
    86   130   128   ar
    87    89    93   am
    88    89    90    2
    89    10    13    1
    90    10    11    1
    91    23    22    1
    92    23    17    1
    93    93    94    1
    94   127   128    1
    95   178   174   am
    96    95    94    1
    97    95    96    2
    98   128   129   ar
    99    13    14    1
   100    22    21    1
   101    64    63    1
   102    11    17   am
   103    11    12    2
   104    17    18    1
   105    62    63    1
   106    62    59    1
   107   174   175    2
   108   174   173    1
   109   177   176    1
   110    14    15    2
   111    14    16   am
   112    21    18    1
   113    61    60    2
   114    63    65    1
   115    18    19    1
   116    60    59    1
   117   155   153   am
   118   173   176    1
   119   173   172    1
   120   167   166    2
   121    59    58    1
   122    58    49   am
   123    19    24   am
   124    19    20    2
   125   153   152    1
   126   153   154    2
   127   166   172   am
   128   166   165    1
   129   152   149    1
   130    24    25    1
   131   171   169   am
   132   170   169    2
   133   169   168    1
   134    39    38    2
   135    46    44    1
   136    32    30   ar
   137    32    34   ar
   138    35    34    1
   139   168   165    1
   140    49    50    2
   141    49    48    1
   142    30    29   ar
   143    34    33   ar
   144   165   164    1
   145    44    43    2
   146    44    45    1
   147    25    28    1
   148    25    26    1
   149    43    42    1
   150   149   148    1
   151   149   150    1
   152    48    47    1
   153    48    51    1
   154    29    31   ar
   155    29    28    1
   156    33    31   ar
   157    38    47   am
   158    38    37    1
   159    41    42    1
   160    41    40    1
   161   164   158   am
   162    36    26   am
   163    36    37    1
   164   151   150    2
   165    26    27    2
   166   150   156   am
   167    51    52    1
   168    56    55    1
   169    37    40    1
   170    53    52    1
   171    53    54    1
   172    55    54    2
   173    55    57    1
   174   158   159    2
   175   158   157    1
   176   156   157    1
   177   157   160    1
   178   160   161    1
   179   163   161   am
   180   161   162    2
