@<TRIPOS>MOLECULE
tmp/3i5nA00.pdb
 181 171 0 0 0
SMALL
GASTEIGER

@<TRIPOS>ATOM
      1  N         18.7950    3.4240   55.3170 N.3    33  ILE33      -0.1231
      2  CA        18.9870    3.9890   56.6580 C.3    33  ILE33       0.1692
      3  C         18.1840    5.2710   56.8880 C.2    33  ILE33       0.2593
      4  O         18.0250    5.7200   58.0240 O.2    33  ILE33      -0.2718
      5  CB        20.4870    4.2320   56.9780 C.3    33  ILE33       0.0266
      6  CG1       21.1540    5.0920   55.8910 C.3    33  ILE33       0.0019
      7  CG2       21.2000    2.9000   57.1620 C.3    33  ILE33       0.0020
      8  CD1       22.5280    5.6410   56.2660 C.3    33  ILE33       0.0001
      9  N         17.6820    5.8520   55.8040 N.am   34  GLY34      -0.1942
     10  CA        16.8560    7.0490   55.8780 C.3    34  GLY34       0.2014
     11  C         16.1270    7.3050   54.5750 C.2    34  GLY34       0.2638
     12  O         16.6120    6.9500   53.4980 O.2    34  GLY34      -0.2714
     13  N         14.9550    7.9220   54.6820 N.am   35  ARG35      -0.1977
     14  CA        14.1160    8.2030   53.5230 C.3    35  ARG35       0.1597
     15  C         13.8230    9.6900   53.4150 C.2    35  ARG35       0.2287
     16  O         13.4190   10.3270   54.3910 O.2    35  ARG35      -0.2864
     17  CB        12.8010    7.4180   53.5970 C.3    35  ARG35       0.0334
     18  CG        12.9690    5.9420   53.9280 C.3    35  ARG35       0.0492
     19  CD        11.8450    5.1080   53.3570 C.3    35  ARG35       0.2205
     20  NE        12.1320    3.6800   53.4790 N.pl3  35  ARG35      -0.0865
     21  CZ        11.6160    2.7380   52.6940 C.cat  35  ARG35       0.5346
     22  NH1       10.7830    3.0630   51.7100 N.pl3  35  ARG35       0.1354
     23  NH2       11.9400    1.4650   52.8880 N.pl3  35  ARG35       0.1354
     24  N         18.7610    7.1530   51.5010 N.3    41  VAL41      -0.1245
     25  CA        20.1700    7.1490   51.8930 C.3    41  VAL41       0.1561
     26  C         20.5930    5.7280   52.2960 C.2    41  VAL41       0.2260
     27  O         19.7860    4.9570   52.8250 O.2    41  VAL41      -0.2867
     28  CB        20.4900    8.2410   52.9870 C.3    41  VAL41       0.0252
     29  CG1       19.6690    8.0440   54.2400 C.3    41  VAL41       0.0019
     30  CG2       21.9760    8.2910   53.3290 C.3    41  VAL41       0.0019
     31  N         27.4520    7.9580   54.7820 N.3    57  ALA57      -0.1245
     32  CA        26.0700    7.8280   54.3430 C.3    57  ALA57       0.1562
     33  C         25.9400    8.4030   52.9380 C.2    57  ALA57       0.2260
     34  O         26.3410    9.5420   52.6770 O.2    57  ALA57      -0.2867
     35  CB        25.1310    8.5300   55.3080 C.3    57  ALA57       0.0290
     36  N         23.5120    9.4260   49.8710 N.3    59  LYS59      -0.1245
     37  CA        22.1460    9.7930   49.5330 C.3    59  LYS59       0.1561
     38  C         21.9140    9.8340   48.0270 C.2    59  LYS59       0.2260
     39  O         22.6980   10.4220   47.2760 O.2    59  LYS59      -0.2867
     40  CB        21.7720   11.1390   50.1510 C.3    59  LYS59       0.0271
     41  CG        20.2890   11.2640   50.4120 C.3    59  LYS59       0.0035
     42  CD        19.7880   12.6550   50.1380 C.3    59  LYS59       0.0206
     43  CE        18.2750   12.6740   50.1640 C.3    59  LYS59       0.1093
     44  NZ        17.7550   13.9290   49.5740 N.3    59  LYS59      -0.1314
     45  N         27.1940   19.4890   59.6170 N.3    84  LEU84      -0.1245
     46  CA        27.4460   18.2830   58.8240 C.3    84  LEU84       0.1561
     47  C         28.2390   18.6320   57.5690 C.2    84  LEU84       0.2260
     48  O         27.8600   19.5240   56.8100 O.2    84  LEU84      -0.2867
     49  CB        26.1440   17.5630   58.4510 C.3    84  LEU84       0.0270
     50  CG        26.2790   16.1970   57.7600 C.3    84  LEU84       0.0019
     51  CD1       26.7710   15.1260   58.7280 C.3    84  LEU84       0.0001
     52  CD2       24.9700   15.7750   57.1140 C.3    84  LEU84       0.0001
     53  N         28.0610   11.7320   52.4940 N.3    96  LEU96      -0.1231
     54  CA        28.1000   12.4650   53.7590 C.3    96  LEU96       0.1678
     55  C         28.7250   11.6000   54.8580 C.2    96  LEU96       0.2434
     56  O         28.6600   10.3760   54.7820 O.2    96  LEU96      -0.2733
     57  CB        26.6770   12.8780   54.1600 C.3    96  LEU96       0.0284
     58  CG        25.8250   13.6730   53.1640 C.3    96  LEU96       0.0019
     59  CD1       24.3390   13.5100   53.4750 C.3    96  LEU96       0.0001
     60  CD2       26.2200   15.1490   53.1290 C.3    96  LEU96       0.0001
     61  N         29.3320   12.2300   55.8880 N.am   97  PRO97      -0.2718
     62  CA        29.8060   11.4310   57.0210 C.3    97  PRO97       0.1535
     63  C         28.6580   10.6470   57.6460 C.2    97  PRO97       0.2599
     64  O         27.5420   11.1570   57.7350 O.2    97  PRO97      -0.2715
     65  CB        30.3100   12.4840   58.0140 C.3    97  PRO97       0.0310
     66  CG        30.6070   13.6790   57.1960 C.3    97  PRO97       0.0237
     67  CD        29.6190   13.6650   56.0660 C.3    97  PRO97       0.0939
     68  N         28.9270    9.4130   58.0620 N.am   98  TYR98      -0.1960
     69  CA        27.9180    8.6010   58.7250 C.3    98  TYR98       0.1771
     70  C         27.6530    9.1380   60.1290 C.2    98  TYR98       0.2619
     71  O         28.5860    9.3770   60.8990 O.2    98  TYR98      -0.2715
     72  CB        28.3540    7.1350   58.7760 C.3    98  TYR98       0.0574
     73  CG        27.3330    6.1930   59.3670 C.ar   98  TYR98      -0.0198
     74  CD1       27.5450    5.6030   60.6120 C.ar   98  TYR98      -0.0009
     75  CD2       26.1590    5.8810   58.6820 C.ar   98  TYR98      -0.0009
     76  CE1       26.6140    4.7300   61.1650 C.ar   98  TYR98       0.0417
     77  CE2       25.2220    5.0070   59.2250 C.ar   98  TYR98       0.0417
     78  CZ        25.4590    4.4340   60.4670 C.ar   98  TYR98       0.1957
     79  OH        24.5410    3.5660   61.0170 O.3    98  TYR98      -0.2866
     80  N         26.3770    9.3400   60.4420 N.am   99  MET99      -0.1963
     81  CA        25.9640    9.8130   61.7600 C.3    99  MET99       0.1736
     82  C         25.2950    8.6740   62.5190 C.2    99  MET99       0.2616
     83  O         24.1000    8.4350   62.3640 O.2    99  MET99      -0.2715
     84  CB        25.0150   11.0060   61.6300 C.3    99  MET99       0.0427
     85  CG        25.6150   12.2370   60.9630 C.3    99  MET99       0.0599
     86  SD        26.7330   13.1650   62.0350 S.3    99  MET99      -0.1393
     87  CE        28.3270   12.7780   61.3260 C.3    99  MET99       0.0692
     88  N         26.0820    7.9830   63.3430 N.am  100  LYS100     -0.1977
     89  CA        25.6520    6.7620   64.0320 C.3   100  LYS100      0.1596
     90  C         24.3100    6.8720   64.7600 C.2   100  LYS100      0.2287
     91  O         23.4930    5.9510   64.7040 O.2   100  LYS100     -0.2864
     92  CB        26.7420    6.2830   65.0050 C.3   100  LYS100      0.0298
     93  CG        26.5120    4.8800   65.5780 C.3   100  LYS100      0.0038
     94  CD        27.7510    4.3250   66.2700 C.3   100  LYS100      0.0206
     95  CE        27.8190    4.7630   67.7280 C.3   100  LYS100      0.1093
     96  NZ        28.9260    4.1030   68.4890 N.3   100  LYS100     -0.1314
     97  N         21.7850    8.9930   64.2870 N.3   102  GLY102     -0.1210
     98  CA        20.6920    9.5520   63.4910 C.3   102  GLY102      0.1956
     99  C         20.3230   10.9770   63.8660 C.2   102  GLY102      0.2611
    100  O         21.1700   11.7470   64.3260 O.2   102  GLY102     -0.2717
    101  N         19.0510   11.3180   63.6740 N.am  103  ASP103     -0.1973
    102  CA        18.5800   12.6770   63.8970 C.3   103  ASP103      0.1709
    103  C         18.2960   12.9650   65.3750 C.2   103  ASP103      0.2293
    104  O         17.9330   12.0690   66.1410 O.2   103  ASP103     -0.2864
    105  CB        17.3580   12.9940   63.0230 C.3   103  ASP103      0.1436
    106  CG        16.1170   12.2500   63.4620 C.2   103  ASP103      0.3671
    107  OD1       16.0800   11.0150   63.3000 O.co2 103  ASP103     -0.2456
    108  OD2       15.1790   12.9040   63.9660 O.co2 103  ASP103     -0.2456
    109  N         14.5730   11.9870   66.9520 N.3   106  ASN106     -0.1240
    110  CA        14.4440   10.5660   67.2540 C.3   106  ASN106      0.1653
    111  C         15.3230   10.1220   68.4270 C.2   106  ASN106      0.2266
    112  O         14.8840    9.3270   69.2600 O.2   106  ASN106     -0.2867
    113  CB        14.6970    9.7080   66.0090 C.3   106  ASN106      0.1155
    114  CG        13.4950    9.6660   65.0760 C.2   106  ASN106      0.2627
    115  OD1       13.6250    9.8610   63.8650 O.2   106  ASN106     -0.2716
    116  ND2       12.3160    9.4180   65.6390 N.am  106  ASN106     -0.0877
    117  N         14.5730   17.3880   63.9870 N.3   147  ARG147     -0.1231
    118  CA        14.5690   16.3250   62.9650 C.3   147  ARG147      0.1694
    119  C         15.6980   16.5220   61.9490 C.2   147  ARG147      0.2592
    120  O         16.1420   15.5690   61.3150 O.2   147  ARG147     -0.2718
    121  CB        13.2090   16.2660   62.2380 C.3   147  ARG147      0.0321
    122  CG        12.8720   17.5270   61.4350 C.3   147  ARG147      0.0489
    123  CD        11.5910   17.4250   60.6000 C.3   147  ARG147      0.2205
    124  NE        11.3080   18.7300   59.9930 N.pl3 147  ARG147     -0.0865
    125  CZ        10.6350   19.7080   60.5940 C.cat 147  ARG147      0.5346
    126  NH1       10.4580   20.8740   59.9860 N.pl3 147  ARG147      0.1354
    127  NH2       10.1320   19.5190   61.8060 N.pl3 147  ARG147      0.1354
    128  N         16.1620   17.7640   61.8160 N.am  148  ASN148     -0.1974
    129  CA        17.1410   18.1360   60.7970 C.3   148  ASN148      0.1688
    130  C         18.5790   18.3250   61.2970 C.2   148  ASN148      0.2292
    131  O         19.4400   18.8120   60.5650 O.2   148  ASN148     -0.2864
    132  CB        16.6500   19.3630   60.0280 C.3   148  ASN148      0.1181
    133  CG        15.4750   19.0400   59.1210 C.2   148  ASN148      0.2629
    134  OD1       15.3820   17.9370   58.5830 O.2   148  ASN148     -0.2716
    135  ND2       14.5750   20.0010   58.9460 N.am  148  ASN148     -0.0877
    136  N         21.7820   16.0830   63.3050 N.3   150  MET150     -0.1245
    137  CA        22.2360   14.7000   63.5160 C.3   150  MET150      0.1570
    138  C         23.2640   14.5830   64.6480 C.2   150  MET150      0.2261
    139  O         23.8960   15.5720   65.0140 O.2   150  MET150     -0.2867
    140  CB        22.8820   14.1360   62.2410 C.3   150  MET150      0.0387
    141  CG        22.1580   14.4000   60.9250 C.3   150  MET150      0.0595
    142  SD        20.8380   13.2410   60.5370 S.3   150  MET150     -0.1393
    143  CE        21.6770   11.6720   60.4710 C.3   150  MET150      0.0692
    144  N         22.3640   19.7780   60.0810 N.3   160  ALA160     -0.1231
    145  CA        22.3790   19.0670   58.8060 C.3   160  ALA160      0.1694
    146  C         21.2420   19.5530   57.9120 C.2   160  ALA160      0.2592
    147  O         20.7900   20.6940   58.0500 O.2   160  ALA160     -0.2718
    148  CB        22.2920   17.5720   59.0440 C.3   160  ALA160      0.0304
    149  N         20.7940   18.6930   56.9940 N.am  161  ASP161     -0.1974
    150  CA        19.6870   19.0090   56.0870 C.3   161  ASP161      0.1709
    151  C         19.8780   20.3620   55.3950 C.2   161  ASP161      0.2293
    152  O         18.9920   21.2150   55.4100 O.2   161  ASP161     -0.2864
    153  CB        18.3460   18.9530   56.8360 C.3   161  ASP161      0.1436
    154  CG        17.1690   19.3520   55.9630 C.2   161  ASP161      0.3671
    155  OD1       16.9950   18.7400   54.8870 O.co2 161  ASP161     -0.2456
    156  OD2       16.4270   20.2850   56.3500 O.co2 161  ASP161     -0.2456
    157  N         22.3460   17.9440   50.9420 N.3   165  ALA165     -0.1245
    158  CA        21.7120   17.0620   51.9220 C.3   165  ALA165      0.1562
    159  C         20.2600   17.4630   52.2280 C.2   165  ALA165      0.2260
    160  O         19.5310   16.7150   52.8790 O.2   165  ALA165     -0.2867
    161  CB        22.5420   17.0070   53.2080 C.3   165  ALA165      0.0290
    162  N         12.7050   15.0140   55.3710 N.3   169  TYR169     -0.1227
    163  CA        12.9670   13.6900   55.9320 C.3   169  TYR169      0.1736
    164  C         11.8080   13.1830   56.7920 C.2   169  TYR169      0.2595
    165  O         11.7150   11.9880   57.0650 O.2   169  TYR169     -0.2718
    166  CB        14.3010   13.6590   56.6890 C.3   169  TYR169      0.0548
    167  CG        15.5170   13.8370   55.8020 C.ar  169  TYR169     -0.0200
    168  CD1       16.0190   12.7750   55.0430 C.ar  169  TYR169     -0.0009
    169  CD2       16.1660   15.0670   55.7190 C.ar  169  TYR169     -0.0009
    170  CE1       17.1380   12.9390   54.2240 C.ar  169  TYR169      0.0417
    171  CE2       17.2810   15.2400   54.9050 C.ar  169  TYR169      0.0417
    172  CZ        17.7610   14.1750   54.1610 C.ar  169  TYR169      0.1957
    173  OH        18.8670   14.3540   53.3620 O.3   169  TYR169     -0.2866
    174  N         10.9300   14.0970   57.2050 N.am  170  ASP170     -0.1974
    175  CA         9.6750   13.7430   57.8750 C.3   170  ASP170      0.1709
    176  C          8.5360   14.5720   57.2790 C.2   170  ASP170      0.2293
    177  O          8.2780   15.7000   57.7140 O.2   170  ASP170     -0.2864
    178  CB         9.7700   13.9640   59.3930 C.3   170  ASP170      0.1436
    179  CG         8.6180   13.3120   60.1620 C.2   170  ASP170      0.3671
    180  OD1        7.5530   13.0310   59.5660 O.co2 170  ASP170     -0.2456
    181  OD2        8.7810   13.0780   61.3760 O.co2 170  ASP170     -0.2456
@<TRIPOS>BOND
     1    39    38    2
     2    38    37    1
     3    37    36    1
     4    37    40    1
     5    44    43    1
     6    42    43    1
     7    42    41    1
     8    40    41    1
     9   157   158    1
    10    24    25    1
    11    22    21    1
    12    25    26    1
    13    25    28    1
    14   158   159    1
    15   158   161    1
    16   159   160    2
    17    26    27    2
    18    53    54    1
    19    34    33    2
    20    21    23    1
    21    21    20    2
    22    33    32    1
    23    28    30    1
    24    28    29    1
    25    60    58    1
    26    58    59    1
    27    58    57    1
    28    19    20    1
    29    19    18    1
    30   173   172    1
    31    15    14    1
    32    15    16    2
    33    12    11    2
    34    14    17    1
    35    14    13    1
    36    17    18    1
    37    54    57    1
    38    54    55    1
    39   172   170   ar
    40   172   171   ar
    41   170   168   ar
    42    32    31    1
    43    32    35    1
    44    11    13   am
    45    11    10    1
    46    56    55    2
    47    55    61   am
    48   155   154   ar
    49   171   169   ar
    50   168   167   ar
    51     1     2    1
    52   162   163    1
    53   151   152    2
    54   151   150    1
    55   169   167   ar
    56   167   166    1
    57     9    10    1
    58     9     3   am
    59    61    67    1
    60    61    62    1
    61     6     8    1
    62     6     5    1
    63   163   166    1
    64   163   164    1
    65   154   156   ar
    66   154   153    1
    67    67    66    1
    68   150   153    1
    69   150   149    1
    70     2     3    1
    71     2     5    1
    72   164   165    2
    73   164   174   am
    74    48    47    2
    75     3     4    2
    76     5     7    1
    77   149   146   am
    78    62    63    1
    79    62    65    1
    80    52    50    1
    81    66    65    1
    82   174   175    1
    83   176   177    2
    84   176   175    1
    85    47    46    1
    86    63    64    2
    87    63    68   am
    88    50    49    1
    89    50    51    1
    90   175   178    1
    91   146   147    2
    92   146   145    1
    93    68    69    1
    94    49    46    1
    95   134   133    2
    96    75    77   ar
    97    75    73   ar
    98    69    72    1
    99    69    70    1
   100    72    73    1
   101   145   148    1
   102   145   144    1
   103    46    45    1
   104   135   133   am
   105   133   132    1
   106    77    78   ar
   107    73    74   ar
   108   178   179    1
   109   180   179   ar
   110   126   125    1
   111   124   125    2
   112   124   123    1
   113   132   129    1
   114    70    80   am
   115    70    71    2
   116   179   181   ar
   117    80    81    1
   118    78    79    1
   119    78    76   ar
   120   143   142    1
   121   142   141    1
   122   131   130    2
   123   125   127    1
   124   123   122    1
   125    74    76   ar
   126   129   130    1
   127   129   128    1
   128   141   140    1
   129    85    84    1
   130    85    86    1
   131   120   119    2
   132    87    86    1
   133   122   121    1
   134    84    81    1
   135    81    82    1
   136   128   119   am
   137   119   118    1
   138   121   118    1
   139   140   137    1
   140    83    82    2
   141    82    88   am
   142   118   117    1
   143   105   106    1
   144   105   102    1
   145   107   106   ar
   146   136   137    1
   147    88    89    1
   148   106   108   ar
   149    98    99    1
   150    98    97    1
   151   137   138    1
   152   101    99   am
   153   101   102    1
   154   115   114    2
   155    99   100    2
   156   102   103    1
   157    89    90    1
   158    89    92    1
   159   138   139    2
   160    91    90    2
   161    92    93    1
   162   114   116   am
   163   114   113    1
   164   103   104    2
   165    93    94    1
   166   113   110    1
   167    94    95    1
   168   109   110    1
   169   110   111    1
   170    95    96    1
   171   111   112    2
