@<TRIPOS>MOLECULE
tmp/3i5oA00.pdb
 70 68 0 0 0
SMALL
GASTEIGER

@<TRIPOS>ATOM
      1  N         21.5630   34.8400  115.6280 N.3    33  ASP33      -0.1239
      2  CA        22.0820   36.1620  115.9270 C.3    33  ASP33       0.1674
      3  C         21.0510   37.2210  115.5470 C.2    33  ASP33       0.2266
      4  O         20.8100   38.1680  116.2850 O.2    33  ASP33      -0.2867
      5  CB        23.3930   36.3890  115.1790 C.3    33  ASP33       0.1410
      6  CG        24.3420   37.3190  115.9210 C.2    33  ASP33       0.3668
      7  OD1       23.9010   38.0200  116.8460 O.co2  33  ASP33      -0.2456
      8  OD2       25.5400   37.3490  115.5720 O.co2  33  ASP33      -0.2456
      9  N         33.9330   34.4720  125.0270 N.3    94  THR94      -0.1218
     10  CA        34.4910   34.5560  123.6770 C.3    94  THR94       0.1862
     11  C         36.0150   34.5540  123.7380 C.2    94  THR94       0.2287
     12  O         36.6800   33.8570  122.9670 O.2    94  THR94      -0.2866
     13  CB        33.9910   35.8060  122.9350 C.3    94  THR94       0.1770
     14  OG1       32.5890   35.6710  122.6820 O.3    94  THR94      -0.2211
     15  CG2       34.7280   35.9940  121.5940 C.3    94  THR94       0.0375
     16  N         36.3330   31.8380  120.1790 N.3    99  ILE99      -0.1231
     17  CA        35.2290   31.8620  119.2400 C.3    99  ILE99       0.1692
     18  C         34.0130   32.4210  119.9700 C.2    99  ILE99       0.2593
     19  O         33.9450   32.3710  121.1940 O.2    99  ILE99      -0.2718
     20  CB        34.9240   30.4450  118.7210 C.3    99  ILE99       0.0266
     21  CG1       33.8430   30.4810  117.6410 C.3    99  ILE99       0.0019
     22  CG2       34.5110   29.5300  119.8640 C.3    99  ILE99       0.0020
     23  CD1       33.6980   29.1700  116.8920 C.3    99  ILE99       0.0001
     24  N         33.0650   32.9710  119.2250 N.am  100  GLY100     -0.1943
     25  CA        31.8690   33.5280  119.8170 C.3   100  GLY100      0.1998
     26  C         31.7350   34.9950  119.4850 C.2   100  GLY100      0.2481
     27  O         32.6210   35.5690  118.8560 O.2   100  GLY100     -0.2729
     28  N         30.6300   35.6080  119.9120 N.am  101  PRO101     -0.2715
     29  CA        30.3230   37.0070  119.5930 C.3   101  PRO101      0.1536
     30  C         31.3240   37.9890  120.1980 C.2   101  PRO101      0.2599
     31  O         31.7790   37.8040  121.3310 O.2   101  PRO101     -0.2715
     32  CB        28.9410   37.2130  120.2100 C.3   101  PRO101      0.0310
     33  CG        28.8040   36.1270  121.2390 C.3   101  PRO101      0.0237
     34  CD        29.5780   34.9720  120.7240 C.3   101  PRO101      0.0939
     35  N         31.6530   39.0290  119.4430 N.am  102  GLY102     -0.1941
     36  CA        32.5250   40.0760  119.9350 C.3   102  GLY102      0.2014
     37  C         33.9930   39.7160  119.8430 C.2   102  GLY102      0.2639
     38  O         34.8090   40.2480  120.5920 O.2   102  GLY102     -0.2714
     39  N         34.3370   38.8150  118.9210 N.am  103  GLY103     -0.1954
     40  CA        35.7200   38.4010  118.7490 C.3   103  GLY103      0.1869
     41  C         36.6610   39.5700  118.5250 C.2   103  GLY103      0.2309
     42  O         36.3700   40.4670  117.7380 O.2   103  GLY103     -0.2863
     43  N         26.7390   42.4170  122.8910 N.3   142  GLN142     -0.1245
     44  CA        25.6090   41.5180  123.0630 C.3   142  GLN142      0.1566
     45  C         25.8160   40.7140  124.3360 C.2   142  GLN142      0.2260
     46  O         26.8530   40.0700  124.5090 O.2   142  GLN142     -0.2867
     47  CB        25.4850   40.5670  121.8690 C.3   142  GLN142      0.0367
     48  CG        25.3510   41.2580  120.5210 C.3   142  GLN142      0.0905
     49  CD        25.1440   40.2740  119.3830 C.2   142  GLN142      0.2608
     50  OE1       24.0960   39.6360  119.2840 O.2   142  GLN142     -0.2717
     51  NE2       26.1430   40.1500  118.5150 N.am  142  GLN142     -0.0878
     52  N         35.2680   33.1040  112.3430 N.3   456  TRP456     -0.1227
     53  CA        34.2850   33.9290  111.6670 C.3   456  TRP456      0.1737
     54  C         34.6410   35.3980  111.8500 C.2   456  TRP456      0.2595
     55  O         34.0120   36.2670  111.2520 O.2   456  TRP456     -0.2718
     56  CB        32.8930   33.6870  112.2520 C.3   456  TRP456      0.0564
     57  CG        32.2680   32.3860  111.8660 C.ar  456  TRP456      0.0003
     58  CD1       32.1890   31.2570  112.6300 C.ar  456  TRP456      0.0946
     59  CD2       31.5960   32.0900  110.6380 C.ar  456  TRP456      0.0152
     60  NE1       31.5270   30.2680  111.9440 N.ar  456  TRP456     -0.2442
     61  CE2       31.1570   30.7520  110.7150 C.ar  456  TRP456      0.0810
     62  CE3       31.3460   32.8180  109.4700 C.ar  456  TRP456      0.0012
     63  CZ2       30.4590   30.1310  109.6760 C.ar  456  TRP456      0.0191
     64  CZ3       30.6540   32.1990  108.4330 C.ar  456  TRP456      0.0001
     65  CH2       30.2240   30.8670  108.5450 C.ar  456  TRP456      0.0015
     66  N         35.6580   35.6710  112.6730 N.am  457  ALA457     -0.1980
     67  CA        35.9870   37.0420  113.0530 C.3   457  ALA457      0.1597
     68  C         36.7360   37.8220  111.9710 C.2   457  ALA457      0.2287
     69  O         36.6800   39.0500  111.9370 O.2   457  ALA457     -0.2864
     70  CB        36.7710   37.0640  114.3710 C.3   457  ALA457      0.0319
@<TRIPOS>BOND
     1    64    65   ar
     2    64    62   ar
     3    65    63   ar
     4    62    59   ar
     5    63    61   ar
     6    59    61   ar
     7    59    57   ar
     8    61    60   ar
     9    55    54    2
    10    53    54    1
    11    53    56    1
    12    53    52    1
    13    54    66   am
    14    57    56    1
    15    57    58   ar
    16    69    68    2
    17    60    58   ar
    18    68    67    1
    19    66    67    1
    20    67    70    1
    21     5     6    1
    22     5     2    1
    23     3     2    1
    24     3     4    2
    25     8     6   ar
    26     1     2    1
    27     6     7   ar
    28    23    21    1
    29    21    20    1
    30    42    41    2
    31    51    49   am
    32    41    40    1
    33    20    17    1
    34    20    22    1
    35    40    39    1
    36    27    26    2
    37    39    37   am
    38    24    25    1
    39    24    18   am
    40    17    18    1
    41    17    16    1
    42    50    49    2
    43    49    48    1
    44    35    36    1
    45    35    30   am
    46    26    25    1
    47    26    28   am
    48    29    28    1
    49    29    30    1
    50    29    32    1
    51    37    36    1
    52    37    38    2
    53    28    34    1
    54    18    19    2
    55    30    31    2
    56    32    33    1
    57    48    47    1
    58    34    33    1
    59    15    13    1
    60    47    44    1
    61    14    13    1
    62    43    44    1
    63    13    10    1
    64    12    11    2
    65    44    45    1
    66    10    11    1
    67    10     9    1
    68    45    46    2
