@<TRIPOS>MOLECULE
tmp/3i5oA02.pdb
 106 108 0 0 0
SMALL
GASTEIGER

@<TRIPOS>ATOM
      1  N         18.2200   33.0130  102.9850 N.3    13  ALA13      -0.1245
      2  CA        19.0080   33.3600  104.1800 C.3    13  ALA13       0.1562
      3  C         19.6270   32.1370  104.8490 C.2    13  ALA13       0.2260
      4  O         20.7140   32.2100  105.4520 O.2    13  ALA13      -0.2867
      5  CB        18.1420   34.1460  105.1810 C.3    13  ALA13       0.0290
      6  N         20.4040   37.0450  114.4030 N.3    34  GLN34      -0.1245
      7  CA        19.5150   38.0800  113.9180 C.3    34  GLN34       0.1566
      8  C         18.3740   38.3960  114.8840 C.2    34  GLN34       0.2260
      9  O         18.0830   39.5670  115.1280 O.2    34  GLN34      -0.2867
     10  CB        18.9400   37.7030  112.5550 C.3    34  GLN34       0.0367
     11  CG        19.9460   37.7650  111.3920 C.3    34  GLN34       0.0905
     12  CD        20.7160   36.4690  111.1860 C.2    34  GLN34       0.2608
     13  OE1       20.6510   35.5460  112.0010 O.2    34  GLN34      -0.2717
     14  NE2       21.4510   36.3960  110.0820 N.am   34  GLN34      -0.0878
     15  N         25.5000   45.8040   99.8940 N.3   261  ASP261     -0.1239
     16  CA        25.7160   45.1920  101.2000 C.3   261  ASP261      0.1674
     17  C         27.1360   45.3790  101.7120 C.2   261  ASP261      0.2266
     18  O         27.3430   45.6900  102.8910 O.2   261  ASP261     -0.2867
     19  CB        25.4180   43.7020  101.1650 C.3   261  ASP261      0.1410
     20  CG        25.3230   43.1150  102.5620 C.2   261  ASP261      0.3668
     21  OD1       24.3930   43.4980  103.2990 O.co2 261  ASP261     -0.2456
     22  OD2       26.1900   42.2960  102.9540 O.co2 261  ASP261     -0.2456
     23  N         24.1830   28.6340   94.7200 N.3   380  TRP380     -0.1241
     24  CA        24.3810   30.0740   94.6150 C.3   380  TRP380      0.1605
     25  C         24.7770   30.4060   93.1810 C.2   380  TRP380      0.2264
     26  O         25.9400   30.7090   92.8780 O.2   380  TRP380     -0.2867
     27  CB        25.4450   30.5460   95.6060 C.3   380  TRP380      0.0550
     28  CG        25.0010   30.4960   97.0460 C.ar  380  TRP380      0.0003
     29  CD1       23.9910   29.7300   97.5790 C.ar  380  TRP380      0.0946
     30  CD2       25.5820   31.2130   98.1470 C.ar  380  TRP380      0.0152
     31  NE1       23.8980   29.9510   98.9450 N.ar  380  TRP380     -0.2442
     32  CE2       24.8570   30.8600   99.3100 C.ar  380  TRP380      0.0810
     33  CE3       26.6220   32.1400   98.2570 C.ar  380  TRP380      0.0012
     34  CZ2       25.1620   31.3850  100.5650 C.ar  380  TRP380      0.0191
     35  CZ3       26.9230   32.6600   99.5090 C.ar  380  TRP380      0.0001
     36  CH2       26.1920   32.2830  100.6390 C.ar  380  TRP380      0.0015
     37  N         31.9560   37.1010  101.2820 N.3   426  TRP426     -0.1227
     38  CA        31.6670   38.4680  101.7050 C.3   426  TRP426      0.1737
     39  C         32.7680   39.0270  102.6070 C.2   426  TRP426      0.2596
     40  O         33.7870   38.3710  102.8450 O.2   426  TRP426     -0.2718
     41  CB        30.3110   38.5280  102.4250 C.3   426  TRP426      0.0564
     42  CG        30.2460   37.7260  103.6990 C.ar  426  TRP426      0.0003
     43  CD1       30.6060   38.1510  104.9540 C.ar  426  TRP426      0.0946
     44  CD2       29.7890   36.3730  103.8530 C.ar  426  TRP426      0.0152
     45  NE1       30.3890   37.1500  105.8750 N.ar  426  TRP426     -0.2442
     46  CE2       29.8920   36.0500  105.2260 C.ar  426  TRP426      0.0810
     47  CE3       29.2920   35.4060  102.9700 C.ar  426  TRP426      0.0012
     48  CZ2       29.5280   34.7990  105.7280 C.ar  426  TRP426      0.0191
     49  CZ3       28.9290   34.1670  103.4730 C.ar  426  TRP426      0.0001
     50  CH2       29.0510   33.8750  104.8410 C.ar  426  TRP426      0.0015
     51  N         32.5560   40.2440  103.0970 N.am  427  SER427     -0.1938
     52  CA        33.4730   40.8560  104.0630 C.3   427  SER427      0.2055
     53  C         32.6730   41.7240  105.0290 C.2   427  SER427      0.2642
     54  O         32.0070   41.2040  105.9160 O.2   427  SER427     -0.2714
     55  CB        34.5830   41.6490  103.3560 C.3   427  SER427      0.2130
     56  OG        34.0770   42.6440  102.4760 O.3   427  SER427     -0.2179
     57  N         32.7460   43.0400  104.8600 N.am  428  VAL428     -0.1977
     58  CA        31.9280   43.9590  105.6490 C.3   428  VAL428      0.1596
     59  C         31.4190   45.0690  104.7280 C.2   428  VAL428      0.2287
     60  O         31.7510   45.0930  103.5430 O.2   428  VAL428     -0.2864
     61  CB        32.7060   44.5460  106.8420 C.3   428  VAL428      0.0276
     62  CG1       33.0710   43.4400  107.8240 C.3   428  VAL428      0.0022
     63  CG2       33.9550   45.2730  106.3560 C.3   428  VAL428      0.0022
     64  N         35.2680   33.1040  112.3430 N.3   456  TRP456     -0.1241
     65  CA        34.2850   33.9290  111.6670 C.3   456  TRP456      0.1605
     66  C         34.6410   35.3980  111.8500 C.2   456  TRP456      0.2264
     67  O         34.0120   36.2670  111.2520 O.2   456  TRP456     -0.2867
     68  CB        32.8930   33.6870  112.2520 C.3   456  TRP456      0.0550
     69  CG        32.2680   32.3860  111.8660 C.ar  456  TRP456      0.0003
     70  CD1       32.1890   31.2570  112.6300 C.ar  456  TRP456      0.0946
     71  CD2       31.5960   32.0900  110.6380 C.ar  456  TRP456      0.0152
     72  NE1       31.5270   30.2680  111.9440 N.ar  456  TRP456     -0.2442
     73  CE2       31.1570   30.7520  110.7150 C.ar  456  TRP456      0.0810
     74  CE3       31.3460   32.8180  109.4700 C.ar  456  TRP456      0.0012
     75  CZ2       30.4590   30.1310  109.6760 C.ar  456  TRP456      0.0191
     76  CZ3       30.6540   32.1990  108.4330 C.ar  456  TRP456      0.0001
     77  CH2       30.2240   30.8670  108.5450 C.ar  456  TRP456      0.0015
     78  N         18.8210   37.9860  105.7650 N.3   535  TRP535     -0.1227
     79  CA        20.0390   37.4140  106.3180 C.3   535  TRP535      0.1737
     80  C         20.9360   38.4190  107.0130 C.2   535  TRP535      0.2595
     81  O         21.9180   38.0290  107.6440 O.2   535  TRP535     -0.2718
     82  CB        20.8410   36.6420  105.2630 C.3   535  TRP535      0.0564
     83  CG        20.9310   37.2530  103.8900 C.ar  535  TRP535      0.0003
     84  CD1       20.2890   36.8120  102.7650 C.ar  535  TRP535      0.0946
     85  CD2       21.7300   38.3790  103.4760 C.ar  535  TRP535      0.0152
     86  NE1       20.6360   37.5870  101.6890 N.ar  535  TRP535     -0.2442
     87  CE2       21.5090   38.5610  102.0910 C.ar  535  TRP535      0.0810
     88  CE3       22.5990   39.2520  104.1400 C.ar  535  TRP535      0.0012
     89  CZ2       22.1380   39.5750  101.3520 C.ar  535  TRP535      0.0191
     90  CZ3       23.2180   40.2680  103.4090 C.ar  535  TRP535      0.0001
     91  CH2       22.9910   40.4150  102.0240 C.ar  535  TRP535      0.0015
     92  N         20.6140   39.7060  106.9230 N.am  536  HIS536     -0.1961
     93  CA        21.5270   40.6980  107.4780 C.3   536  HIS536      0.1787
     94  C         21.5490   40.6890  109.0100 C.2   536  HIS536      0.2620
     95  O         20.5230   40.4930  109.6640 O.2   536  HIS536     -0.2715
     96  CB        21.2180   42.0990  106.9570 C.3   536  HIS536      0.0785
     97  CG        22.3550   43.0490  107.1140 C.ar  536  HIS536      0.0821
     98  ND1       22.5710   43.7690  108.2700 N.ar  536  HIS536     -0.2267
     99  CD2       23.3720   43.3640  106.2740 C.ar  536  HIS536      0.1154
    100  CE1       23.6620   44.5010  108.1270 C.ar  536  HIS536      0.1986
    101  NE2       24.1670   44.2740  106.9250 N.ar  536  HIS536     -0.2212
    102  N         22.7310   40.8850  109.5840 N.am  537  ALA537     -0.1977
    103  CA        22.8780   40.9410  111.0340 C.3   537  ALA537      0.1597
    104  C         21.8960   41.9140  111.6750 C.2   537  ALA537      0.2287
    105  O         21.4720   41.7190  112.8110 O.2   537  ALA537     -0.2864
    106  CB        24.2980   41.3550  111.3850 C.3   537  ALA537      0.0319
@<TRIPOS>BOND
     1    26    25    2
     2    25    24    1
     3    24    23    1
     4    24    27    1
     5    27    28    1
     6    28    29   ar
     7    28    30   ar
     8    29    31   ar
     9    30    33   ar
    10    30    32   ar
    11    33    35   ar
    12    31    32   ar
    13    32    34   ar
    14    35    36   ar
    15    15    16    1
    16    34    36   ar
    17    19    16    1
    18    19    20    1
    19    16    17    1
    20    37    38    1
    21    89    91   ar
    22    89    87   ar
    23    86    87   ar
    24    86    84   ar
    25    38    41    1
    26    38    39    1
    27    17    18    2
    28    91    90   ar
    29    87    85   ar
    30    41    42    1
    31    56    55    1
    32    20    22   ar
    33    20    21   ar
    34    39    40    2
    35    39    51   am
    36    84    83   ar
    37    47    49   ar
    38    47    44   ar
    39     1     2    1
    40    51    52    1
    41    55    52    1
    42    90    88   ar
    43    49    50   ar
    44    85    83   ar
    45    85    88   ar
    46    60    59    2
    47    42    44   ar
    48    42    43   ar
    49    44    46   ar
    50    83    82    1
    51    52    53    1
    52     2     3    1
    53     2     5    1
    54    59    58    1
    55    50    48   ar
    56     3     4    2
    57    57    53   am
    58    57    58    1
    59    43    45   ar
    60    53    54    2
    61    46    48   ar
    62    46    45   ar
    63    82    79    1
    64    58    61    1
    65    78    79    1
    66    99   101   ar
    67    99    97   ar
    68    79    80    1
    69    63    61    1
    70    61    62    1
    71    92    80   am
    72    92    93    1
    73   101   100   ar
    74    96    97    1
    75    96    93    1
    76    80    81    2
    77    97    98   ar
    78    93    94    1
    79   100    98   ar
    80    76    77   ar
    81    76    74   ar
    82    77    75   ar
    83    94   102   am
    84    94    95    2
    85    74    71   ar
    86   102   103    1
    87    75    73   ar
    88    14    12   am
    89    71    73   ar
    90    71    69   ar
    91    73    72   ar
    92   103   106    1
    93   103   104    1
    94    12    11    1
    95    12    13    2
    96    67    66    2
    97    11    10    1
    98    65    66    1
    99    65    68    1
   100    65    64    1
   101   104   105    2
   102    69    68    1
   103    69    70   ar
   104    72    70   ar
   105    10     7    1
   106     7     6    1
   107     7     8    1
   108     8     9    2
