@<TRIPOS>MOLECULE
tmp/3i5oA03.pdb
 128 130 0 0 0
SMALL
GASTEIGER

@<TRIPOS>ATOM
      1  N         16.4360   32.5460  100.8190 N.3    12  GLY12      -0.1210
      2  CA        17.7670   33.0720  100.5730 C.3    12  GLY12       0.1956
      3  C         18.6420   33.3860  101.7810 C.2    12  GLY12       0.2611
      4  O         19.7190   33.9600  101.6130 O.2    12  GLY12      -0.2717
      5  N         18.2200   33.0130  102.9850 N.am   13  ALA13      -0.1979
      6  CA        19.0080   33.3600  104.1800 C.3    13  ALA13       0.1597
      7  C         19.6270   32.1370  104.8490 C.2    13  ALA13       0.2287
      8  O         20.7140   32.2100  105.4520 O.2    13  ALA13      -0.2864
      9  CB        18.1420   34.1460  105.1810 C.3    13  ALA13       0.0319
     10  N         20.8910   28.3660  104.0940 N.3    15  TRP15      -0.1241
     11  CA        21.3460   27.4130  103.0920 C.3    15  TRP15       0.1605
     12  C         22.0180   26.2500  103.7950 C.2    15  TRP15       0.2264
     13  O         22.7820   26.4470  104.7440 O.2    15  TRP15      -0.2867
     14  CB        22.3500   28.0810  102.1650 C.3    15  TRP15       0.0550
     15  CG        21.7540   29.1350  101.3040 C.ar   15  TRP15       0.0003
     16  CD1       21.7860   30.4790  101.5170 C.ar   15  TRP15       0.0946
     17  CD2       21.0370   28.9400  100.0770 C.ar   15  TRP15       0.0152
     18  NE1       21.1370   31.1340  100.5080 N.ar   15  TRP15      -0.2442
     19  CE2       20.6700   30.2130   99.6070 C.ar   15  TRP15       0.0810
     20  CE3       20.6820   27.8140   99.3310 C.ar   15  TRP15       0.0012
     21  CZ2       19.9650   30.3970   98.4160 C.ar   15  TRP15       0.0191
     22  CZ3       19.9750   27.9970   98.1450 C.ar   15  TRP15       0.0001
     23  CH2       19.6290   29.2790   97.7030 C.ar   15  TRP15       0.0015
     24  N         15.9250   37.0470  100.2440 N.3   231  GLY231     -0.1225
     25  CA        17.2730   37.5960  100.1790 C.3   231  GLY231      0.1811
     26  C         18.0810   36.8460   99.1350 C.2   231  GLY231      0.2280
     27  O         19.2320   36.4270   99.3540 O.2   231  GLY231     -0.2866
     28  N         25.5000   45.8040   99.8940 N.3   261  ASP261     -0.1239
     29  CA        25.7160   45.1920  101.2000 C.3   261  ASP261      0.1674
     30  C         27.1360   45.3790  101.7120 C.2   261  ASP261      0.2266
     31  O         27.3430   45.6900  102.8910 O.2   261  ASP261     -0.2867
     32  CB        25.4180   43.7020  101.1650 C.3   261  ASP261      0.1410
     33  CG        25.3230   43.1150  102.5620 C.2   261  ASP261      0.3668
     34  OD1       24.3930   43.4980  103.2990 O.co2 261  ASP261     -0.2456
     35  OD2       26.1900   42.2960  102.9540 O.co2 261  ASP261     -0.2456
     36  N         24.1830   28.6340   94.7200 N.3   380  TRP380     -0.1241
     37  CA        24.3810   30.0740   94.6150 C.3   380  TRP380      0.1605
     38  C         24.7770   30.4060   93.1810 C.2   380  TRP380      0.2264
     39  O         25.9400   30.7090   92.8780 O.2   380  TRP380     -0.2867
     40  CB        25.4450   30.5460   95.6060 C.3   380  TRP380      0.0550
     41  CG        25.0010   30.4960   97.0460 C.ar  380  TRP380      0.0003
     42  CD1       23.9910   29.7300   97.5790 C.ar  380  TRP380      0.0946
     43  CD2       25.5820   31.2130   98.1470 C.ar  380  TRP380      0.0152
     44  NE1       23.8980   29.9510   98.9450 N.ar  380  TRP380     -0.2442
     45  CE2       24.8570   30.8600   99.3100 C.ar  380  TRP380      0.0810
     46  CE3       26.6220   32.1400   98.2570 C.ar  380  TRP380      0.0012
     47  CZ2       25.1620   31.3850  100.5650 C.ar  380  TRP380      0.0191
     48  CZ3       26.9230   32.6600   99.5090 C.ar  380  TRP380      0.0001
     49  CH2       26.1920   32.2830  100.6390 C.ar  380  TRP380      0.0015
     50  N         27.1860   33.3530   91.8130 N.3   383  TRP383     -0.1241
     51  CA        28.5780   33.1470   92.2070 C.3   383  TRP383      0.1605
     52  C         29.1810   31.9290   91.5170 C.2   383  TRP383      0.2264
     53  O         30.3690   31.9210   91.1820 O.2   383  TRP383     -0.2867
     54  CB        28.6880   32.9940   93.7290 C.3   383  TRP383      0.0550
     55  CG        28.6130   34.2880   94.4800 C.ar  383  TRP383      0.0003
     56  CD1       28.1680   35.4900   94.0110 C.ar  383  TRP383      0.0946
     57  CD2       29.0020   34.5090   95.8440 C.ar  383  TRP383      0.0152
     58  NE1       28.2460   36.4450   94.9990 N.ar  383  TRP383     -0.2442
     59  CE2       28.7570   35.8710   96.1330 C.ar  383  TRP383      0.0810
     60  CE3       29.5320   33.6870   96.8480 C.ar  383  TRP383      0.0012
     61  CZ2       29.0080   36.4270   97.3980 C.ar  383  TRP383      0.0191
     62  CZ3       29.7840   34.2420   98.1110 C.ar  383  TRP383      0.0001
     63  CH2       29.5370   35.6010   98.3640 C.ar  383  TRP383      0.0015
     64  N         26.4570   24.4110  101.5120 N.3   408  PHE408     -0.1241
     65  CA        26.8410   25.5830  102.2920 C.3   408  PHE408      0.1605
     66  C         27.6430   25.2480  103.5380 C.2   408  PHE408      0.2264
     67  O         28.6590   25.8830  103.7990 O.2   408  PHE408     -0.2867
     68  CB        25.6250   26.4150  102.7170 C.3   408  PHE408      0.0534
     69  CG        25.9970   27.6120  103.5390 C.ar  408  PHE408     -0.0203
     70  CD1       26.3070   28.8170  102.9300 C.ar  408  PHE408     -0.0042
     71  CD2       26.0580   27.5270  104.9290 C.ar  408  PHE408     -0.0042
     72  CE1       26.6680   29.9180  103.6730 C.ar  408  PHE408     -0.0003
     73  CE2       26.4240   28.6230  105.6780 C.ar  408  PHE408     -0.0003
     74  CZ        26.7290   29.8220  105.0540 C.ar  408  PHE408     -0.0000
     75  N         31.9560   37.1010  101.2820 N.3   426  TRP426     -0.1241
     76  CA        31.6670   38.4680  101.7050 C.3   426  TRP426      0.1605
     77  C         32.7680   39.0270  102.6070 C.2   426  TRP426      0.2264
     78  O         33.7870   38.3710  102.8450 O.2   426  TRP426     -0.2867
     79  CB        30.3110   38.5280  102.4250 C.3   426  TRP426      0.0550
     80  CG        30.2460   37.7260  103.6990 C.ar  426  TRP426      0.0003
     81  CD1       30.6060   38.1510  104.9540 C.ar  426  TRP426      0.0946
     82  CD2       29.7890   36.3730  103.8530 C.ar  426  TRP426      0.0152
     83  NE1       30.3890   37.1500  105.8750 N.ar  426  TRP426     -0.2442
     84  CE2       29.8920   36.0500  105.2260 C.ar  426  TRP426      0.0810
     85  CE3       29.2920   35.4060  102.9700 C.ar  426  TRP426      0.0012
     86  CZ2       29.5280   34.7990  105.7280 C.ar  426  TRP426      0.0191
     87  CZ3       28.9290   34.1670  103.4730 C.ar  426  TRP426      0.0001
     88  CH2       29.0510   33.8750  104.8410 C.ar  426  TRP426      0.0015
     89  N         28.8580   43.6620   96.7500 N.3   507  THR507     -0.1203
     90  CA        27.7930   42.6840   96.8930 C.3   507  THR507      0.1994
     91  C         26.4540   43.3690   97.0400 C.2   507  THR507      0.2617
     92  O         26.3420   44.4000   97.7080 O.2   507  THR507     -0.2717
     93  CB        28.0140   41.8070   98.1180 C.3   507  THR507      0.1784
     94  OG1       28.4110   42.6340   99.2170 O.3   507  THR507     -0.2211
     95  CG2       29.1070   40.7760   97.8310 C.3   507  THR507      0.0376
     96  N         25.4560   42.7950   96.3870 N.am  508  ALA508     -0.1979
     97  CA        24.0930   43.2820   96.5020 C.3   508  ALA508      0.1597
     98  C         23.4670   42.8910   97.8330 C.2   508  ALA508      0.2287
     99  O         23.5970   41.7550   98.2920 O.2   508  ALA508     -0.2864
    100  CB        23.2620   42.7540   95.3510 C.3   508  ALA508      0.0319
    101  N         20.7600   41.6290   98.7850 N.3   510  TRP510     -0.1241
    102  CA        19.6000   40.9280   98.2060 C.3   510  TRP510      0.1605
    103  C         18.3720   41.1450   99.0840 C.2   510  TRP510      0.2264
    104  O         18.3840   40.8460  100.2770 O.2   510  TRP510     -0.2867
    105  CB        19.8110   39.4150   98.0980 C.3   510  TRP510      0.0550
    106  CG        21.0030   38.9840   97.2850 C.ar  510  TRP510      0.0003
    107  CD1       21.9760   38.1130   97.6780 C.ar  510  TRP510      0.0946
    108  CD2       21.3330   39.3830   95.9490 C.ar  510  TRP510      0.0152
    109  NE1       22.8980   37.9550   96.6790 N.ar  510  TRP510     -0.2442
    110  CE2       22.5270   38.7200   95.6010 C.ar  510  TRP510      0.0810
    111  CE3       20.7330   40.2340   95.0080 C.ar  510  TRP510      0.0012
    112  CZ2       23.1460   38.8880   94.3580 C.ar  510  TRP510      0.0191
    113  CZ3       21.3490   40.4010   93.7700 C.ar  510  TRP510      0.0001
    114  CH2       22.5390   39.7280   93.4570 C.ar  510  TRP510      0.0015
    115  N         18.8210   37.9860  105.7650 N.3   535  TRP535     -0.1241
    116  CA        20.0390   37.4140  106.3180 C.3   535  TRP535      0.1605
    117  C         20.9360   38.4190  107.0130 C.2   535  TRP535      0.2264
    118  O         21.9180   38.0290  107.6440 O.2   535  TRP535     -0.2867
    119  CB        20.8410   36.6420  105.2630 C.3   535  TRP535      0.0550
    120  CG        20.9310   37.2530  103.8900 C.ar  535  TRP535      0.0003
    121  CD1       20.2890   36.8120  102.7650 C.ar  535  TRP535      0.0946
    122  CD2       21.7300   38.3790  103.4760 C.ar  535  TRP535      0.0152
    123  NE1       20.6360   37.5870  101.6890 N.ar  535  TRP535     -0.2442
    124  CE2       21.5090   38.5610  102.0910 C.ar  535  TRP535      0.0810
    125  CE3       22.5990   39.2520  104.1400 C.ar  535  TRP535      0.0012
    126  CZ2       22.1380   39.5750  101.3520 C.ar  535  TRP535      0.0191
    127  CZ3       23.2180   40.2680  103.4090 C.ar  535  TRP535      0.0001
    128  CH2       22.9910   40.4150  102.0240 C.ar  535  TRP535      0.0015
@<TRIPOS>BOND
     1    53    52    2
     2    52    51    1
     3    50    51    1
     4    51    54    1
     5    39    38    2
     6    38    37    1
     7   114   113   ar
     8   114   112   ar
     9    54    55    1
    10   113   111   ar
    11    56    55   ar
    12    56    58   ar
    13   112   110   ar
    14    55    57   ar
    15    37    36    1
    16    37    40    1
    17    58    59   ar
    18   111   108   ar
    19   100    97    1
    20   110   108   ar
    21   110   109   ar
    22    40    41    1
    23    57    59   ar
    24    57    60   ar
    25   108   106   ar
    26    59    61   ar
    27    96    97    1
    28    96    91   am
    29    97    98    1
    30   109   107   ar
    31    89    90    1
    32    60    62   ar
    33    90    91    1
    34    90    93    1
    35    91    92    2
    36    41    42   ar
    37    41    43   ar
    38   106   107   ar
    39   106   105    1
    40    61    63   ar
    41    42    44   ar
    42    23    22   ar
    43    23    21   ar
    44    95    93    1
    45    98    99    2
    46   105   102    1
    47    62    63   ar
    48    93    94    1
    49    22    20   ar
    50    43    46   ar
    51    43    45   ar
    52   102   101    1
    53   102   103    1
    54    46    48   ar
    55    21    19   ar
    56    44    45   ar
    57   103   104    2
    58    26    27    2
    59    26    25    1
    60    45    47   ar
    61    20    17   ar
    62    48    49   ar
    63    19    17   ar
    64    19    18   ar
    65    28    29    1
    66    17    15   ar
    67    25    24    1
    68    18    16   ar
    69    47    49   ar
    70     2     1    1
    71     2     3    1
    72    32    29    1
    73    32    33    1
    74    29    30    1
    75    75    76    1
    76    15    16   ar
    77    15    14    1
    78   126   128   ar
    79   126   124   ar
    80    64    65    1
    81     4     3    2
    82   123   124   ar
    83   123   121   ar
    84    76    79    1
    85    76    77    1
    86    30    31    2
    87     3     5   am
    88   128   127   ar
    89   124   122   ar
    90    14    11    1
    91    65    68    1
    92    65    66    1
    93    79    80    1
    94    33    35   ar
    95    33    34   ar
    96    77    78    2
    97    68    69    1
    98   121   120   ar
    99    70    69   ar
   100    70    72   ar
   101    85    87   ar
   102    85    82   ar
   103     5     6    1
   104    11    12    1
   105    11    10    1
   106   127   125   ar
   107    87    88   ar
   108   122   120   ar
   109   122   125   ar
   110    66    67    2
   111    69    71   ar
   112    72    74   ar
   113    80    82   ar
   114    80    81   ar
   115    12    13    2
   116    82    84   ar
   117   120   119    1
   118     6     7    1
   119     6     9    1
   120    88    86   ar
   121     7     8    2
   122    71    73   ar
   123    81    83   ar
   124    74    73   ar
   125    84    86   ar
   126    84    83   ar
   127   119   116    1
   128   115   116    1
   129   116   117    1
   130   117   118    2
