@<TRIPOS>MOLECULE
tmp/3i5tA00.pdb
 124 120 0 0 0
SMALL
GASTEIGER

@<TRIPOS>ATOM
      1  N         -1.5180    0.9460   16.9160 N.3    51  MET51      -0.1230
      2  CA        -0.1880    1.2620   16.4400 C.3    51  MET51       0.1702
      3  C         -0.1680    2.7680   16.1450 C.2    51  MET51       0.2592
      4  O         -0.2110    3.1790   14.9890 O.2    51  MET51      -0.2718
      5  CB         0.1360    0.4170   15.2010 C.3    51  MET51       0.0401
      6  CG         1.5390    0.5900   14.6200 C.3    51  MET51       0.0596
      7  SD         2.1590   -0.9090   13.8290 S.3    51  MET51      -0.1393
      8  CE         2.8970   -1.6670   15.2780 C.3    51  MET51       0.0692
      9  N         -0.0920    3.5740   17.2080 N.am   52  TRP52      -0.1976
     10  CA        -0.2830    5.0430   17.1600 C.3    52  TRP52       0.1640
     11  C         -1.3440    5.5200   16.1750 C.2    52  TRP52       0.2290
     12  O         -1.1090    6.4560   15.4220 O.2    52  TRP52      -0.2864
     13  CB         1.0250    5.8540   16.9680 C.3    52  TRP52       0.0576
     14  CG         2.3210    5.1160   16.7030 C.ar   52  TRP52       0.0006
     15  CD1        2.6220    4.3140   15.6390 C.ar   52  TRP52       0.0946
     16  CD2        3.5150    5.1840   17.4950 C.ar   52  TRP52       0.0152
     17  NE1        3.9100    3.8470   15.7390 N.ar   52  TRP52      -0.2442
     18  CE2        4.4830    4.3680   16.8660 C.ar   52  TRP52       0.0810
     19  CE3        3.8570    5.8490   18.6830 C.ar   52  TRP52       0.0012
     20  CZ2        5.7700    4.1880   17.3890 C.ar   52  TRP52       0.0191
     21  CZ3        5.1340    5.6710   19.2000 C.ar   52  TRP52       0.0001
     22  CH2        6.0750    4.8450   18.5540 C.ar   52  TRP52       0.0015
     23  N         -1.8610    3.6750    2.6720 N.3   110  GLY110     -0.1210
     24  CA        -1.1010    3.6240    3.9120 C.3   110  GLY110      0.1956
     25  C          0.1280    4.5000    3.8760 C.2   110  GLY110      0.2612
     26  O          0.3670    5.2160    2.9010 O.2   110  GLY110     -0.2717
     27  N          0.9110    4.4310    4.9470 N.am  111  GLY111     -0.1942
     28  CA         2.0620    5.3080    5.1390 C.3   111  GLY111      0.2014
     29  C          3.2540    5.0560    4.2350 C.2   111  GLY111      0.2639
     30  O          3.8770    6.0060    3.7660 O.2   111  GLY111     -0.2714
     31  N          3.5810    3.7860    4.0070 N.am  112  SER112     -0.1949
     32  CA         4.6630    3.4040    3.0910 C.3   112  SER112      0.1924
     33  C          4.4280    3.8700    1.6720 C.2   112  SER112      0.2314
     34  O          5.3380    4.4060    1.0460 O.2   112  SER112     -0.2863
     35  CB         4.8500    1.8940    3.0630 C.3   112  SER112      0.2116
     36  OG         5.2140    1.4150    4.3340 O.3   112  SER112     -0.2180
     37  N         12.2070    5.9580   10.5890 N.3   144  TYR144     -0.1227
     38  CA        11.3600    4.9340    9.9670 C.3   144  TYR144      0.1736
     39  C         10.3910    5.5450    8.9620 C.2   144  TYR144      0.2595
     40  O          9.5620    6.3860    9.3210 O.2   144  TYR144     -0.2718
     41  CB        10.5480    4.1600   11.0120 C.3   144  TYR144      0.0548
     42  CG         9.8500    2.9430   10.4430 C.ar  144  TYR144     -0.0200
     43  CD1       10.4080    1.6740   10.5900 C.ar  144  TYR144     -0.0009
     44  CD2        8.6390    3.0520    9.7510 C.ar  144  TYR144     -0.0009
     45  CE1        9.7860    0.5440   10.0630 C.ar  144  TYR144      0.0417
     46  CE2        8.0110    1.9290    9.2130 C.ar  144  TYR144      0.0417
     47  CZ         8.5910    0.6750    9.3750 C.ar  144  TYR144      0.1957
     48  OH         7.9870   -0.4570    8.8630 O.3   144  TYR144     -0.2866
     49  N         10.4450    5.0670    7.7210 N.am  145  HIS145     -0.1961
     50  CA         9.5910    5.6200    6.6700 C.3   145  HIS145      0.1787
     51  C          8.7850    4.5950    5.8720 C.2   145  HIS145      0.2621
     52  O          8.0070    4.9600    4.9900 O.2   145  HIS145     -0.2715
     53  CB        10.3980    6.5700    5.7740 C.3   145  HIS145      0.0785
     54  CG        11.0270    7.6940    6.5340 C.ar  145  HIS145      0.0821
     55  ND1       10.3050    8.7750    6.9890 N.ar  145  HIS145     -0.2267
     56  CD2       12.2980    7.8840    6.9610 C.ar  145  HIS145      0.1154
     57  CE1       11.1060    9.5910    7.6480 C.ar  145  HIS145      0.1986
     58  NE2       12.3220    9.0750    7.6430 N.ar  145  HIS145     -0.2212
     59  N          8.9290    3.3150    6.2080 N.am  146  GLY146     -0.1940
     60  CA         8.0740    2.3230    5.5860 C.3   146  GLY146      0.2014
     61  C          8.6790    0.9830    5.2600 C.2   146  GLY146      0.2639
     62  O          9.8190    0.6890    5.6330 O.2   146  GLY146     -0.2714
     63  N          7.9020    0.1850    4.5330 N.am  147  SER147     -0.1949
     64  CA         8.2460   -1.2030    4.2710 C.3   147  SER147      0.1924
     65  C          8.1680   -1.6110    2.7930 C.2   147  SER147      0.2314
     66  O          8.2660   -2.7980    2.4660 O.2   147  SER147     -0.2863
     67  CB         7.3990   -2.1230    5.1380 C.3   147  SER147      0.2116
     68  OG         7.9190   -3.4440    5.1430 O.3   147  SER147     -0.2180
     69  N         10.6980   12.3200    9.8400 N.3   216  GLU216     -0.1245
     70  CA         9.7010   12.3900   10.9130 C.3   216  GLU216      0.1567
     71  C         10.0460   13.5730   11.8250 C.2   216  GLU216      0.2260
     72  O         11.2200   13.7640   12.1390 O.2   216  GLU216     -0.2867
     73  CB         9.8010   11.1560   11.7930 C.3   216  GLU216      0.0388
     74  CG         9.4250    9.8280   11.1900 C.3   216  GLU216      0.1160
     75  CD         9.8910    8.6790   12.0860 C.2   216  GLU216      0.3649
     76  OE1       11.1150    8.3850   12.1040 O.co2 216  GLU216     -0.2457
     77  OE2        9.0450    8.0940   12.7920 O.co2 216  GLU216     -0.2457
     78  N          9.5940    8.3110   16.0140 N.3   220  ALA220     -0.1231
     79  CA         8.7020    7.5080   16.8490 C.3   220  ALA220      0.1694
     80  C          9.1670    6.0650   17.0580 C.2   220  ALA220      0.2592
     81  O          9.4380    5.6690   18.1930 O.2   220  ALA220     -0.2718
     82  CB         7.2720    7.5540   16.2930 C.3   220  ALA220      0.0304
     83  N          9.2740    5.2970   15.9710 N.am  221  SER221     -0.1952
     84  CA         9.7530    3.8980   16.0050 C.3   221  SER221      0.1924
     85  C         11.1960    3.7760   16.4880 C.2   221  SER221      0.2314
     86  O         11.5990    2.7340   17.0110 O.2   221  SER221     -0.2863
     87  CB         9.6520    3.2470   14.6220 C.3   221  SER221      0.2116
     88  OG         8.3360    3.2870   14.1180 O.3   221  SER221     -0.2180
     89  N          7.4910   13.5700    7.3940 N.3   249  ASP249     -0.1239
     90  CA         6.6950   12.3580    7.4830 C.3   249  ASP249      0.1674
     91  C          5.8790   12.3900    8.7720 C.2   249  ASP249      0.2266
     92  O          6.3910   12.0600    9.8450 O.2   249  ASP249     -0.2867
     93  CB         7.6110   11.1300    7.4260 C.3   249  ASP249      0.1410
     94  CG         6.8500    9.8080    7.3720 C.2   249  ASP249      0.3668
     95  OD1        5.6260    9.7820    7.5520 O.co2 249  ASP249     -0.2456
     96  OD2        7.4920    8.7720    7.1460 O.co2 249  ASP249     -0.2456
     97  N          3.1940   10.5450    9.4770 N.3   251  VAL251     -0.1231
     98  CA         2.3860    9.3230    9.5710 C.3   251  VAL251      0.1692
     99  C          1.9930    9.0020   11.0260 C.2   251  VAL251      0.2591
    100  O          0.8510    8.6050   11.2900 O.2   251  VAL251     -0.2718
    101  CB         3.0710    8.1200    8.8310 C.3   251  VAL251      0.0266
    102  CG1        2.5260    6.7660    9.2780 C.3   251  VAL251      0.0020
    103  CG2        2.9130    8.2670    7.3120 C.3   251  VAL251      0.0020
    104  N          2.9130    9.2200   11.9650 N.am  252  VAL252     -0.1980
    105  CA         2.6050    9.0500   13.3920 C.3   252  VAL252      0.1595
    106  C          2.1580   10.3590   14.0470 C.2   252  VAL252      0.2287
    107  O          1.1440   10.3940   14.7470 O.2   252  VAL252     -0.2864
    108  CB         3.7960    8.4400   14.1840 C.3   252  VAL252      0.0276
    109  CG1        3.5230    8.4510   15.6770 C.3   252  VAL252      0.0022
    110  CG2        4.0670    7.0240   13.7270 C.3   252  VAL252      0.0022
    111  N         -0.9710    9.0810    7.5150 N.3   278  ALA278     -0.1231
    112  CA        -1.7700    7.8540    7.4790 C.3   278  ALA278      0.1694
    113  C         -2.4360    7.6990    8.8420 C.2   278  ALA278      0.2591
    114  O         -2.8440    8.6980    9.4370 O.2   278  ALA278     -0.2718
    115  CB        -0.9000    6.6310    7.1370 C.3   278  ALA278      0.0304
    116  N         -2.5510    6.4570    9.3170 N.am  279  LYS279     -0.1980
    117  CA        -2.9050    6.1390   10.7140 C.3   279  LYS279      0.1596
    118  C         -4.1000    6.8950   11.2940 C.2   279  LYS279      0.2287
    119  O         -5.2600    6.5400   11.0520 O.2   279  LYS279     -0.2864
    120  CB        -1.6780    6.3030   11.6190 C.3   279  LYS279      0.0298
    121  CG        -0.6850    5.1890   11.4650 C.3   279  LYS279      0.0038
    122  CD         0.5700    5.4160   12.2770 C.3   279  LYS279      0.0206
    123  CE         1.3500    4.1210   12.3790 C.3   279  LYS279      0.1093
    124  NZ         1.6800    3.5790   11.0310 N.3   279  LYS279     -0.1314
@<TRIPOS>BOND
     1    34    33    2
     2    33    32    1
     3    66    65    2
     4    23    24    1
     5    65    64    1
     6    26    25    2
     7    35    32    1
     8    35    36    1
     9    32    31    1
    10    30    29    2
    11    25    24    1
    12    25    27   am
    13    31    29   am
    14    29    28    1
    15    64    63    1
    16    64    67    1
    17    63    61   am
    18    27    28    1
    19    52    51    2
    20    67    68    1
    21    61    60    1
    22    61    62    2
    23    60    59    1
    24    53    54    1
    25    53    50    1
    26    51    59   am
    27    51    50    1
    28    54    56   ar
    29    54    55   ar
    30    50    49    1
    31    56    58   ar
    32    55    57   ar
    33   115   112    1
    34    96    94   ar
    35   103   101    1
    36    94    93    1
    37    94    95   ar
    38    89    90    1
    39    93    90    1
    40   112   111    1
    41   112   113    1
    42    90    91    1
    43    58    57   ar
    44    49    39   am
    45    91    92    2
    46   101   102    1
    47   101    98    1
    48   113   116   am
    49   113   114    2
    50    48    47    1
    51    39    40    2
    52    39    38    1
    53    46    47   ar
    54    46    44   ar
    55   116   117    1
    56    47    45   ar
    57    97    98    1
    58    98    99    1
    59    44    42   ar
    60    69    70    1
    61    38    37    1
    62    38    41    1
    63    45    43   ar
    64    42    43   ar
    65    42    41    1
    66   117   118    1
    67   117   120    1
    68    70    73    1
    69    70    71    1
    70    99   100    2
    71    99   104   am
    72   124   123    1
    73   119   118    2
    74    74    73    1
    75    74    75    1
    76   121   120    1
    77   121   122    1
    78    71    72    2
    79   104   105    1
    80    75    76   ar
    81    75    77   ar
    82   122   123    1
    83   105   106    1
    84   105   108    1
    85   110   108    1
    86     7     6    1
    87     7     8    1
    88   106   107    2
    89    88    87    1
    90   108   109    1
    91     6     5    1
    92    87    84    1
    93     4     3    2
    94     5     2    1
    95    12    11    2
    96    15    17   ar
    97    15    14   ar
    98    17    18   ar
    99    83    84    1
   100    83    80   am
   101    84    85    1
   102    78    79    1
   103     3     2    1
   104     3     9   am
   105    11    10    1
   106    82    79    1
   107     2     1    1
   108    85    86    2
   109    14    13    1
   110    14    16   ar
   111    79    80    1
   112    18    20   ar
   113    18    16   ar
   114    13    10    1
   115    80    81    2
   116    10     9    1
   117    20    22   ar
   118    16    19   ar
   119    22    21   ar
   120    19    21   ar
