@<TRIPOS>MOLECULE
tmp/3i5uB01.pdb
 142 138 0 0 0
SMALL
GASTEIGER

@<TRIPOS>ATOM
      1  N         39.2750  -39.1510  -38.0270 N.3    92  TRP92      -0.1241
      2  CA        39.7220  -37.8500  -37.5640 C.3    92  TRP92       0.1605
      3  C         39.8100  -36.8350  -38.7030 C.2    92  TRP92       0.2264
      4  O         39.6810  -35.6320  -38.4730 O.2    92  TRP92      -0.2867
      5  CB        41.0820  -37.9520  -36.8810 C.3    92  TRP92       0.0550
      6  CG        41.0290  -38.6190  -35.5530 C.ar   92  TRP92       0.0003
      7  CD1       41.0440  -39.9620  -35.3090 C.ar   92  TRP92       0.0946
      8  CD2       40.9470  -37.9780  -34.2730 C.ar   92  TRP92       0.0152
      9  NE1       40.9830  -40.1970  -33.9550 N.ar   92  TRP92      -0.2442
     10  CE2       40.9230  -38.9980  -33.2950 C.ar   92  TRP92       0.0810
     11  CE3       40.8940  -36.6430  -33.8580 C.ar   92  TRP92       0.0012
     12  CZ2       40.8510  -38.7250  -31.9240 C.ar   92  TRP92       0.0191
     13  CZ3       40.8250  -36.3690  -32.4910 C.ar   92  TRP92       0.0001
     14  CH2       40.8050  -37.4090  -31.5400 C.ar   92  TRP92       0.0015
     15  N         36.0050  -33.2590  -35.4520 N.3    99  VAL99      -0.1245
     16  CA        37.3690  -32.7540  -35.5890 C.3    99  VAL99       0.1561
     17  C         37.8230  -32.5360  -37.0420 C.2    99  VAL99       0.2260
     18  O         38.6800  -31.7020  -37.3050 O.2    99  VAL99      -0.2867
     19  CB        38.3650  -33.6820  -34.8650 C.3    99  VAL99       0.0252
     20  CG1       39.7870  -33.2080  -35.0960 C.3    99  VAL99       0.0019
     21  CG2       38.0510  -33.6980  -33.3820 C.3    99  VAL99       0.0019
     22  N         32.0990  -24.0660  -30.9250 N.3   128  PHE128     -0.1241
     23  CA        32.2100  -25.5010  -31.1180 C.3   128  PHE128      0.1605
     24  C         31.1390  -26.2440  -30.3200 C.2   128  PHE128      0.2264
     25  O         30.3850  -27.0430  -30.8660 O.2   128  PHE128     -0.2867
     26  CB        33.6000  -25.9690  -30.6780 C.3   128  PHE128      0.0534
     27  CG        33.8840  -27.4120  -30.9820 C.ar  128  PHE128     -0.0203
     28  CD1       34.0990  -27.8320  -32.2900 C.ar  128  PHE128     -0.0042
     29  CD2       33.9570  -28.3470  -29.9560 C.ar  128  PHE128     -0.0042
     30  CE1       34.3880  -29.1680  -32.5730 C.ar  128  PHE128     -0.0003
     31  CE2       34.2440  -29.6810  -30.2270 C.ar  128  PHE128     -0.0003
     32  CZ        34.4610  -30.0940  -31.5410 C.ar  128  PHE128     -0.0000
     33  N         32.0210  -36.6470  -32.2770 N.3   142  PHE142     -0.1241
     34  CA        33.0180  -36.1120  -31.3690 C.3   142  PHE142      0.1605
     35  C         33.2700  -37.0680  -30.1970 C.2   142  PHE142      0.2264
     36  O         34.4240  -37.3270  -29.8470 O.2   142  PHE142     -0.2867
     37  CB        32.6010  -34.7390  -30.8340 C.3   142  PHE142      0.0534
     38  CG        33.6750  -34.0660  -30.0140 C.ar  142  PHE142     -0.0203
     39  CD1       34.8910  -33.7070  -30.5970 C.ar  142  PHE142     -0.0042
     40  CD2       33.4990  -33.8430  -28.6550 C.ar  142  PHE142     -0.0042
     41  CE1       35.9170  -33.1400  -29.8380 C.ar  142  PHE142     -0.0003
     42  CE2       34.5190  -33.2770  -27.8880 C.ar  142  PHE142     -0.0003
     43  CZ        35.7330  -32.9270  -28.4870 C.ar  142  PHE142     -0.0000
     44  N         36.8230  -38.6810  -29.0580 N.3   146  MET146     -0.1245
     45  CA        37.4650  -38.5210  -27.7560 C.3   146  MET146      0.1570
     46  C         37.6510  -39.8830  -27.1400 C.2   146  MET146      0.2261
     47  O         38.6150  -40.1170  -26.4060 O.2   146  MET146     -0.2867
     48  CB        36.6320  -37.6550  -26.8070 C.3   146  MET146      0.0387
     49  CG        36.5980  -36.1760  -27.1710 C.3   146  MET146      0.0595
     50  SD        38.2420  -35.4560  -27.4040 S.3   146  MET146     -0.1393
     51  CE        38.3620  -35.5710  -29.1720 C.3   146  MET146      0.0692
     52  N         40.7220  -41.3440  -28.5330 N.3   149  HIS149     -0.1241
     53  CA        41.9330  -40.7060  -28.0330 C.3   149  HIS149      0.1621
     54  C         42.3330  -41.2760  -26.6700 C.2   149  HIS149      0.2264
     55  O         43.4660  -41.1210  -26.2290 O.2   149  HIS149     -0.2867
     56  CB        41.7440  -39.1780  -27.9810 C.3   149  HIS149      0.0745
     57  CG        41.7430  -38.5960  -26.5990 C.ar  149  HIS149      0.0817
     58  ND1       40.6080  -38.5230  -25.8180 N.ar  149  HIS149     -0.2268
     59  CD2       42.7440  -38.0620  -25.8570 C.ar  149  HIS149      0.1154
     60  CE1       40.9100  -37.9710  -24.6560 C.ar  149  HIS149      0.1986
     61  NE2       42.1990  -37.6830  -24.6530 N.ar  149  HIS149     -0.2212
     62  N         46.1830  -42.5110  -25.9920 N.3   153  ASP153     -0.1239
     63  CA        47.0300  -41.8830  -24.9720 C.3   153  ASP153      0.1674
     64  C         46.9440  -42.4040  -23.5390 C.2   153  ASP153      0.2266
     65  O         47.9060  -42.2840  -22.7770 O.2   153  ASP153     -0.2867
     66  CB        46.7670  -40.3660  -24.9170 C.3   153  ASP153      0.1410
     67  CG        46.8090  -39.6970  -26.2870 C.2   153  ASP153      0.3668
     68  OD1       47.6580  -40.0830  -27.1230 O.co2 153  ASP153     -0.2456
     69  OD2       45.9990  -38.7660  -26.5170 O.co2 153  ASP153     -0.2456
     70  N         41.2880  -33.9830  -20.4770 N.3   239  ALA239     -0.1245
     71  CA        41.2450  -33.2600  -21.7440 C.3   239  ALA239      0.1562
     72  C         40.1470  -32.2160  -21.7270 C.2   239  ALA239      0.2260
     73  O         39.3940  -32.0720  -22.6890 O.2   239  ALA239     -0.2867
     74  CB        41.0260  -34.2260  -22.8890 C.3   239  ALA239      0.0290
     75  N         42.5090  -27.7370  -21.2820 N.3   242  HIS242     -0.1226
     76  CA        43.1260  -27.1150  -22.4420 C.3   242  HIS242      0.1752
     77  C         42.1230  -26.6670  -23.4920 C.2   242  HIS242      0.2596
     78  O         42.5010  -26.1140  -24.5230 O.2   242  HIS242     -0.2718
     79  CB        44.2390  -27.9890  -23.0620 C.3   242  HIS242      0.0759
     80  CG        43.8120  -29.3550  -23.4940 C.ar  242  HIS242      0.0818
     81  ND1       42.7360  -29.5770  -24.3260 N.ar  242  HIS242     -0.2268
     82  CD2       44.3950  -30.5640  -23.3050 C.ar  242  HIS242      0.1154
     83  CE1       42.6800  -30.8600  -24.6380 C.ar  242  HIS242      0.1986
     84  NE2       43.6760  -31.4800  -24.0320 N.ar  242  HIS242     -0.2212
     85  N         40.8370  -26.8680  -23.2060 N.am  243  ASP243     -0.1974
     86  CA        39.7780  -26.4540  -24.1260 C.3   243  ASP243      0.1709
     87  C         39.2680  -25.0820  -23.7310 C.2   243  ASP243      0.2293
     88  O         38.3970  -24.5330  -24.3980 O.2   243  ASP243     -0.2864
     89  CB        38.5890  -27.4200  -24.0940 C.3   243  ASP243      0.1436
     90  CG        38.9890  -28.8580  -24.3300 C.2   243  ASP243      0.3671
     91  OD1       40.1240  -29.1110  -24.7810 O.co2 243  ASP243     -0.2456
     92  OD2       38.1550  -29.7440  -24.0690 O.co2 243  ASP243     -0.2456
     93  N         48.7100  -29.3280  -31.3970 N.3   279  MET279     -0.1245
     94  CA        47.5210  -29.3700  -30.5600 C.3   279  MET279      0.1570
     95  C         47.2530  -28.0080  -29.9260 C.2   279  MET279      0.2261
     96  O         46.1000  -27.6060  -29.7710 O.2   279  MET279     -0.2867
     97  CB        47.6940  -30.4220  -29.4640 C.3   279  MET279      0.0387
     98  CG        46.4990  -30.5890  -28.5390 C.3   279  MET279      0.0595
     99  SD        44.9990  -31.2310  -29.3440 S.3   279  MET279     -0.1393
    100  CE        45.7220  -32.4910  -30.4700 C.3   279  MET279      0.0692
    101  N         45.4620  -25.8410  -32.2630 N.3   282  ARG282     -0.1231
    102  CA        44.1110  -26.3270  -32.4830 C.3   282  ARG282      0.1694
    103  C         43.2420  -25.8590  -31.3260 C.2   282  ARG282      0.2591
    104  O         42.1210  -25.4110  -31.5380 O.2   282  ARG282     -0.2718
    105  CB        44.0740  -27.8540  -32.5980 C.3   282  ARG282      0.0321
    106  CG        42.6570  -28.4450  -32.7040 C.3   282  ARG282      0.0489
    107  CD        42.6470  -29.7490  -33.5030 C.3   282  ARG282      0.2205
    108  NE        43.8600  -30.5110  -33.2400 N.pl3 282  ARG282     -0.0865
    109  CZ        44.5150  -31.2160  -34.1520 C.cat 282  ARG282      0.5346
    110  NH1       44.0770  -31.2730  -35.4010 N.pl3 282  ARG282      0.1354
    111  NH2       45.6290  -31.8440  -33.8120 N.pl3 282  ARG282      0.1354
    112  N         43.7580  -25.9390  -30.1030 N.am  283  MET283     -0.1979
    113  CA        42.9780  -25.4970  -28.9580 C.3   283  MET283      0.1605
    114  C         42.6770  -24.0090  -29.0950 C.2   283  MET283      0.2287
    115  O         41.5750  -23.5540  -28.7830 O.2   283  MET283     -0.2864
    116  CB        43.7270  -25.7840  -27.6620 C.3   283  MET283      0.0413
    117  CG        43.9110  -27.2760  -27.3730 C.3   283  MET283      0.0598
    118  SD        42.3510  -28.2020  -27.1670 S.3   283  MET283     -0.1393
    119  CE        42.0970  -28.8880  -28.8140 C.3   283  MET283      0.0692
    120  N         40.0070  -23.6620  -31.9470 N.3   286  TYR286     -0.1227
    121  CA        38.7010  -24.2430  -31.6240 C.3   286  TYR286      0.1736
    122  C         37.9250  -23.4440  -30.5910 C.2   286  TYR286      0.2595
    123  O         36.7580  -23.1230  -30.8050 O.2   286  TYR286     -0.2718
    124  CB        38.8400  -25.6700  -31.0980 C.3   286  TYR286      0.0548
    125  CG        38.8170  -26.7520  -32.1540 C.ar  286  TYR286     -0.0200
    126  CD1       39.7330  -26.7520  -33.2000 C.ar  286  TYR286     -0.0009
    127  CD2       37.9200  -27.8230  -32.0630 C.ar  286  TYR286     -0.0009
    128  CE1       39.7730  -27.7920  -34.1250 C.ar  286  TYR286      0.0417
    129  CE2       37.9520  -28.8760  -32.9910 C.ar  286  TYR286      0.0417
    130  CZ        38.8880  -28.8520  -34.0160 C.ar  286  TYR286      0.1957
    131  OH        38.9740  -29.8900  -34.9090 O.3   286  TYR286     -0.2866
    132  N         38.5630  -23.1360  -29.4630 N.am  287  PHE287     -0.1976
    133  CA        37.8820  -22.3950  -28.4000 C.3   287  PHE287      0.1639
    134  C         38.7410  -21.3970  -27.6510 C.2   287  PHE287      0.2290
    135  O         38.3850  -20.9970  -26.5420 O.2   287  PHE287     -0.2864
    136  CB        37.2660  -23.3410  -27.3530 C.3   287  PHE287      0.0560
    137  CG        37.4950  -24.8030  -27.6140 C.ar  287  PHE287     -0.0200
    138  CD1       38.7720  -25.3500  -27.5440 C.ar  287  PHE287     -0.0042
    139  CD2       36.4210  -25.6420  -27.9170 C.ar  287  PHE287     -0.0042
    140  CE1       38.9790  -26.7140  -27.7730 C.ar  287  PHE287     -0.0003
    141  CE2       36.6180  -27.0050  -28.1450 C.ar  287  PHE287     -0.0003
    142  CZ        37.9010  -27.5400  -28.0740 C.ar  287  PHE287     -0.0000
@<TRIPOS>BOND
     1     3     4    2
     2     3     2    1
     3     1     2    1
     4     2     5    1
     5    18    17    2
     6    17    16    1
     7     5     6    1
     8    16    15    1
     9    16    19    1
    10     6     7   ar
    11     6     8   ar
    12   110   109    1
    13     7     9   ar
    14    20    19    1
    15   131   130    1
    16    19    21    1
    17     8    11   ar
    18     8    10   ar
    19   109   111    1
    20   109   108    2
    21   128   130   ar
    22   128   126   ar
    23   130   129   ar
    24     9    10   ar
    25    11    13   ar
    26   107   108    1
    27   107   106    1
    28    10    12   ar
    29   126   125   ar
    30   129   127   ar
    31   106   105    1
    32   105   102    1
    33    30    28   ar
    34    30    32   ar
    35    13    14   ar
    36   102   101    1
    37   102   103    1
    38    28    27   ar
    39    33    34    1
    40   125   127   ar
    41   125   124    1
    42   120   121    1
    43    12    14   ar
    44   121   124    1
    45   121   122    1
    46    32    31   ar
    47   104   103    2
    48    93    94    1
    49    34    37    1
    50    34    35    1
    51   103   112   am
    52    23    22    1
    53    23    26    1
    54    23    24    1
    55    27    26    1
    56    27    29   ar
    57    25    24    2
    58    37    38    1
    59   123   122    2
    60    39    38   ar
    61    39    41   ar
    62   122   132   am
    63    94    95    1
    64    94    97    1
    65   100    99    1
    66    31    29   ar
    67    35    36    2
    68   112   113    1
    69    38    40   ar
    70    95    96    2
    71    41    43   ar
    72    97    98    1
    73   132   133    1
    74    99    98    1
    75    51    50    1
    76   114   113    1
    77   114   115    2
    78    44    45    1
    79   113   116    1
    80   119   118    1
    81    40    42   ar
    82    52    53    1
    83    43    42   ar
    84   133   134    1
    85   133   136    1
    86   141   142   ar
    87   141   139   ar
    88   142   140   ar
    89    53    56    1
    90    53    54    1
    91    56    57    1
    92   139   137   ar
    93   140   138   ar
    94    45    46    1
    95    45    48    1
    96   116   117    1
    97   134   135    2
    98   137   138   ar
    99   137   136    1
   100    50    49    1
   101   117   118    1
   102    49    48    1
   103    46    47    2
   104    68    67   ar
   105    54    55    2
   106    57    59   ar
   107    57    58   ar
   108    69    67   ar
   109    67    66    1
   110    62    63    1
   111    59    61   ar
   112    58    60   ar
   113    63    66    1
   114    63    64    1
   115    91    90   ar
   116    60    61   ar
   117    83    81   ar
   118    83    84   ar
   119    78    77    2
   120    88    87    2
   121    90    89    1
   122    90    92   ar
   123    81    80   ar
   124    86    89    1
   125    86    87    1
   126    86    85    1
   127    84    82   ar
   128    64    65    2
   129    80    82   ar
   130    80    79    1
   131    77    85   am
   132    77    76    1
   133    79    76    1
   134    74    71    1
   135    73    72    2
   136    76    75    1
   137    71    72    1
   138    71    70    1
