@<TRIPOS>MOLECULE
tmp/3i5yA00.pdb
 209 199 0 0 0
SMALL
GASTEIGER

@<TRIPOS>ATOM
      1  N         60.4350   42.5880   17.9610 N.3    39  PHE39      -0.1228
      2  CA        60.7930   41.5810   18.9570 C.3    39  PHE39       0.1721
      3  C         60.5200   42.1500   20.3490 C.2    39  PHE39       0.2437
      4  O         60.8360   43.3050   20.6060 O.2    39  PHE39      -0.2733
      5  CB        62.2740   41.1990   18.8520 C.3    39  PHE39       0.0547
      6  CG        62.6530   40.5380   17.5530 C.ar   39  PHE39      -0.0202
      7  CD1       61.8600   39.5350   16.9960 C.ar   39  PHE39      -0.0042
      8  CD2       63.8300   40.8970   16.9020 C.ar   39  PHE39      -0.0042
      9  CE1       62.2170   38.9220   15.8020 C.ar   39  PHE39      -0.0003
     10  CE2       64.1970   40.2860   15.7090 C.ar   39  PHE39      -0.0003
     11  CZ        63.3890   39.2970   15.1580 C.ar   39  PHE39      -0.0000
     12  N         59.9480   41.3350   21.2560 N.am   40  PRO40      -0.2718
     13  CA        59.6630   41.7650   22.6340 C.3    40  PRO40       0.1535
     14  C         60.8050   42.5620   23.2610 C.2    40  PRO40       0.2599
     15  O         60.5780   43.6120   23.8560 O.2    40  PRO40      -0.2715
     16  CB        59.4740   40.4420   23.3750 C.3    40  PRO40       0.0310
     17  CG        58.9170   39.5280   22.3530 C.3    40  PRO40       0.0237
     18  CD        59.5200   39.9420   21.0260 C.3    40  PRO40       0.0939
     19  N         62.0170   42.0430   23.1240 N.am   41  GLY41      -0.1941
     20  CA        63.2260   42.7500   23.5120 C.3    41  GLY41       0.2014
     21  C         64.4070   42.1130   22.8020 C.2    41  GLY41       0.2639
     22  O         64.2240   41.3800   21.8290 O.2    41  GLY41      -0.2714
     23  N         65.6130   42.4060   23.2760 N.am   42  LEU42      -0.1963
     24  CA        66.8140   41.7330   22.8020 C.3    42  LEU42       0.1728
     25  C         67.0320   40.4920   23.6610 C.2    42  LEU42       0.2616
     26  O         66.7750   40.5200   24.8700 O.2    42  LEU42      -0.2715
     27  CB        68.0290   42.6620   22.8870 C.3    42  LEU42       0.0311
     28  CG        67.9930   43.9240   22.0140 C.3    42  LEU42       0.0022
     29  CD1       69.1980   44.8140   22.2890 C.3    42  LEU42       0.0001
     30  CD2       67.9270   43.5700   20.5390 C.3    42  LEU42       0.0001
     31  N         67.5040   39.4090   23.0400 N.am   43  THR43      -0.1951
     32  CA        67.7400   38.1480   23.7560 C.3    43  THR43       0.1897
     33  C         68.9210   38.2720   24.7250 C.2    43  THR43       0.2313
     34  O         69.7030   39.2200   24.6250 O.2    43  THR43      -0.2863
     35  CB        68.0240   36.9740   22.7820 C.3    43  THR43       0.1794
     36  OG1       69.2990   37.1640   22.1550 O.3    43  THR43      -0.2208
     37  CG2       66.9170   36.8520   21.7240 C.3    43  THR43       0.0378
     38  N         72.1730   38.4960   22.8390 N.3    46  GLN46      -0.1245
     39  CA        72.1840   39.7940   22.1630 C.3    46  GLN46       0.1566
     40  C         72.5310   40.9430   23.1250 C.2    46  GLN46       0.2260
     41  O         73.3760   41.7880   22.8060 O.2    46  GLN46      -0.2867
     42  CB        70.8380   40.0540   21.4720 C.3    46  GLN46       0.0367
     43  CG        70.6290   39.1990   20.2160 C.3    46  GLN46       0.0905
     44  CD        69.2050   39.2300   19.6790 C.2    46  GLN46       0.2608
     45  OE1       68.3260   39.8960   20.2270 O.2    46  GLN46      -0.2717
     46  NE2       68.9730   38.5070   18.5950 N.am   46  GLN46      -0.0878
     47  N         70.5360   26.9600   21.6550 N.3    67  THR67      -0.1203
     48  CA        69.8500   26.8810   20.3920 C.3    67  THR67       0.1994
     49  C         68.5770   27.7460   20.4360 C.2    67  THR67       0.2618
     50  O         67.7910   27.6830   21.3820 O.2    67  THR67      -0.2717
     51  CB        69.5310   25.4210   20.0200 C.3    67  THR67       0.1784
     52  OG1       68.7040   24.8260   21.0230 O.3    67  THR67      -0.2211
     53  CG2       70.8210   24.6180   19.8830 C.3    67  THR67       0.0376
     54  N         68.4470   28.6100   19.4390 N.am   68  GLY68      -0.1942
     55  CA        67.2190   29.3500   19.1550 C.3    68  GLY68       0.2014
     56  C         67.1230   30.7300   19.7820 C.2    68  GLY68       0.2640
     57  O         66.0700   31.3550   19.7390 O.2    68  GLY68      -0.2714
     58  N         68.2090   31.2210   20.3650 N.am   69  THR69      -0.1936
     59  CA        68.1180   32.4360   21.1620 C.3    69  THR69       0.2028
     60  C         68.7840   33.6300   20.4780 C.2    69  THR69       0.2643
     61  O         69.1590   34.5970   21.1310 O.2    69  THR69      -0.2714
     62  CB        68.6620   32.2000   22.5900 C.3    69  THR69       0.1808
     63  OG1       70.0870   32.0200   22.5570 O.3    69  THR69      -0.2208
     64  CG2       68.0020   30.9700   23.1910 C.3    69  THR69       0.0379
     65  N         68.9140   33.5580   19.1590 N.am   70  GLY70      -0.1939
     66  CA        69.2070   34.7400   18.3450 C.3    70  GLY70       0.2014
     67  C         70.6650   35.1310   18.2330 C.2    70  GLY70       0.2639
     68  O         70.9780   36.3030   18.0160 O.2    70  GLY70      -0.2714
     69  N         71.5610   34.1580   18.3600 N.am   71  LYS71      -0.1963
     70  CA        72.9860   34.4110   18.1540 C.3    71  LYS71       0.1728
     71  C         73.2840   35.1230   16.8290 C.2    71  LYS71       0.2617
     72  O         74.2110   35.9200   16.7670 O.2    71  LYS71      -0.2715
     73  CB        73.7870   33.1080   18.2310 C.3    71  LYS71       0.0311
     74  CG        73.8920   32.5300   19.6430 C.3    71  LYS71       0.0038
     75  CD        74.7660   31.2850   19.6760 C.3    71  LYS71       0.0206
     76  CE        74.0610   30.0570   19.1230 C.3    71  LYS71       0.1093
     77  NZ        73.0130   29.5650   20.0690 N.3    71  LYS71      -0.1314
     78  N         72.5080   34.8410   15.7810 N.am   72  THR72      -0.1937
     79  CA        72.7500   35.4400   14.4720 C.3    72  THR72       0.2028
     80  C         72.8040   36.9670   14.5780 C.2    72  THR72       0.2642
     81  O         73.8200   37.5660   14.2390 O.2    72  THR72      -0.2714
     82  CB        71.6860   35.0120   13.4030 C.3    72  THR72       0.1808
     83  OG1       71.5800   33.5820   13.3440 O.3    72  THR72      -0.2208
     84  CG2       72.0670   35.5290   12.0320 C.3    72  THR72       0.0379
     85  N         71.7270   37.5930   15.0560 N.am   73  PHE73      -0.1973
     86  CA        71.7090   39.0630   15.2060 C.3    73  PHE73       0.1639
     87  C         72.6360   39.5360   16.3320 C.2    73  PHE73       0.2290
     88  O         73.0480   40.6930   16.3530 O.2    73  PHE73      -0.2864
     89  CB        70.2940   39.6050   15.4390 C.3    73  PHE73       0.0560
     90  CG        69.3750   39.4760   14.2510 C.ar   73  PHE73      -0.0200
     91  CD1       69.7640   39.9020   12.9890 C.ar   73  PHE73      -0.0042
     92  CD2       68.0970   38.9600   14.4040 C.ar   73  PHE73      -0.0042
     93  CE1       68.8970   39.7890   11.9050 C.ar   73  PHE73      -0.0003
     94  CE2       67.2340   38.8480   13.3240 C.ar   73  PHE73      -0.0003
     95  CZ        67.6300   39.2580   12.0780 C.ar   73  PHE73      -0.0000
     96  N         73.4540   27.1480    5.8480 N.3   105  LEU105     -0.1245
     97  CA        73.5360   28.0730    6.9890 C.3   105  LEU105      0.1561
     98  C         74.1690   29.4070    6.5280 C.2   105  LEU105      0.2260
     99  O         73.7990   30.4710    7.0060 O.2   105  LEU105     -0.2867
    100  CB        74.2960   27.4500    8.1670 C.3   105  LEU105      0.0270
    101  CG        74.4070   28.2650    9.4640 C.3   105  LEU105      0.0019
    102  CD1       73.0440   28.6880   10.0480 C.3   105  LEU105      0.0001
    103  CD2       75.2150   27.4910   10.5180 C.3   105  LEU105      0.0001
    104  N         71.3700   31.0860    4.9100 N.3   108  GLN108     -0.1245
    105  CA        70.4290   31.5890    5.9160 C.3   108  GLN108      0.1566
    106  C         70.9070   32.9090    6.5270 C.2   108  GLN108      0.2260
    107  O         70.0990   33.7870    6.7940 O.2   108  GLN108     -0.2867
    108  CB        70.2080   30.5610    7.0300 C.3   108  GLN108      0.0367
    109  CG        69.2920   31.0480    8.1390 C.3   108  GLN108      0.0905
    110  CD        69.0340   30.0080    9.1920 C.2   108  GLN108      0.2608
    111  OE1       68.1240   29.1950    9.0540 O.2   108  GLN108     -0.2717
    112  NE2       69.8080   30.0440   10.2730 N.am  108  GLN108     -0.0878
    113  N         69.1750   36.7330    6.5590 N.3   112  GLU112     -0.1245
    114  CA        68.9180   37.5690    7.7130 C.3   112  GLU112      0.1567
    115  C         69.4810   38.9640    7.4690 C.2   112  GLU112      0.2260
    116  O         68.8160   39.9600    7.7640 O.2   112  GLU112     -0.2867
    117  CB        69.5370   36.9660    8.9840 C.3   112  GLU112      0.0388
    118  CG        68.9540   35.6170    9.4040 C.3   112  GLU112      0.1160
    119  CD        67.4630   35.6770    9.7150 C.2   112  GLU112      0.3649
    120  OE1       67.0540   36.5510   10.5080 O.co2 112  GLU112     -0.2457
    121  OE2       66.7020   34.8580    9.1530 O.co2 112  GLU112     -0.2457
    122  N         67.0450   40.6400    5.4570 N.3   115  LYS115     -0.1245
    123  CA        65.9220   41.0830    6.3020 C.3   115  LYS115      0.1561
    124  C         66.2060   42.4230    7.0140 C.2   115  LYS115      0.2260
    125  O         65.3020   43.2460    7.1690 O.2   115  LYS115     -0.2867
    126  CB        65.5420   40.0180    7.3340 C.3   115  LYS115      0.0271
    127  CG        64.7230   38.8560    6.7700 C.3   115  LYS115      0.0035
    128  CD        64.5250   37.7670    7.8270 C.3   115  LYS115      0.0206
    129  CE        64.0560   36.4640    7.2090 C.3   115  LYS115      0.1093
    130  NZ        63.9350   35.3790    8.2170 N.3   115  LYS115     -0.1314
    131  N         80.5960   31.0750   12.8990 N.3   180  ASP180     -0.1225
    132  CA        79.3440   30.5500   13.4380 C.3   180  ASP180      0.1805
    133  C         79.5010   29.0440   13.5340 C.2   180  ASP180      0.2597
    134  O         80.2280   28.4390   12.7470 O.2   180  ASP180     -0.2718
    135  CB        78.1390   30.9180   12.5680 C.3   180  ASP180      0.1424
    136  CG        76.8020   30.8250   13.3270 C.2   180  ASP180      0.3668
    137  OD1       76.7840   30.5460   14.5530 O.co2 180  ASP180     -0.2456
    138  OD2       75.7510   31.0420   12.6890 O.co2 180  ASP180     -0.2456
    139  N         78.8360   28.4430   14.5080 N.am  181  GLU181     -0.1979
    140  CA        79.0870   27.0550   14.8480 C.3   181  GLU181      0.1602
    141  C         80.6030   26.8370   14.9910 C.2   181  GLU181      0.2287
    142  O         81.1670   25.9290   14.3900 O.2   181  GLU181     -0.2864
    143  CB        78.4820   26.1250   13.7940 C.3   181  GLU181      0.0415
    144  CG        77.0100   26.3960   13.4590 C.3   181  GLU181      0.1163
    145  CD        76.0540   26.2490   14.6470 C.2   181  GLU181      0.3649
    146  OE1       76.3900   25.5620   15.6420 O.co2 181  GLU181     -0.2457
    147  OE2       74.9380   26.8190   14.5690 O.co2 181  GLU181     -0.2457
    148  N         76.3080   27.0250   20.3690 N.3   219  ALA219     -0.1245
    149  CA        75.5590   26.5200   21.5190 C.3   219  ALA219      0.1562
    150  C         76.3780   25.5220   22.3290 C.2   219  ALA219      0.2260
    151  O         76.0170   25.2000   23.4500 O.2   219  ALA219     -0.2867
    152  CB        74.2580   25.8790   21.0650 C.3   219  ALA219      0.0290
    153  N         72.2280   25.2460   13.2400 N.3   352  GLY352     -0.1225
    154  CA        71.9380   26.6040   12.7860 C.3   352  GLY352      0.1811
    155  C         70.6210   26.8350   12.0800 C.2   352  GLY352      0.2280
    156  O         69.9980   27.8830   12.2690 O.2   352  GLY352     -0.2866
    157  N         67.0890   27.4680   10.8900 N.3   354  ASP354     -0.1239
    158  CA        65.9970   28.0700   11.6360 C.3   354  ASP354      0.1674
    159  C         64.7270   27.8560   10.8200 C.2   354  ASP354      0.2266
    160  O         64.4920   28.5340    9.8180 O.2   354  ASP354     -0.2867
    161  CB        66.2740   29.5600   11.8490 C.3   354  ASP354      0.1410
    162  CG        65.1250   30.2740   12.5120 C.2   354  ASP354      0.3668
    163  OD1       64.7750   29.8870   13.6580 O.co2 354  ASP354     -0.2456
    164  OD2       64.5830   31.2260   11.8920 O.co2 354  ASP354     -0.2456
    165  N         60.8270   27.8630   11.4650 N.3   356  PRO356     -0.2116
    166  CA        59.8940   28.2390   12.5290 C.3   356  PRO356      0.1372
    167  C         58.8620   27.1670   12.8890 C.2   356  PRO356      0.2244
    168  O         58.3850   26.4350   12.0220 O.2   356  PRO356     -0.2868
    169  CB        59.1870   29.4810   11.9610 C.3   356  PRO356      0.0268
    170  CG        60.1190   30.0280   10.9550 C.3   356  PRO356      0.0207
    171  CD        60.8000   28.8300   10.3540 C.3   356  PRO356      0.0892
    172  N         72.2670   20.1440   19.0660 N.3   375  HIS375     -0.1241
    173  CA        71.9030   21.0070   17.9570 C.3   375  HIS375      0.1621
    174  C         70.7000   20.4630   17.1800 C.2   375  HIS375      0.2264
    175  O         69.8010   21.2250   16.8170 O.2   375  HIS375     -0.2867
    176  CB        73.0940   21.1950   17.0310 C.3   375  HIS375      0.0745
    177  CG        74.2560   21.8880   17.6760 C.ar  375  HIS375      0.0817
    178  ND1       74.2750   23.2460   17.9120 N.ar  375  HIS375     -0.2268
    179  CD2       75.4510   21.4160   18.1000 C.ar  375  HIS375      0.1154
    180  CE1       75.4250   23.5760   18.4690 C.ar  375  HIS375      0.1986
    181  NE2       76.1590   22.4860   18.5880 N.ar  375  HIS375     -0.2212
    182  N         66.5520   22.3460   16.6720 N.3   379  ARG379     -0.1245
    183  CA        65.7730   22.8070   15.5210 C.3   379  ARG379      0.1563
    184  C         64.3240   23.1130   15.9060 C.2   379  ARG379      0.2260
    185  O         63.6220   23.8100   15.1640 O.2   379  ARG379     -0.2867
    186  CB        65.7990   21.7910   14.3780 C.3   379  ARG379      0.0307
    187  CG        67.1900   21.4060   13.8690 C.3   379  ARG379      0.0489
    188  CD        68.0940   22.6000   13.6090 C.3   379  ARG379      0.2205
    189  NE        69.0460   22.8300   14.6970 N.pl3 379  ARG379     -0.0865
    190  CZ        69.5120   24.0240   15.0620 C.cat 379  ARG379      0.5346
    191  NH1       69.1120   25.1300   14.4490 N.pl3 379  ARG379      0.1354
    192  NH2       70.3900   24.1220   16.0530 N.pl3 379  ARG379      0.1354
    193  N         62.3750   27.0970   19.4220 N.3   382  ARG382     -0.1231
    194  CA        63.1390   28.2930   19.0700 C.3   382  ARG382      0.1694
    195  C         62.3480   29.5800   19.3330 C.2   382  ARG382      0.2592
    196  O         61.1300   29.6140   19.1490 O.2   382  ARG382     -0.2718
    197  CB        63.5580   28.2170   17.5980 C.3   382  ARG382      0.0321
    198  CG        64.4440   27.0220   17.3070 C.3   382  ARG382      0.0489
    199  CD        64.7760   26.8730   15.8280 C.3   382  ARG382      0.2205
    200  NE        65.7390   27.8600   15.3490 N.pl3 382  ARG382     -0.0865
    201  CZ        67.0450   27.8380   15.6100 C.cat 382  ARG382      0.5346
    202  NH1       67.5740   26.8930   16.3740 N.pl3 382  ARG382      0.1354
    203  NH2       67.8280   28.7810   15.1020 N.pl3 382  ARG382      0.1354
    204  N         63.0640   30.6300   19.7460 N.am  383  SER383     -0.1952
    205  CA        62.4840   31.9330   20.1280 C.3   383  SER383      0.1924
    206  C         61.1980   31.8060   20.9260 C.2   383  SER383      0.2314
    207  O         60.1170   32.1220   20.4350 O.2   383  SER383     -0.2863
    208  CB        62.2720   32.8400   18.9020 C.3   383  SER383      0.2116
    209  OG        61.7190   32.1250   17.8100 O.3   383  SER383     -0.2180
@<TRIPOS>BOND
     1   104   105    1
     2   122   123    1
     3    96    97    1
     4   105   106    1
     5   105   108    1
     6   123   124    1
     7   123   126    1
     8   106   107    2
     9    98    97    1
    10    98    99    2
    11   113   114    1
    12   127   126    1
    13   127   128    1
    14    97   100    1
    15   124   125    2
    16   108   109    1
    17   129   128    1
    18   129   130    1
    19   115   114    1
    20   115   116    2
    21   114   117    1
    22   109   110    1
    23   100   101    1
    24   117   118    1
    25   111   110    2
    26   121   119   ar
    27   110   112   am
    28   118   119    1
    29   101   102    1
    30   101   103    1
    31   119   120   ar
    32   160   159    2
    33   171   170    1
    34   171   165    1
    35   159   158    1
    36   157   158    1
    37   170   169    1
    38   165   166    1
    39   158   161    1
    40   161   162    1
    41   164   162   ar
    42    93    95   ar
    43    93    91   ar
    44   169   166    1
    45   168   167    2
    46    84    82    1
    47    95    94   ar
    48   155   156    2
    49   155   154    1
    50   162   163   ar
    51   166   167    1
    52   135   136    1
    53   135   132    1
    54   138   136   ar
    55   134   133    2
    56   154   153    1
    57   131   132    1
    58    91    90   ar
    59    94    92   ar
    60   136   137   ar
    61    83    82    1
    62    82    79    1
    63   132   133    1
    64   144   143    1
    65   144   145    1
    66   133   139   am
    67   188   187    1
    68   188   189    1
    69   143   140    1
    70   187   186    1
    71    81    80    2
    72    90    92   ar
    73    90    89    1
    74   186   183    1
    75   142   141    2
    76   191   190    1
    77    79    80    1
    78    79    78    1
    79   139   140    1
    80   147   145   ar
    81    80    85   am
    82   145   146   ar
    83   189   190    2
    84   140   141    1
    85    85    86    1
    86   190   192    1
    87   203   201    1
    88    11    10   ar
    89    11     9   ar
    90   185   184    2
    91    86    89    1
    92    86    87    1
    93   200   201    2
    94   200   199    1
    95   183   184    1
    96   183   182    1
    97   201   202    1
    98    10     8   ar
    99    78    71   am
   100     9     7   ar
   101   199   198    1
   102    87    88    2
   103    72    71    2
   104   175   174    2
   105    71    70    1
   106     8     6   ar
   107     7     6   ar
   108   176   177    1
   109   176   173    1
   110   174   173    1
   111   198   197    1
   112     6     5    1
   113   197   194    1
   114   177   178   ar
   115   177   179   ar
   116   209   208    1
   117   178   180   ar
   118   173   172    1
   119     1     2    1
   120    68    67    2
   121   179   181   ar
   122    70    73    1
   123    70    69    1
   124    73    74    1
   125    67    66    1
   126    67    69   am
   127    66    65    1
   128   180   181   ar
   129    46    44   am
   130     5     2    1
   131   208   205    1
   132     2     3    1
   133   194   195    1
   134   194   193    1
   135    76    75    1
   136    76    77    1
   137   196   195    2
   138    55    54    1
   139    55    56    1
   140    65    60   am
   141   195   204   am
   142    54    49   am
   143    74    75    1
   144    44    43    1
   145    44    45    2
   146    57    56    2
   147   204   205    1
   148    56    58   am
   149    53    51    1
   150    51    48    1
   151    51    52    1
   152   205   206    1
   153    43    42    1
   154     3     4    2
   155     3    12   am
   156    58    59    1
   157   148   149    1
   158    48    49    1
   159    48    47    1
   160   207   206    2
   161    49    50    2
   162    60    61    2
   163    60    59    1
   164    30    28    1
   165    18    12    1
   166    18    17    1
   167   152   149    1
   168    59    62    1
   169    12    13    1
   170    42    39    1
   171   149   150    1
   172    37    35    1
   173    22    21    2
   174    28    29    1
   175    28    27    1
   176    36    35    1
   177    39    38    1
   178    39    40    1
   179   150   151    2
   180    17    16    1
   181    63    62    1
   182    62    64    1
   183    13    14    1
   184    13    16    1
   185    35    32    1
   186    21    23   am
   187    21    20    1
   188    24    27    1
   189    24    23    1
   190    24    25    1
   191    41    40    2
   192    31    25   am
   193    31    32    1
   194    19    14   am
   195    19    20    1
   196    14    15    2
   197    25    26    2
   198    32    33    1
   199    34    33    2
