@<TRIPOS>MOLECULE
tmp/3i5zA00.pdb
 202 192 0 0 0
SMALL
GASTEIGER

@<TRIPOS>ATOM
      1  N          3.2890   -9.3810   45.1610 N.3    24  ILE24      -0.1231
      2  CA         3.2960   -8.2550   44.2220 C.3    24  ILE24       0.1696
      3  C          4.5890   -8.1110   43.4180 C.2    24  ILE24       0.2632
      4  O          4.5850   -7.4690   42.3660 O.2    24  ILE24      -0.2714
      5  CB         2.8080   -6.8900   44.8490 C.3    24  ILE24       0.0266
      6  CG1        3.5540   -6.5420   46.1380 C.3    24  ILE24       0.0019
      7  CG2        1.2920   -6.9230   45.0730 C.3    24  ILE24       0.0020
      8  CD1        3.2330   -5.1750   46.7030 C.3    24  ILE24       0.0001
      9  N          5.6760   -8.7210   43.8830 N.am   25  GLY25      -0.1718
     10  CA         6.9590   -8.6560   43.1760 C.2    25  GLY25       0.1480
     11  C          8.1400   -9.2730   43.9130 C.2    25  GLY25       0.2820
     12  O          8.0220   -9.7180   45.0570 O.2    25  GLY25      -0.2669
     13  N          9.2950   -9.2790   43.2530 N.am   26  GLU26      -0.1929
     14  CA        10.4850   -9.9500   43.7870 C.3    26  GLU26       0.1736
     15  C         11.7950   -9.2630   43.3800 C.2    26  GLU26       0.2617
     16  O         11.8160   -8.3840   42.5150 O.2    26  GLU26      -0.2715
     17  CB        10.4900  -11.4080   43.3290 C.3    26  GLU26       0.0429
     18  CG        10.8230  -11.5590   41.8670 C.3    26  GLU26       0.1163
     19  CD        10.5750  -12.9420   41.3370 C.2    26  GLU26       0.3649
     20  OE1       10.7600  -13.1250   40.1120 O.co2  26  GLU26      -0.2457
     21  OE2       10.1970  -13.8420   42.1280 O.co2  26  GLU26      -0.2457
     22  N         12.8860   -9.6760   44.0160 N.am   27  GLY27      -0.1940
     23  CA        14.2200   -9.1860   43.6820 C.3    27  GLY27       0.2014
     24  C         15.2370  -10.2980   43.8250 C.2    27  GLY27       0.2639
     25  O         14.8780  -11.4320   44.1360 O.2    27  GLY27      -0.2714
     26  N         16.5100   -9.9710   43.6360 N.am   28  ALA28      -0.1963
     27  CA        17.5850  -10.9730   43.6360 C.3    28  ALA28       0.1728
     28  C         17.7390  -11.7320   44.9620 C.2    28  ALA28       0.2616
     29  O         18.3180  -12.8170   44.9990 O.2    28  ALA28      -0.2715
     30  CB        18.8900  -10.3170   43.2600 C.3    28  ALA28       0.0334
     31  N         17.2110  -11.1640   46.0430 N.am   29  TYR29      -0.1960
     32  CA        17.3560  -11.7590   47.3630 C.3    29  TYR29       0.1774
     33  C         16.1780  -11.3960   48.2800 C.2    29  TYR29       0.2659
     34  O         16.3290  -11.2360   49.5060 O.2    29  TYR29      -0.2711
     35  CB        18.6980  -11.3420   47.9760 C.3    29  TYR29       0.0574
     36  CG        18.9170   -9.8460   47.9940 C.ar   29  TYR29      -0.0198
     37  CD1       18.5330   -9.0910   49.0900 C.ar   29  TYR29      -0.0009
     38  CD2       19.5030   -9.1830   46.9100 C.ar   29  TYR29      -0.0009
     39  CE1       18.7270   -7.7160   49.1230 C.ar   29  TYR29       0.0417
     40  CE2       19.7020   -7.7990   46.9360 C.ar   29  TYR29       0.0417
     41  CZ        19.3120   -7.0840   48.0570 C.ar   29  TYR29       0.1957
     42  OH        19.4870   -5.7340   48.1320 O.3    29  TYR29      -0.2866
     43  N         14.9990  -11.2700   47.6750 N.am   30  GLY30      -0.1716
     44  CA        13.8000  -10.9860   48.4370 C.2    30  GLY30       0.1480
     45  C         12.5170  -10.9810   47.6460 C.2    30  GLY30       0.2820
     46  O         12.4980  -11.2670   46.4390 O.2    30  GLY30      -0.2669
     47  N         11.4380  -10.6460   48.3460 N.am   31  MET31      -0.1928
     48  CA        10.1150  -10.6180   47.7570 C.3    31  MET31       0.1739
     49  C          9.2910   -9.5130   48.4020 C.2    31  MET31       0.2616
     50  O          9.4380   -9.2180   49.5960 O.2    31  MET31      -0.2715
     51  CB         9.4440  -11.9860   47.9230 C.3    31  MET31       0.0427
     52  CG         7.9830  -12.0600   47.5390 C.3    31  MET31       0.0599
     53  SD         7.2420  -13.6220   48.0170 S.3    31  MET31      -0.1393
     54  CE         7.8410  -14.7140   46.7220 C.3    31  MET31       0.0692
     55  N          8.4380   -8.8950   47.5930 N.am   32  VAL32      -0.1977
     56  CA         7.5670   -7.8370   48.0610 C.3    32  VAL32       0.1596
     57  C          6.1230   -8.3310   48.0300 C.2    32  VAL32       0.2287
     58  O          5.6570   -8.8740   47.0160 O.2    32  VAL32      -0.2864
     59  CB         7.7440   -6.5510   47.2280 C.3    32  VAL32       0.0276
     60  CG1        7.0020   -5.3700   47.8760 C.3    32  VAL32       0.0022
     61  CG2        9.2130   -6.2120   47.0900 C.3    32  VAL32       0.0022
     62  N          2.8030   -2.2160   51.7110 N.3    45  ALA45      -0.1245
     63  CA         3.7930   -3.0750   51.0750 C.3    45  ALA45       0.1562
     64  C          4.8190   -3.5790   52.0930 C.2    45  ALA45       0.2260
     65  O          5.3020   -2.8180   52.9470 O.2    45  ALA45      -0.2867
     66  CB         4.4960   -2.3400   49.9480 C.3    45  ALA45       0.0290
     67  N          8.4830   -5.5210   52.0830 N.3    47  LYS47      -0.1245
     68  CA         9.6220   -6.0120   51.3260 C.3    47  LYS47       0.1561
     69  C         10.5080   -6.8710   52.2100 C.2    47  LYS47       0.2260
     70  O         11.1750   -6.3700   53.1160 O.2    47  LYS47      -0.2867
     71  CB        10.3960   -4.8520   50.7020 C.3    47  LYS47       0.0271
     72  CG        11.6740   -5.2510   49.9820 C.3    47  LYS47       0.0035
     73  CD        12.4170   -4.0140   49.5300 C.3    47  LYS47       0.0206
     74  CE        13.6170   -4.3610   48.6810 C.3    47  LYS47       0.1093
     75  NZ        14.2180   -3.1270   48.0860 N.3    47  LYS47      -0.1314
     76  N         13.7480   -9.1230   52.6250 N.3    49  ILE49      -0.1245
     77  CA        15.0850   -9.2990   52.0920 C.3    49  ILE49       0.1561
     78  C         15.8900  -10.2820   52.9310 C.2    49  ILE49       0.2260
     79  O         15.7900  -10.3070   54.1690 O.2    49  ILE49      -0.2867
     80  CB        15.7900   -7.9530   51.9180 C.3    49  ILE49       0.0252
     81  CG1       15.2940   -7.2780   50.6490 C.3    49  ILE49       0.0019
     82  CG2       17.2530   -8.1250   51.7950 C.3    49  ILE49       0.0019
     83  CD1       15.7200   -5.8600   50.5440 C.3    49  ILE49       0.0001
     84  N          9.8050    6.6770   47.4470 N.3    77  ILE77      -0.1245
     85  CA         9.2470    5.7440   48.4200 C.3    77  ILE77       0.1561
     86  C          9.8910    5.9410   49.8060 C.2    77  ILE77       0.2260
     87  O         11.0990    6.1490   49.9100 O.2    77  ILE77      -0.2867
     88  CB         9.3750    4.2780   47.9230 C.3    77  ILE77       0.0252
     89  CG1        8.4390    3.3410   48.6960 C.3    77  ILE77       0.0019
     90  CG2       10.8310    3.8010   47.9700 C.3    77  ILE77       0.0019
     91  CD1        6.9540    3.5600   48.4150 C.3    77  ILE77       0.0001
     92  N          6.3670   -0.3910   53.7500 N.3    98  GLN98      -0.1231
     93  CA         6.3040    0.8540   52.9930 C.3    98  GLN98       0.1698
     94  C          4.8910    1.1420   52.5000 C.2    98  GLN98       0.2592
     95  O          4.0240    0.2810   52.5720 O.2    98  GLN98      -0.2718
     96  CB         7.2950    0.8020   51.8250 C.3    98  GLN98       0.0381
     97  CG         8.7260    0.4590   52.2530 C.3    98  GLN98       0.0905
     98  CD         9.6810    0.2870   51.0970 C.2    98  GLN98       0.2608
     99  OE1        9.7830   -0.7940   50.5250 O.2    98  GLN98      -0.2717
    100  NE2       10.4130    1.3440   50.7650 N.am   98  GLN98      -0.0878
    101  N          4.6680    2.3630   52.0060 N.am   99  ASP99      -0.1960
    102  CA         3.3970    2.7360   51.3680 C.3    99  ASP99       0.1840
    103  C          3.1290    1.8130   50.1870 C.2    99  ASP99       0.2622
    104  O          3.9960    1.6250   49.3250 O.2    99  ASP99      -0.2715
    105  CB         3.4100    4.1910   50.8770 C.3    99  ASP99       0.1450
    106  CG         3.3570    5.2060   52.0110 C.2    99  ASP99       0.3671
    107  OD1        2.8950    4.8470   53.1180 O.co2  99  ASP99      -0.2456
    108  OD2        3.7860    6.3680   51.7980 O.co2  99  ASP99      -0.2456
    109  N          1.9230    1.2480   50.1590 N.am  100  LEU100     -0.1963
    110  CA         1.4990    0.4120   49.0520 C.3   100  LEU100      0.1728
    111  C          1.0970    1.2490   47.8330 C.2   100  LEU100      0.2616
    112  O          0.2050    2.0920   47.8950 O.2   100  LEU100     -0.2715
    113  CB         0.3580   -0.5280   49.4750 C.3   100  LEU100      0.0311
    114  CG        -0.1850   -1.4480   48.3650 C.3   100  LEU100      0.0022
    115  CD1        0.7790   -2.5750   48.0400 C.3   100  LEU100      0.0001
    116  CD2       -1.5340   -1.9970   48.7550 C.3   100  LEU100      0.0001
    117  N          1.7620    1.0060   46.7160 N.am  101  MET101     -0.1963
    118  CA         1.3400    1.5970   45.4560 C.3   101  MET101      0.1736
    119  C          0.5600    0.5680   44.6250 C.2   101  MET101      0.2616
    120  O          0.6370   -0.6500   44.8770 O.2   101  MET101     -0.2715
    121  CB         2.5480    2.1420   44.6990 C.3   101  MET101      0.0427
    122  CG         3.3390    3.1950   45.4890 C.3   101  MET101      0.0599
    123  SD         2.3740    4.6820   45.8170 S.3   101  MET101     -0.1393
    124  CE         2.5160    5.5270   44.2350 C.3   101  MET101      0.0692
    125  N         -0.1930    1.0690   43.6470 N.am  102  GLU102     -0.1963
    126  CA        -1.1100    0.2520   42.8600 C.3   102  GLU102      0.1733
    127  C         -0.3930   -0.6430   41.8600 C.2   102  GLU102      0.2617
    128  O         -0.7580   -1.8030   41.6850 O.2   102  GLU102     -0.2715
    129  CB        -2.0990    1.1440   42.1060 C.3   102  GLU102      0.0429
    130  CG        -3.3030    1.5530   42.9200 C.3   102  GLU102      0.1163
    131  CD        -4.1760    0.3680   43.2790 C.2   102  GLU102      0.3649
    132  OE1       -4.5790    0.2720   44.4640 O.co2 102  GLU102     -0.2457
    133  OE2       -4.4400   -0.4680   42.3800 O.co2 102  GLU102     -0.2457
    134  N          0.6160   -0.0870   41.1980 N.am  103  THR103     -0.1937
    135  CA         1.3340   -0.7910   40.1490 C.3   103  THR103      0.2028
    136  C          2.6460   -0.0760   39.8460 C.2   103  THR103      0.2642
    137  O          3.0420    0.8430   40.5660 O.2   103  THR103     -0.2714
    138  CB         0.4560   -0.9450   38.8690 C.3   103  THR103      0.1808
    139  OG1        1.1290   -1.7770   37.9240 O.3   103  THR103     -0.2208
    140  CG2        0.1330    0.4140   38.2370 C.3   103  THR103      0.0379
    141  N          3.3260   -0.5130   38.7940 N.am  104  ASP104     -0.1971
    142  CA         4.5620    0.1230   38.3410 C.3   104  ASP104      0.1709
    143  C          4.4590    0.4540   36.8580 C.2   104  ASP104      0.2293
    144  O          3.5640   -0.0460   36.1700 O.2   104  ASP104     -0.2864
    145  CB         5.7940   -0.7510   38.6500 C.3   104  ASP104      0.1436
    146  CG         5.7580   -2.1100   37.9570 C.2   104  ASP104      0.3671
    147  OD1        5.2850   -2.1950   36.8080 O.co2 104  ASP104     -0.2456
    148  OD2        6.2300   -3.0970   38.5550 O.co2 104  ASP104     -0.2456
    149  N          4.4550   -2.6440   34.2840 N.3   107  LYS107     -0.1245
    150  CA         3.1970   -3.3620   34.0990 C.3   107  LYS107      0.1561
    151  C          2.1680   -2.5060   33.3790 C.2   107  LYS107      0.2260
    152  O          1.3600   -3.0180   32.6060 O.2   107  LYS107     -0.2867
    153  CB         2.6580   -3.8970   35.4500 C.3   107  LYS107      0.0271
    154  CG         1.1840   -4.3240   35.4290 C.3   107  LYS107      0.0035
    155  CD         0.8230   -5.3220   36.5330 C.3   107  LYS107      0.0206
    156  CE        -0.6970   -5.3670   36.8050 C.3   107  LYS107      0.1093
    157  NZ        -1.5750   -5.4570   35.5820 N.3   107  LYS107     -0.1314
    158  N         14.3910    2.6190   35.8290 N.3   144  LYS144     -0.1245
    159  CA        13.7410    1.7920   34.8170 C.3   144  LYS144      0.1561
    160  C         12.2790    1.6690   35.2220 C.2   144  LYS144      0.2260
    161  O         11.9540    1.8760   36.3940 O.2   144  LYS144     -0.2867
    162  CB        14.4100    0.4130   34.7330 C.3   144  LYS144      0.0271
    163  CG        14.2210   -0.4620   35.9650 C.3   144  LYS144      0.0035
    164  CD        15.0510   -1.7220   35.8630 C.3   144  LYS144      0.0206
    165  CE        14.8660   -2.5610   37.0980 C.3   144  LYS144      0.1093
    166  NZ        15.7350   -3.7590   37.0740 N.3   144  LYS144     -0.1314
    167  N         10.1630   -0.6420   36.0630 N.3   146  SER146     -0.1202
    168  CA         9.7800   -1.4800   37.2110 C.3   146  SER146      0.2020
    169  C         10.2150   -0.8650   38.5480 C.2   146  SER146      0.2618
    170  O          9.7950   -1.3170   39.6190 O.2   146  SER146     -0.2717
    171  CB        10.3380   -2.9010   37.0580 C.3   146  SER146      0.2103
    172  OG        11.7610   -2.8870   36.9850 O.3   146  SER146     -0.2182
    173  N         11.0700    0.1560   38.4860 N.am  147  ASN147     -0.1974
    174  CA        11.4190    0.9390   39.6760 C.3   147  ASN147      0.1688
    175  C         10.6510    2.2640   39.7910 C.2   147  ASN147      0.2292
    176  O         11.0040    3.1430   40.5980 O.2   147  ASN147     -0.2864
    177  CB        12.9370    1.1410   39.7580 C.3   147  ASN147      0.1181
    178  CG        13.6570   -0.1160   40.1730 C.2   147  ASN147      0.2629
    179  OD1       13.0420   -1.0410   40.7020 O.2   147  ASN147     -0.2716
    180  ND2       14.9610   -0.1630   39.9440 N.am  147  ASN147     -0.0877
    181  N          6.8220    3.4640   40.6520 N.3   149  LEU149     -0.1245
    182  CA         5.5380    3.0040   41.1890 C.3   149  LEU149      0.1561
    183  C          4.4490    4.0410   41.0340 C.2   149  LEU149      0.2260
    184  O          4.6940    5.2330   41.1860 O.2   149  LEU149     -0.2867
    185  CB         5.6740    2.6290   42.6710 C.3   149  LEU149      0.0270
    186  CG         6.7670    1.6370   43.0590 C.3   149  LEU149      0.0019
    187  CD1        6.8450    1.5590   44.5630 C.3   149  LEU149      0.0001
    188  CD2        6.5210    0.2600   42.4490 C.3   149  LEU149      0.0001
    189  N         11.4950    3.9300   43.3950 N.3   159  CYS159     -0.1221
    190  CA        11.8470    2.9290   44.3960 C.3   159  CYS159      0.1808
    191  C         13.1530    2.2100   44.0800 C.2   159  CYS159      0.2601
    192  O         13.7550    2.4330   43.0240 O.2   159  CYS159     -0.2717
    193  CB        10.6900    1.9420   44.6220 C.3   159  CYS159      0.0970
    194  SG        10.4370    0.7150   43.3300 S.3   159  CYS159     -0.0800
    195  N         13.5860    1.3690   45.0220 N.am  160  ASP160     -0.1973
    196  CA        14.7560    0.4940   44.8710 C.3   160  ASP160      0.1709
    197  C         16.1300    1.1790   44.8530 C.2   160  ASP160      0.2293
    198  O         16.8730    1.0950   43.8550 O.2   160  ASP160     -0.2864
    199  CB        14.6160   -0.4440   43.6630 C.3   160  ASP160      0.1436
    200  CG        15.6620   -1.5530   43.6590 C.2   160  ASP160      0.3671
    201  OD1       16.5520   -1.5450   44.5360 O.co2 160  ASP160     -0.2456
    202  OD2       15.5920   -2.4350   42.7780 O.co2 160  ASP160     -0.2456
@<TRIPOS>BOND
     1   152   151    2
     2   151   150    1
     3   150   149    1
     4   150   153    1
     5   162   159    1
     6   162   163    1
     7   159   160    1
     8   159   158    1
     9   160   161    2
    10   154   153    1
    11   154   155    1
    12   157   156    1
    13   164   163    1
    14   164   165    1
    15   167   168    1
    16   144   143    2
    17   155   156    1
    18   147   146   ar
    19   143   142    1
    20   172   171    1
    21   171   168    1
    22   166   165    1
    23   168   169    1
    24   139   138    1
    25   146   148   ar
    26   146   145    1
    27   140   138    1
    28   142   145    1
    29   142   141    1
    30   173   169   am
    31   173   174    1
    32   169   170    2
    33   141   136   am
    34   138   135    1
    35   174   177    1
    36   174   175    1
    37   177   178    1
    38   175   176    2
    39   136   135    1
    40   136   137    2
    41   180   178   am
    42    20    19   ar
    43   135   134    1
    44   178   179    2
    45   181   182    1
    46   183   184    2
    47   183   182    1
    48   182   185    1
    49   134   127   am
    50    19    18    1
    51    19    21   ar
    52   128   127    2
    53   127   126    1
    54    18    17    1
    55   129   126    1
    56   129   130    1
    57     4     3    2
    58   133   131   ar
    59   188   186    1
    60    16    15    2
    61   185   186    1
    62   202   200   ar
    63   126   125    1
    64   130   131    1
    65   192   191    2
    66   186   187    1
    67    10     9    2
    68    10    11    1
    69    13    14    1
    70    13    11   am
    71    30    27    1
    72   131   132   ar
    73    17    14    1
    74   194   193    1
    75    15    14    1
    76    15    22   am
    77   189   190    1
    78     3     9    1
    79     3     2    1
    80    27    26    1
    81    27    28    1
    82    26    24   am
    83   125   119   am
    84   200   199    1
    85   200   201   ar
    86   199   196    1
    87    23    24    1
    88    23    22    1
    89    24    25    2
    90   198   197    2
    91    11    12    2
    92   191   190    1
    93   191   195   am
    94     2     5    1
    95     2     1    1
    96   124   123    1
    97   190   193    1
    98   119   120    2
    99   119   118    1
   100   121   118    1
   101   121   122    1
   102     5     7    1
   103     5     6    1
   104   197   196    1
   105   196   195    1
   106    28    29    2
   107    28    31   am
   108   118   117    1
   109   122   123    1
   110    31    32    1
   111     6     8    1
   112    46    45    2
   113   117   111   am
   114    54    53    1
   115    38    40   ar
   116    38    36   ar
   117    40    41   ar
   118    58    57    2
   119    61    59    1
   120    59    60    1
   121    59    56    1
   122    32    35    1
   123    32    33    1
   124    84    85    1
   125    52    51    1
   126    52    53    1
   127    55    56    1
   128    55    49   am
   129    45    47   am
   130    45    44    1
   131    43    33    1
   132    43    44    2
   133    48    51    1
   134    48    47    1
   135    48    49    1
   136   111   112    2
   137   111   110    1
   138    88    90    1
   139    88    85    1
   140    88    89    1
   141    35    36    1
   142    36    37   ar
   143    57    56    1
   144   115   114    1
   145    41    42    1
   146    41    39   ar
   147    75    74    1
   148    33    34    2
   149   114   116    1
   150   114   113    1
   151    49    50    2
   152    91    89    1
   153    85    86    1
   154    74    73    1
   155   110   113    1
   156   110   109    1
   157    37    39   ar
   158   104   103    2
   159    73    72    1
   160    86    87    2
   161    66    63    1
   162    72    71    1
   163   109   103   am
   164   103   102    1
   165    99    98    2
   166    83    81    1
   167    81    80    1
   168    71    68    1
   169   100    98   am
   170   105   102    1
   171   105   106    1
   172    63    62    1
   173    63    64    1
   174    98    97    1
   175    68    67    1
   176    68    69    1
   177   102   101    1
   178    82    80    1
   179   108   106   ar
   180    96    97    1
   181    96    93    1
   182    80    77    1
   183   101    94   am
   184   106   107   ar
   185    77    76    1
   186    77    78    1
   187    64    65    2
   188    69    70    2
   189    94    95    2
   190    94    93    1
   191    78    79    2
   192    93    92    1
