@<TRIPOS>MOLECULE
tmp/3i64B01.pdb
 156 154 0 0 0
SMALL
GASTEIGER

@<TRIPOS>ATOM
      1  N        -53.1870   14.4660  -31.3440 N.3    92  TRP92      -0.1241
      2  CA       -52.2550   15.5220  -31.7520 C.3    92  TRP92       0.1605
      3  C        -51.5090   16.0950  -30.5320 C.2    92  TRP92       0.2264
      4  O        -50.3570   16.5350  -30.6380 O.2    92  TRP92      -0.2867
      5  CB       -52.9940   16.6620  -32.4720 C.3    92  TRP92       0.0550
      6  CG       -53.5700   16.2880  -33.7940 C.ar   92  TRP92       0.0003
      7  CD1      -54.7480   15.6540  -34.0130 C.ar   92  TRP92       0.0946
      8  CD2      -52.9820   16.5020  -35.0910 C.ar   92  TRP92       0.0152
      9  NE1      -54.9430   15.4550  -35.3650 N.ar   92  TRP92      -0.2442
     10  CE2      -53.8740   15.9650  -36.0490 C.ar   92  TRP92       0.0810
     11  CE3      -51.7900   17.0930  -35.5360 C.ar   92  TRP92       0.0012
     12  CZ2      -53.6150   16.0010  -37.4220 C.ar   92  TRP92       0.0191
     13  CZ3      -51.5320   17.1300  -36.9060 C.ar   92  TRP92       0.0001
     14  CH2      -52.4440   16.5860  -37.8320 C.ar   92  TRP92       0.0015
     15  N        -46.5040   14.6200  -33.8780 N.3    99  VAL99      -0.1245
     16  CA       -46.8060   16.0270  -33.6380 C.3    99  VAL99       0.1561
     17  C        -46.7730   16.4640  -32.1750 C.2    99  VAL99       0.2260
     18  O        -46.2790   17.5400  -31.8580 O.2    99  VAL99      -0.2867
     19  CB       -48.1820   16.3920  -34.2360 C.3    99  VAL99       0.0252
     20  CG1      -48.4870   17.8550  -33.9850 C.3    99  VAL99       0.0019
     21  CG2      -48.1860   16.0950  -35.7190 C.3    99  VAL99       0.0019
     22  N        -36.5960   15.7680  -38.3440 N.3   128  PHE128     -0.1227
     23  CA       -37.8820   15.1440  -38.0940 C.3   128  PHE128      0.1736
     24  C        -38.0270   13.8380  -38.8700 C.2   128  PHE128      0.2595
     25  O        -38.4260   12.8080  -38.3170 O.2   128  PHE128     -0.2718
     26  CB       -38.9920   16.1150  -38.5000 C.3   128  PHE128      0.0547
     27  CG       -40.3680   15.6380  -38.1680 C.ar  128  PHE128     -0.0202
     28  CD1      -40.7640   15.4880  -36.8460 C.ar  128  PHE128     -0.0042
     29  CD2      -41.2780   15.3520  -39.1760 C.ar  128  PHE128     -0.0042
     30  CE1      -42.0500   15.0610  -36.5340 C.ar  128  PHE128     -0.0003
     31  CE2      -42.5640   14.9250  -38.8730 C.ar  128  PHE128     -0.0003
     32  CZ       -42.9520   14.7790  -37.5490 C.ar  128  PHE128     -0.0000
     33  N        -37.7090   13.8880  -40.1580 N.am  129  TRP129     -0.1976
     34  CA       -37.8280   12.7110  -41.0040 C.3   129  TRP129      0.1640
     35  C        -36.8300   11.6320  -40.5960 C.2   129  TRP129      0.2290
     36  O        -37.1700   10.4430  -40.5870 O.2   129  TRP129     -0.2864
     37  CB       -37.6390   13.0920  -42.4750 C.3   129  TRP129      0.0576
     38  CG       -38.6510   14.0900  -42.9770 C.ar  129  TRP129      0.0006
     39  CD1      -38.3850   15.2450  -43.6440 C.ar  129  TRP129      0.0946
     40  CD2      -40.0810   14.0360  -42.8280 C.ar  129  TRP129      0.0152
     41  NE1      -39.5480   15.9170  -43.9160 N.ar  129  TRP129     -0.2442
     42  CE2      -40.6060   15.2000  -43.4270 C.ar  129  TRP129      0.0810
     43  CE3      -40.9670   13.1210  -42.2460 C.ar  129  TRP129      0.0012
     44  CZ2      -41.9760   15.4760  -43.4620 C.ar  129  TRP129      0.0191
     45  CZ3      -42.3370   13.3970  -42.2810 C.ar  129  TRP129      0.0001
     46  CH2      -42.8220   14.5660  -42.8860 C.ar  129  TRP129      0.0015
     47  N        -47.3550    9.4430  -37.2290 N.3   142  PHE142     -0.1241
     48  CA       -47.4280   10.5850  -38.1200 C.3   142  PHE142      0.1605
     49  C        -48.3860   10.2480  -39.2610 C.2   142  PHE142      0.2264
     50  O        -49.2550   11.0470  -39.5950 O.2   142  PHE142     -0.2867
     51  CB       -46.0470   10.9630  -38.6780 C.3   142  PHE142      0.0534
     52  CG       -46.0490   12.2560  -39.4650 C.ar  142  PHE142     -0.0203
     53  CD1      -46.5090   13.4370  -38.8860 C.ar  142  PHE142     -0.0042
     54  CD2      -45.6610   12.2800  -40.8000 C.ar  142  PHE142     -0.0042
     55  CE1      -46.5930   14.6170  -39.6240 C.ar  142  PHE142     -0.0003
     56  CE2      -45.7400   13.4580  -41.5490 C.ar  142  PHE142     -0.0003
     57  CZ       -46.2100   14.6270  -40.9560 C.ar  142  PHE142     -0.0000
     58  N        -51.6160   12.5020  -40.2920 N.3   146  MET146     -0.1245
     59  CA       -51.7790   13.0860  -41.6150 C.3   146  MET146      0.1570
     60  C        -53.0350   12.5320  -42.2530 C.2   146  MET146      0.2261
     61  O        -53.7410   13.2360  -42.9640 O.2   146  MET146     -0.2867
     62  CB       -50.5630   12.7980  -42.4880 C.3   146  MET146      0.0387
     63  CG       -49.3250   13.5760  -42.0740 C.3   146  MET146      0.0595
     64  SD       -49.5680   15.3680  -42.1360 S.3   146  MET146     -0.1393
     65  CE       -49.6900   15.7420  -40.3910 C.3   146  MET146      0.0692
     66  N        -55.7870   14.5580  -41.0820 N.3   149  HIS149     -0.1241
     67  CA       -55.8550   15.8890  -41.6830 C.3   149  HIS149      0.1621
     68  C        -56.5290   15.8610  -43.0520 C.2   149  HIS149      0.2264
     69  O        -57.1010   16.8530  -43.4920 O.2   149  HIS149     -0.2867
     70  CB       -54.4470   16.5120  -41.7700 C.3   149  HIS149      0.0745
     71  CG       -53.9380   16.7130  -43.1670 C.ar  149  HIS149      0.0817
     72  ND1      -53.4010   15.6920  -43.9240 N.ar  149  HIS149     -0.2268
     73  CD2      -53.8720   17.8250  -43.9390 C.ar  149  HIS149      0.1154
     74  CE1      -53.0260   16.1650  -45.1000 C.ar  149  HIS149      0.1986
     75  NE2      -53.3010   17.4560  -45.1340 N.ar  149  HIS149     -0.2212
     76  N        -59.3860   18.6530  -43.7280 N.3   153  ASP153     -0.1239
     77  CA       -59.1780   19.6180  -44.8230 C.3   153  ASP153      0.1674
     78  C        -59.7040   19.3070  -46.2350 C.2   153  ASP153      0.2266
     79  O        -60.3930   20.1300  -46.8440 O.2   153  ASP153     -0.2867
     80  CB       -57.6750   19.9520  -44.9680 C.3   153  ASP153      0.1410
     81  CG       -56.9730   20.1940  -43.6290 C.2   153  ASP153      0.3668
     82  OD1      -57.6440   20.5970  -42.6550 O.co2 153  ASP153     -0.2456
     83  OD2      -55.7350   19.9940  -43.5550 O.co2 153  ASP153     -0.2456
     84  N        -49.4970   18.7150  -49.1870 N.3   239  ALA239     -0.1245
     85  CA       -48.9660   18.9960  -47.8590 C.3   239  ALA239      0.1562
     86  C        -47.4940   18.6240  -47.7960 C.2   239  ALA239      0.2260
     87  O        -47.0150   18.1280  -46.7710 O.2   239  ALA239     -0.2867
     88  CB       -49.7480   18.2090  -46.8060 C.3   239  ALA239      0.0290
     89  N        -44.7760   22.9210  -48.1270 N.3   242  HIS242     -0.1226
     90  CA       -44.6200   23.7560  -46.9400 C.3   242  HIS242      0.1752
     91  C        -43.7160   23.1180  -45.8910 C.2   242  HIS242      0.2596
     92  O        -43.3010   23.7670  -44.9310 O.2   242  HIS242     -0.2718
     93  CB       -45.9970   24.1160  -46.3490 C.3   242  HIS242      0.0759
     94  CG       -46.8000   22.9420  -45.8730 C.ar  242  HIS242      0.0818
     95  ND1      -48.1710   22.8870  -46.0000 N.ar  242  HIS242     -0.2268
     96  CD2      -46.4440   21.8290  -45.1930 C.ar  242  HIS242      0.1154
     97  CE1      -48.6260   21.7950  -45.4150 C.ar  242  HIS242      0.1986
     98  NE2      -47.5980   21.1360  -44.9160 N.ar  242  HIS242     -0.2212
     99  N        -43.4030   21.8400  -46.0910 N.am  243  ASP243     -0.1974
    100  CA       -42.5380   21.1140  -45.1760 C.3   243  ASP243      0.1709
    101  C        -41.0730   21.3820  -45.5200 C.2   243  ASP243      0.2293
    102  O        -40.1820   21.0020  -44.7650 O.2   243  ASP243     -0.2864
    103  CB       -42.8050   19.6020  -45.2510 C.3   243  ASP243      0.1436
    104  CG       -44.1840   19.2080  -44.7260 C.2   243  ASP243      0.3671
    105  OD1      -44.6660   19.8640  -43.7850 O.co2 243  ASP243     -0.2456
    106  OD2      -44.7830   18.2270  -45.2250 O.co2 243  ASP243     -0.2456
    107  N        -49.2290   27.9210  -38.1190 N.3   282  MET282     -0.1245
    108  CA       -48.8220   26.7820  -38.9250 C.3   282  MET282      0.1570
    109  C        -47.4590   27.0990  -39.5220 C.2   282  MET282      0.2261
    110  O        -46.5740   26.2430  -39.5600 O.2   282  MET282     -0.2867
    111  CB       -49.8420   26.5040  -40.0380 C.3   282  MET282      0.0387
    112  CG       -49.5020   25.2830  -40.9440 C.3   282  MET282      0.0595
    113  SD       -49.1160   23.6290  -40.1300 S.3   282  MET282     -0.1393
    114  CE       -50.1950   23.6740  -38.5840 C.3   282  MET282      0.0692
    115  N        -44.7990   26.6020  -37.0030 N.3   285  ARG285     -0.1231
    116  CA       -44.6210   25.1670  -36.8250 C.3   285  ARG285      0.1694
    117  C        -43.7380   24.6680  -37.9670 C.2   285  ARG285      0.2591
    118  O        -42.7970   23.9080  -37.7540 O.2   285  ARG285     -0.2718
    119  CB       -45.9740   24.4660  -36.8860 C.3   285  ARG285      0.0321
    120  CG       -45.9140   22.9530  -36.6850 C.3   285  ARG285      0.0489
    121  CD       -47.2470   22.2900  -37.0460 C.3   285  ARG285      0.2205
    122  NE       -48.3640   22.8980  -36.3240 N.pl3 285  ARG285     -0.0865
    123  CZ       -48.6050   22.7110  -35.0300 C.cat 285  ARG285      0.5346
    124  NH1      -47.8110   21.9230  -34.3210 N.pl3 285  ARG285      0.1354
    125  NH2      -49.6200   23.3320  -34.4400 N.pl3 285  ARG285      0.1354
    126  N        -44.0460   25.1060  -39.1820 N.am  286  MET286     -0.1979
    127  CA       -43.2760   24.7110  -40.3540 C.3   286  MET286      0.1605
    128  C        -41.8120   25.1420  -40.2420 C.2   286  MET286      0.2287
    129  O        -40.9060   24.4240  -40.6640 O.2   286  MET286     -0.2864
    130  CB       -43.9070   25.3040  -41.6160 C.3   286  MET286      0.0413
    131  CG       -45.2440   24.6710  -42.0000 C.3   286  MET286      0.0598
    132  SD       -45.0760   22.8910  -42.3170 S.3   286  MET286     -0.1393
    133  CE       -45.7580   22.1850  -40.8080 C.3   286  MET286      0.0692
    134  N        -40.1230   23.0120  -37.2640 N.3   289  TYR289     -0.1227
    135  CA       -39.9040   21.6050  -37.6080 C.3   289  TYR289      0.1736
    136  C        -38.8330   21.3790  -38.6700 C.2   289  TYR289      0.2595
    137  O        -37.9150   20.5950  -38.4700 O.2   289  TYR289     -0.2718
    138  CB       -41.1830   20.9450  -38.1110 C.3   289  TYR289      0.0548
    139  CG       -42.1290   20.4260  -37.0500 C.ar  289  TYR289     -0.0200
    140  CD1      -42.7150   21.2870  -36.1230 C.ar  289  TYR289     -0.0009
    141  CD2      -42.4910   19.0720  -37.0110 C.ar  289  TYR289     -0.0009
    142  CE1      -43.6400   20.8200  -35.1910 C.ar  289  TYR289      0.0417
    143  CE2      -43.4150   18.5940  -36.0760 C.ar  289  TYR289      0.0417
    144  CZ       -43.9860   19.4780  -35.1720 C.ar  289  TYR289      0.1957
    145  OH       -44.9110   19.0320  -34.2540 O.3   289  TYR289     -0.2866
    146  N        -38.9370   22.0400  -39.8130 N.am  290  PHE290     -0.1976
    147  CA       -37.9440   21.8000  -40.8510 C.3   290  PHE290      0.1639
    148  C        -37.4130   23.0390  -41.5200 C.2   290  PHE290      0.2290
    149  O        -36.6280   22.9420  -42.4640 O.2   290  PHE290     -0.2864
    150  CB       -38.5100   20.8970  -41.9470 C.3   290  PHE290      0.0560
    151  CG       -39.8350   20.2780  -41.6160 C.ar  290  PHE290     -0.0200
    152  CD1      -40.9810   21.0550  -41.5310 C.ar  290  PHE290     -0.0042
    153  CD2      -39.9470   18.9080  -41.4350 C.ar  290  PHE290     -0.0042
    154  CE1      -42.2220   20.4710  -41.2740 C.ar  290  PHE290     -0.0003
    155  CE2      -41.1790   18.3160  -41.1800 C.ar  290  PHE290     -0.0003
    156  CZ       -42.3150   19.1000  -41.1010 C.ar  290  PHE290     -0.0000
@<TRIPOS>BOND
     1    84    85    1
     2    89    90    1
     3    85    86    1
     4    85    88    1
     5    86    87    2
     6    90    93    1
     7    90    91    1
     8    79    78    2
     9    93    94    1
    10    78    77    1
    11    99    91   am
    12    99   100    1
    13    95    94   ar
    14    95    97   ar
    15    91    92    2
    16    94    96   ar
    17   101   100    1
    18   101   102    2
    19    97    98   ar
    20   103   100    1
    21   103   104    1
    22   106   104   ar
    23    96    98   ar
    24    75    74   ar
    25    75    73   ar
    26    74    72   ar
    27    80    77    1
    28    80    81    1
    29    77    76    1
    30   104   105   ar
    31    73    71   ar
    32    72    71   ar
    33    41    39   ar
    34    41    42   ar
    35    39    38   ar
    36    81    83   ar
    37    81    82   ar
    38    69    68    2
    39    44    42   ar
    40    44    46   ar
    41    42    40   ar
    42    71    70    1
    43    68    67    1
    44    38    40   ar
    45    38    37    1
    46    61    60    2
    47    46    45   ar
    48    40    43   ar
    49    62    63    1
    50    62    59    1
    51    37    34    1
    52   149   148    2
    53   132   131    1
    54   132   133    1
    55    45    43   ar
    56    60    59    1
    57    64    63    1
    58    64    65    1
    59   131   130    1
    60   150   151    1
    61   150   147    1
    62    70    67    1
    63    67    66    1
    64   151   152   ar
    65   151   153   ar
    66   130   127    1
    67    59    58    1
    68    56    57   ar
    69    56    54   ar
    70   152   154   ar
    71   148   147    1
    72   153   155   ar
    73   154   156   ar
    74   155   156   ar
    75    34    35    1
    76    34    33    1
    77    57    55   ar
    78   112   113    1
    79   112   111    1
    80   147   146    1
    81    54    52   ar
    82   129   128    2
    83    35    36    2
    84   127   128    1
    85   127   126    1
    86    33    24   am
    87   113   114    1
    88   111   108    1
    89   146   136   am
    90    55    53   ar
    91    50    49    2
    92   110   109    2
    93   109   108    1
    94    52    53   ar
    95    52    51    1
    96    49    48    1
    97   126   117   am
    98    29    31   ar
    99    29    27   ar
   100   108   107    1
   101    31    32   ar
   102    24    25    2
   103    24    23    1
   104    51    48    1
   105   136   137    2
   106   136   135    1
   107    26    27    1
   108    26    23    1
   109    22    23    1
   110    27    28   ar
   111    48    47    1
   112   138   135    1
   113   138   139    1
   114   117   118    2
   115   117   116    1
   116    14    12   ar
   117    14    13   ar
   118   135   134    1
   119    32    30   ar
   120    12    10   ar
   121   139   141   ar
   122   139   140   ar
   123   121   120    1
   124   121   122    1
   125   141   143   ar
   126   115   116    1
   127    13    11   ar
   128   119   116    1
   129   119   120    1
   130    28    30   ar
   131   122   123    2
   132   140   142   ar
   133   143   144   ar
   134    10     9   ar
   135    10     8   ar
   136    21    19    1
   137    11     8   ar
   138     9     7   ar
   139   142   144   ar
   140   144   145    1
   141     8     6   ar
   142   123   125    1
   143   123   124    1
   144    19    20    1
   145    19    16    1
   146     7     6   ar
   147    15    16    1
   148     6     5    1
   149    16    17    1
   150     5     2    1
   151    17    18    2
   152     2     1    1
   153     2     3    1
   154     4     3    2
