@<TRIPOS>MOLECULE
tmp/3i68A00.pdb
 178 165 0 0 0
SMALL
GASTEIGER

@<TRIPOS>ATOM
      1  N        -26.7050  -23.2320   21.0430 N.3    14  LEU14      -0.1245
      2  CA       -26.5930  -21.9440   20.3670 C.3    14  LEU14       0.1561
      3  C        -27.5390  -20.9130   20.9620 C.2    14  LEU14       0.2260
      4  O        -27.1590  -19.7550   21.1450 O.2    14  LEU14      -0.2867
      5  CB       -26.8430  -22.1100   18.8600 C.3    14  LEU14       0.0270
      6  CG       -26.8960  -20.8500   17.9850 C.3    14  LEU14       0.0019
      7  CD1      -26.0230  -21.0160   16.7360 C.3    14  LEU14       0.0001
      8  CD2      -28.3480  -20.4710   17.6390 C.3    14  LEU14       0.0001
      9  N        -26.0120  -19.7990   24.1580 N.3    17  CYS17      -0.1221
     10  CA       -24.9510  -18.8360   23.8710 C.3    17  CYS17       0.1808
     11  C        -25.5160  -17.4700   23.4940 C.2    17  CYS17       0.2601
     12  O        -24.9710  -16.4470   23.8830 O.2    17  CYS17      -0.2717
     13  CB       -24.0330  -19.3500   22.7610 C.3    17  CYS17       0.0970
     14  SG       -23.2220  -20.9180   23.1340 S.3    17  CYS17      -0.0800
     15  N        -26.6140  -17.4640   22.7930 N.am   18  LEU18      -0.1979
     16  CA       -27.2300  -16.2360   22.4200 C.3    18  LEU18       0.1596
     17  C        -27.7020  -15.4320   23.6170 C.2    18  LEU18       0.2287
     18  O        -27.5730  -14.2400   23.6460 O.2    18  LEU18      -0.2864
     19  CB       -28.3940  -16.5590   21.5100 C.3    18  LEU18       0.0297
     20  CG       -29.0630  -15.4890   20.6740 C.3    18  LEU18       0.0022
     21  CD1      -28.0650  -14.6030   20.0570 C.3    18  LEU18       0.0001
     22  CD2      -29.8840  -16.1480   19.6370 C.3    18  LEU18       0.0001
     23  N        -21.6760  -11.9690   21.3250 N.3    23  GLY23      -0.1225
     24  CA       -21.8280  -12.3810   19.9300 C.3    23  GLY23       0.1811
     25  C        -20.5370  -12.8250   19.2730 C.2    23  GLY23       0.2280
     26  O        -20.4390  -13.9560   18.8170 O.2    23  GLY23      -0.2866
     27  N        -19.2760  -16.0010   20.7270 N.3    26  CYS26      -0.1221
     28  CA       -20.0910  -17.1210   20.2580 C.3    26  CYS26       0.1808
     29  C        -19.6760  -17.5350   18.8500 C.2    26  CYS26       0.2601
     30  O        -19.4630  -18.7200   18.5890 O.2    26  CYS26      -0.2717
     31  CB       -21.5700  -16.7550   20.2200 C.3    26  CYS26       0.0970
     32  SG       -22.3740  -16.6150   21.8120 S.3    26  CYS26      -0.0800
     33  N        -19.5890  -16.5520   17.9570 N.am   27  HIS27      -0.1975
     34  CA       -19.1930  -16.7870   16.5690 C.3    27  HIS27       0.1656
     35  C        -17.8880  -17.5690   16.5560 C.2    27  HIS27       0.2291
     36  O        -17.8140  -18.6540   15.9760 O.2    27  HIS27      -0.2864
     37  CB       -19.0530  -15.4580   15.8110 C.3    27  HIS27       0.0771
     38  CG       -19.0010  -15.6120   14.3200 C.ar   27  HIS27       0.0820
     39  ND1      -20.1200  -15.8710   13.5550 N.ar   27  HIS27      -0.2267
     40  CD2      -17.9620  -15.5510   13.4550 C.ar   27  HIS27       0.1154
     41  CE1      -19.7740  -15.9550   12.2850 C.ar   27  HIS27       0.1986
     42  NE2      -18.4730  -15.7530   12.1970 N.ar   27  HIS27      -0.2212
     43  N        -18.1010  -21.2160   17.6800 N.3    30  PHE30      -0.1227
     44  CA       -18.6810  -22.0610   16.6570 C.3    30  PHE30       0.1736
     45  C        -17.7640  -22.2460   15.4370 C.2    30  PHE30       0.2595
     46  O        -17.7400  -23.3200   14.8600 O.2    30  PHE30      -0.2718
     47  CB       -20.0880  -21.6030   16.2850 C.3    30  PHE30       0.0547
     48  CG       -21.1340  -21.9900   17.3180 C.ar   30  PHE30      -0.0202
     49  CD1      -21.6860  -21.0310   18.1610 C.ar   30  PHE30      -0.0042
     50  CD2      -21.5400  -23.3200   17.4610 C.ar   30  PHE30      -0.0042
     51  CE1      -22.6490  -21.3840   19.1270 C.ar   30  PHE30      -0.0003
     52  CE2      -22.5030  -23.6900   18.4190 C.ar   30  PHE30      -0.0003
     53  CZ       -23.0480  -22.7200   19.2560 C.ar   30  PHE30      -0.0000
     54  N        -16.9820  -21.2220   15.0880 N.am   31  LEU31      -0.1980
     55  CA       -15.9590  -21.3770   14.0400 C.3    31  LEU31       0.1596
     56  C        -14.9640  -22.4350   14.4780 C.2    31  LEU31       0.2287
     57  O        -14.5270  -23.2590   13.6720 O.2    31  LEU31      -0.2864
     58  CB       -15.2460  -20.0580   13.7140 C.3    31  LEU31       0.0297
     59  CG       -16.0310  -18.9720   12.9710 C.3    31  LEU31       0.0022
     60  CD1      -15.1910  -17.7110   12.8730 C.3    31  LEU31       0.0001
     61  CD2      -16.5060  -19.4020   11.5720 C.3    31  LEU31       0.0001
     62  N        -16.3990  -25.8420   14.2650 N.3    34  GLY34      -0.1225
     63  CA       -16.4170  -26.1770   12.8490 C.3    34  GLY34       0.1811
     64  C        -15.0610  -26.6400   12.3740 C.2    34  GLY34       0.2280
     65  O        -14.9620  -27.6010   11.6160 O.2    34  GLY34      -0.2866
     66  N        -19.4840  -30.5270   14.0850 N.3    39  LEU39      -0.1245
     67  CA       -20.7970  -29.9900   13.7610 C.3    39  LEU39       0.1561
     68  C        -21.5370  -30.8840   12.7390 C.2    39  LEU39       0.2260
     69  O        -20.8980  -31.7030   12.0720 O.2    39  LEU39      -0.2867
     70  CB       -20.6470  -28.5430   13.2850 C.3    39  LEU39       0.0270
     71  CG       -20.0870  -27.5950   14.3600 C.3    39  LEU39       0.0019
     72  CD1      -19.8710  -26.1980   13.8290 C.3    39  LEU39       0.0001
     73  CD2      -20.9910  -27.5420   15.6000 C.3    39  LEU39       0.0001
     74  N        -18.6490  -13.8980    7.6110 N.3    69  PHE69      -0.1241
     75  CA       -18.8490  -15.0590    8.4670 C.3    69  PHE69       0.1605
     76  C        -17.5780  -15.8130    8.7720 C.2    69  PHE69       0.2264
     77  O        -17.2650  -16.0920    9.8940 O.2    69  PHE69      -0.2867
     78  CB       -19.8640  -16.0090    7.8470 C.3    69  PHE69       0.0534
     79  CG       -20.6310  -16.8070    8.8360 C.ar   69  PHE69      -0.0203
     80  CD1      -21.7860  -16.3350    9.3570 C.ar   69  PHE69      -0.0042
     81  CD2      -20.2040  -18.0260    9.2360 C.ar   69  PHE69      -0.0042
     82  CE1      -22.4760  -17.0570   10.2480 C.ar   69  PHE69      -0.0003
     83  CE2      -20.9000  -18.7350   10.1270 C.ar   69  PHE69      -0.0003
     84  CZ       -22.0350  -18.2510   10.6340 C.ar   69  PHE69      -0.0000
     85  N        -12.8900  -22.2100    8.6220 N.3    75  CYS75      -0.1235
     86  CA       -13.9800  -23.1200    8.8180 C.3    75  CYS75       0.1677
     87  C        -14.7730  -23.5270    7.5900 C.2    75  CYS75       0.2270
     88  O        -15.9110  -23.8510    7.7210 O.2    75  CYS75      -0.2867
     89  CB       -14.9110  -22.4640    9.8210 C.3    75  CYS75       0.0956
     90  SG       -15.8300  -23.5320   10.7230 S.3    75  CYS75      -0.0801
     91  N        -16.8270  -27.1820    7.1230 N.3    78  SER78      -0.1202
     92  CA       -17.9480  -27.3820    8.0350 C.3    78  SER78       0.2020
     93  C        -19.1410  -26.4960    7.7460 C.2    78  SER78       0.2618
     94  O        -20.2700  -26.9450    7.8700 O.2    78  SER78      -0.2717
     95  CB       -17.5110  -27.2260    9.4850 C.3    78  SER78       0.2103
     96  OG       -16.7690  -28.3670    9.8410 O.3    78  SER78      -0.2182
     97  N        -18.8960  -25.2480    7.3750 N.am   79  ILE79      -0.1979
     98  CA       -19.9840  -24.3720    6.9630 C.3    79  ILE79       0.1595
     99  C        -20.6480  -24.9030    5.6820 C.2    79  ILE79       0.2287
    100  O        -21.8800  -24.9640    5.5780 O.2    79  ILE79      -0.2864
    101  CB       -19.5060  -22.9110    6.7880 C.3    79  ILE79       0.0276
    102  CG1      -18.9180  -22.3620    8.1100 C.3    79  ILE79       0.0022
    103  CG2      -20.6470  -22.0290    6.3360 C.3    79  ILE79       0.0022
    104  CD1      -18.2270  -20.9680    7.9750 C.3    79  ILE79       0.0001
    105  N        -23.0210  -27.8870    6.0910 N.3    82  LEU82      -0.1245
    106  CA       -24.3350  -27.6120    6.6610 C.3    82  LEU82       0.1561
    107  C        -25.4720  -27.6090    5.6340 C.2    82  LEU82       0.2260
    108  O        -26.6550  -27.5260    6.0060 O.2    82  LEU82      -0.2867
    109  CB       -24.3530  -26.2580    7.3640 C.3    82  LEU82       0.0270
    110  CG       -23.8600  -26.0350    8.7890 C.3    82  LEU82       0.0019
    111  CD1      -24.3070  -24.6360    9.1950 C.3    82  LEU82       0.0001
    112  CD2      -24.3740  -27.0550    9.7870 C.3    82  LEU82       0.0001
    113  N        -19.9560   -6.3030   17.7640 N.3   105  ILE105     -0.1245
    114  CA       -21.1160   -6.9740   17.1940 C.3   105  ILE105      0.1561
    115  C        -22.1680   -7.0930   18.2960 C.2   105  ILE105      0.2260
    116  O        -21.8940   -7.6860   19.3490 O.2   105  ILE105     -0.2867
    117  CB       -20.7930   -8.4220   16.7040 C.3   105  ILE105      0.0252
    118  CG1      -19.5860   -8.4460   15.7530 C.3   105  ILE105      0.0019
    119  CG2      -22.0250   -9.0520   16.0580 C.3   105  ILE105      0.0019
    120  CD1      -19.0500   -9.8560   15.4730 C.3   105  ILE105      0.0001
    121  N        -26.4670   -8.0390   18.9230 N.3   107  ARG107     -0.1245
    122  CA       -27.7060   -8.6200   18.3880 C.3   107  ARG107      0.1563
    123  C        -28.9510   -8.0760   19.0820 C.2   107  ARG107      0.2260
    124  O        -28.9080   -7.7120   20.2540 O.2   107  ARG107     -0.2867
    125  CB       -27.7100  -10.1360   18.5590 C.3   107  ARG107      0.0307
    126  CG       -26.5280  -10.8450   17.9590 C.3   107  ARG107      0.0489
    127  CD       -26.1600  -12.0520   18.7740 C.3   107  ARG107      0.2205
    128  NE       -25.7280  -11.6580   20.1030 N.pl3 107  ARG107     -0.0865
    129  CZ       -25.1930  -12.4720   21.0090 C.cat 107  ARG107      0.5346
    130  NH1      -24.9800  -13.7540   20.7360 N.pl3 107  ARG107      0.1354
    131  NH2      -24.8510  -11.9840   22.2020 N.pl3 107  ARG107      0.1354
    132  N        -28.8750   -7.4230   13.6950 N.3   114  ILE114     -0.1245
    133  CA       -27.5090   -7.3300   14.1740 C.3   114  ILE114      0.1561
    134  C        -26.9630   -5.9540   13.7840 C.2   114  ILE114      0.2260
    135  O        -27.3270   -5.4200   12.7500 O.2   114  ILE114     -0.2867
    136  CB       -26.6000   -8.4540   13.5640 C.3   114  ILE114      0.0252
    137  CG1      -27.1100   -9.8480   13.9470 C.3   114  ILE114      0.0019
    138  CG2      -25.1320   -8.2700   13.9790 C.3   114  ILE114      0.0019
    139  CD1      -26.2650  -11.0230   13.4290 C.3   114  ILE114      0.0001
    140  N        -26.6690  -14.7290    6.5070 N.3   340  TYR340     -0.1241
    141  CA       -25.7640  -14.4150    7.5930 C.3   340  TYR340      0.1605
    142  C        -26.4840  -14.4360    8.9390 C.2   340  TYR340      0.2264
    143  O        -26.2330  -15.2640    9.7740 O.2   340  TYR340     -0.2867
    144  CB       -25.0220  -13.1060    7.3620 C.3   340  TYR340      0.0534
    145  CG       -23.8320  -12.9230    8.2560 C.ar  340  TYR340     -0.0201
    146  CD1      -22.6170  -12.5720    7.7480 C.ar  340  TYR340     -0.0009
    147  CD2      -23.9360  -13.0790    9.6140 C.ar  340  TYR340     -0.0009
    148  CE1      -21.5540  -12.4060    8.5420 C.ar  340  TYR340      0.0417
    149  CE2      -22.8760  -12.9160   10.4140 C.ar  340  TYR340      0.0417
    150  CZ       -21.6780  -12.5670    9.8730 C.ar  340  TYR340      0.1957
    151  OH       -20.5910  -12.4020   10.6610 O.3   340  TYR340     -0.2866
    152  N        -28.2210  -17.6120   10.2990 N.3   343  LEU343     -0.1231
    153  CA       -27.4180  -18.5980   11.0360 C.3   343  LEU343      0.1693
    154  C        -27.2620  -18.2450   12.5130 C.2   343  LEU343      0.2591
    155  O        -27.1420  -19.1300   13.3590 O.2   343  LEU343     -0.2718
    156  CB       -26.0370  -18.7630   10.4170 C.3   343  LEU343      0.0284
    157  CG       -25.9720  -19.6760    9.1970 C.3   343  LEU343      0.0019
    158  CD1      -24.8830  -19.1930    8.2620 C.3   343  LEU343      0.0001
    159  CD2      -25.7520  -21.1290    9.6270 C.3   343  LEU343      0.0001
    160  N        -27.2400  -16.9490   12.8000 N.am  344  VAL344     -0.1980
    161  CA       -27.0820  -16.4490   14.1660 C.3   344  VAL344      0.1595
    162  C        -28.3360  -16.7470   14.9990 C.2   344  VAL344      0.2287
    163  O        -28.2340  -17.2310   16.1280 O.2   344  VAL344     -0.2864
    164  CB       -26.7540  -14.9220   14.1730 C.3   344  VAL344      0.0276
    165  CG1      -27.0070  -14.3000   15.5490 C.3   344  VAL344      0.0022
    166  CG2      -25.3170  -14.6850   13.7110 C.3   344  VAL344      0.0022
    167  N        -29.7150  -20.9530   13.6500 N.3   347  GLY347     -0.1210
    168  CA       -28.7460  -22.0210   13.9260 C.3   347  GLY347      0.1956
    169  C        -28.4270  -23.0100   12.8110 C.2   347  GLY347      0.2611
    170  O        -28.5190  -22.6940   11.6290 O.2   347  GLY347     -0.2717
    171  N        -28.0660  -24.2230   13.2140 N.am  348  MET348     -0.1979
    172  CA       -27.5010  -25.2560   12.3330 C.3   348  MET348      0.1605
    173  C        -28.4280  -25.7310   11.2070 C.2   348  MET348      0.2287
    174  O        -27.9710  -26.2980   10.2020 O.2   348  MET348     -0.2864
    175  CB       -27.0710  -26.4660   13.1630 C.3   348  MET348      0.0413
    176  CG       -26.0940  -26.1410   14.2750 C.3   348  MET348      0.0598
    177  SD       -24.4990  -25.5780   13.6910 S.3   348  MET348     -0.1393
    178  CE       -23.8090  -24.9470   15.2200 C.3   348  MET348      0.0692
@<TRIPOS>BOND
     1   100    99    2
     2   107   108    2
     3   107   106    1
     4    99    98    1
     5   105   106    1
     6   103   101    1
     7   140   141    1
     8   106   109    1
     9   101    98    1
    10   101   102    1
    11    98    97    1
    12    91    92    1
    13   144   141    1
    14   144   145    1
    15   109   110    1
    16    97    93   am
    17    87    88    2
    18    87    86    1
    19   141   142    1
    20    74    75    1
    21    93    94    2
    22    93    92    1
    23   146   145   ar
    24   146   148   ar
    25    78    75    1
    26    78    79    1
    27   104   102    1
    28    92    95    1
    29   145   147   ar
    30   158   157    1
    31    75    76    1
    32   148   150   ar
    33    85    86    1
    34    76    77    2
    35   110   111    1
    36   110   112    1
    37    86    89    1
    38    79    81   ar
    39    79    80   ar
    40   142   143    2
    41   157   159    1
    42   157   156    1
    43    81    83   ar
    44    80    82   ar
    45    95    96    1
    46   147   149   ar
    47    89    90    1
    48   150   149   ar
    49   150   151    1
    50    83    84   ar
    51   174   173    2
    52    82    84   ar
    53   152   153    1
    54   156   153    1
    55   153   154    1
    56   173   172    1
    57    61    59    1
    58    65    64    2
    59   170   169    2
    60    69    68    2
    61    42    41   ar
    62    42    40   ar
    63    41    39   ar
    64   172   175    1
    65   172   171    1
    66    64    63    1
    67   154   160   am
    68   154   155    2
    69    68    67    1
    70   135   134    2
    71   160   161    1
    72   169   171   am
    73   169   168    1
    74    63    62    1
    75    60    59    1
    76    59    58    1
    77   175   176    1
    78    70    67    1
    79    70    71    1
    80   139   137    1
    81    40    38   ar
    82    39    38   ar
    83   136   137    1
    84   136   138    1
    85   136   133    1
    86   167   168    1
    87    57    56    2
    88   177   176    1
    89   177   178    1
    90   132   133    1
    91   166   164    1
    92    58    55    1
    93    67    66    1
    94   134   133    1
    95    72    71    1
    96    55    56    1
    97    55    54    1
    98   161   164    1
    99   161   162    1
   100   164   165    1
   101    38    37    1
   102    71    73    1
   103    46    45    2
   104   162   163    2
   105    54    45   am
   106    45    44    1
   107   120   118    1
   108   118   117    1
   109    37    34    1
   110    36    35    2
   111   119   117    1
   112    47    44    1
   113    47    48    1
   114    35    34    1
   115    34    33    1
   116    44    43    1
   117   117   114    1
   118     7     6    1
   119   114   113    1
   120   114   115    1
   121    48    50   ar
   122    48    49   ar
   123    50    52   ar
   124     8     6    1
   125    33    29   am
   126   126   125    1
   127   126   127    1
   128     6     5    1
   129    49    51   ar
   130   115   116    2
   131   122   125    1
   132   122   121    1
   133   122   123    1
   134    52    53   ar
   135    30    29    2
   136   127   128    1
   137    26    25    2
   138    29    28    1
   139     5     2    1
   140   123   124    2
   141    51    53   ar
   142    25    24    1
   143    22    20    1
   144    24    23    1
   145    21    20    1
   146   128   129    2
   147    31    28    1
   148    31    32    1
   149    28    27    1
   150     2     3    1
   151     2     1    1
   152    20    19    1
   153   130   129    1
   154     3     4    2
   155   129   131    1
   156    19    16    1
   157    16    15    1
   158    16    17    1
   159    13    14    1
   160    13    10    1
   161    15    11   am
   162    11    10    1
   163    11    12    2
   164    17    18    2
   165    10     9    1
