@<TRIPOS>MOLECULE
tmp/3i6cA00.pdb
 114 106 0 0 0
SMALL
GASTEIGER

@<TRIPOS>ATOM
      1  N          8.2450    0.7370   19.9100 N.3     9  HIS9       -0.1241
      2  CA         9.6510    0.7270   20.2370 C.3     9  HIS9        0.1621
      3  C         10.3600   -0.3230   19.3770 C.2     9  HIS9        0.2264
      4  O          9.7430   -1.1840   18.7600 O.2     9  HIS9       -0.2867
      5  CB         9.9520    0.5040   21.7180 C.3     9  HIS9        0.0745
      6  CG         9.7770   -0.9200   22.1780 C.ar    9  HIS9        0.0817
      7  ND1       10.6730   -1.4520   23.0680 N.ar    9  HIS9       -0.2268
      8  CD2        8.8460   -1.8550   21.8710 C.ar    9  HIS9        0.1154
      9  CE1       10.2930   -2.6910   23.3060 C.ar    9  HIS9        0.1986
     10  NE2        9.1910   -2.9890   22.6150 N.ar    9  HIS9       -0.2212
     11  N         13.5900   -2.7800   20.2140 N.3    11  LEU11      -0.1245
     12  CA        14.4920   -3.2930   21.2400 C.3    11  LEU11       0.1561
     13  C         15.6630   -4.0220   20.5930 C.2    11  LEU11       0.2260
     14  O         15.4500   -4.8910   19.7320 O.2    11  LEU11      -0.2867
     15  CB        13.7170   -4.2560   22.1480 C.3    11  LEU11       0.0270
     16  CG        14.5710   -5.0270   23.1870 C.3    11  LEU11       0.0019
     17  CD1       15.2320   -4.1020   24.1880 C.3    11  LEU11       0.0001
     18  CD2       13.6530   -6.0100   23.9250 C.3    11  LEU11       0.0001
     19  N         18.4620   -6.4360   22.0890 N.3    13  LYS13      -0.1245
     20  CA        19.0160   -7.1390   23.2440 C.3    13  LYS13       0.1561
     21  C         20.5080   -7.3740   23.0700 C.2    13  LYS13       0.2260
     22  O         21.0600   -7.2530   21.9660 O.2    13  LYS13      -0.2867
     23  CB        18.3210   -8.5010   23.4150 C.3    13  LYS13       0.0271
     24  CG        16.8840   -8.3300   23.8940 C.3    13  LYS13       0.0035
     25  CD        16.2780   -9.6840   24.2470 C.3    13  LYS13       0.0206
     26  CE        14.8370   -9.5340   24.6830 C.3    13  LYS13       0.1093
     27  NZ        14.2950  -10.7990   25.2440 N.3    13  LYS13      -0.1314
     28  N         18.3760   -9.1900   30.4340 N.3    18  ARG18      -0.1231
     29  CA        17.6880  -10.0550   31.4020 C.3    18  ARG18       0.1694
     30  C         17.3100  -11.3910   30.8070 C.2    18  ARG18       0.2591
     31  O         17.3930  -12.4130   31.5000 O.2    18  ARG18      -0.2718
     32  CB        16.4920   -9.2740   31.9240 C.3    18  ARG18       0.0321
     33  CG        15.5130   -9.9340   32.8760 C.3    18  ARG18       0.0489
     34  CD        14.3990   -9.0510   33.3420 C.3    18  ARG18       0.2205
     35  NE        13.8140   -8.1210   32.3470 N.pl3  18  ARG18      -0.0865
     36  CZ        12.6310   -8.4030   31.7510 C.cat  18  ARG18       0.5346
     37  NH1       12.0610   -9.5920   32.0220 N.pl3  18  ARG18       0.1354
     38  NH2       12.0920   -7.5250   30.9110 N.pl3  18  ARG18       0.1354
     39  N         16.8570  -11.4090   29.5630 N.am   19  ARG19      -0.1980
     40  CA        16.3270  -12.5980   28.8790 C.3    19  ARG19       0.1597
     41  C         16.9940  -12.6130   27.5010 C.2    19  ARG19       0.2287
     42  O         16.4270  -12.1010   26.5380 O.2    19  ARG19      -0.2864
     43  CB        14.8100  -12.6120   28.6690 C.3    19  ARG19       0.0334
     44  CG        13.9840  -12.9690   29.8860 C.3    19  ARG19       0.0492
     45  CD        12.5030  -12.8240   29.6850 C.3    19  ARG19       0.2205
     46  NE        12.1150  -11.4680   29.3560 N.pl3  19  ARG19      -0.0865
     47  CZ        11.0970  -11.0980   28.5440 C.cat  19  ARG19       0.5346
     48  NH1       10.3460  -11.9930   27.9490 N.pl3  19  ARG19       0.1354
     49  NH2       11.0030   -9.8000   28.2940 N.pl3  19  ARG19       0.1354
     50  N         11.8340   -7.4400   20.6660 N.3    63  CYS63      -0.1235
     51  CA        10.5990   -7.5860   21.4420 C.3    63  CYS63       0.1677
     52  C          9.5170   -8.2560   20.6120 C.2    63  CYS63       0.2270
     53  O          9.4370   -8.0230   19.3970 O.2    63  CYS63      -0.2867
     54  CB        10.1280   -6.1890   21.8890 C.3    63  CYS63       0.0956
     55  SG         8.6430   -6.1960   22.9000 S.3    63  CYS63      -0.0801
     56  N          3.3520   -1.0180   21.4340 N.3    72  LEU72      -0.1245
     57  CA         3.1140   -1.5490   22.7780 C.3    72  LEU72       0.1561
     58  C          1.7350   -1.2340   23.2790 C.2    72  LEU72       0.2260
     59  O          1.3460   -1.7070   24.3400 O.2    72  LEU72      -0.2867
     60  CB         4.1560   -0.9960   23.7540 C.3    72  LEU72       0.0270
     61  CG         5.5690   -1.4540   23.5020 C.3    72  LEU72       0.0019
     62  CD1        6.5620   -0.6060   24.3330 C.3    72  LEU72       0.0001
     63  CD2        5.6550   -2.9350   23.8610 C.3    72  LEU72       0.0001
     64  N          5.8040   -0.1840   33.0420 N.3    80  MET80      -0.1230
     65  CA         6.9820   -0.5490   32.2910 C.3    80  MET80       0.1702
     66  C          8.2020   -0.3430   33.1840 C.2    80  MET80       0.2592
     67  O          8.0790    0.2770   34.2520 O.2    80  MET80      -0.2718
     68  CB         7.1380    0.3610   31.0660 C.3    80  MET80       0.0401
     69  CG         5.9140    0.2990   30.1580 C.3    80  MET80       0.0596
     70  SD         5.8420   -1.3390   29.3700 S.3    80  MET80      -0.1393
     71  CE         4.5550   -1.0400   28.1500 C.3    80  MET80       0.0692
     72  N          9.3580   -0.8090   32.7590 N.am   81  GLN81      -0.1979
     73  CA        10.5650   -0.5020   33.5020 C.3    81  GLN81       0.1601
     74  C         10.7420    1.0050   33.6110 C.2    81  GLN81       0.2287
     75  O         10.4520    1.7140   32.6380 O.2    81  GLN81      -0.2864
     76  CB        11.7900   -1.1400   32.8040 C.3    81  GLN81       0.0394
     77  CG        11.7430   -2.6780   33.0070 C.3    81  GLN81       0.0908
     78  CD        12.9480   -3.4070   32.4770 C.2    81  GLN81       0.2608
     79  OE1       14.1150   -2.9780   32.6600 O.2    81  GLN81      -0.2717
     80  NE2       12.7610   -4.5580   31.7990 N.am   81  GLN81      -0.0878
     81  N         12.3120    3.1620   30.7920 N.3    84  PHE84      -0.1241
     82  CA        11.4480    3.1750   29.6050 C.3    84  PHE84       0.1605
     83  C         10.2850    4.1240   29.8080 C.2    84  PHE84       0.2264
     84  O          9.8780    4.9050   28.9250 O.2    84  PHE84      -0.2867
     85  CB        10.9610    1.7450   29.3470 C.3    84  PHE84       0.0534
     86  CG        10.2560    1.6000   28.0010 C.ar   84  PHE84      -0.0203
     87  CD1        8.9170    1.8970   27.8460 C.ar   84  PHE84      -0.0042
     88  CD2       10.9870    1.1820   26.8780 C.ar   84  PHE84      -0.0042
     89  CE1        8.2700    1.7910   26.6270 C.ar   84  PHE84      -0.0003
     90  CE2       10.3490    1.0520   25.6760 C.ar   84  PHE84      -0.0003
     91  CZ         9.0190    1.3630   25.5560 C.ar   84  PHE84      -0.0000
     92  N         17.3300   -0.3920   29.4890 N.3   102  THR102     -0.1218
     93  CA        16.6130   -1.1150   30.5220 C.3   102  THR102      0.1862
     94  C         17.3090   -2.4370   30.7740 C.2   102  THR102      0.2287
     95  O         18.2110   -2.8670   30.0630 O.2   102  THR102     -0.2866
     96  CB        15.1430   -1.4160   30.1510 C.3   102  THR102      0.1770
     97  OG1       15.1140   -2.3880   29.1060 O.3   102  THR102     -0.2211
     98  CG2       14.4170   -0.1940   29.6320 C.3   102  THR102      0.0375
     99  N         16.0750   -5.0830   29.9520 N.3   104  SER104     -0.1217
    100  CA        15.8150   -5.9020   28.7570 C.3   104  SER104      0.1889
    101  C         16.8060   -5.7090   27.6230 C.2   104  SER104      0.2288
    102  O         16.9840   -6.6310   26.8240 O.2   104  SER104     -0.2866
    103  CB        14.4260   -5.5580   28.2230 C.3   104  SER104      0.2089
    104  OG        13.4370   -5.8840   29.1850 O.3   104  SER104     -0.2183
    105  N         16.6850    0.4170   23.7760 N.3   107  HIS107     -0.1241
    106  CA        15.4940    0.6900   22.9910 C.3   107  HIS107      0.1621
    107  C         15.6200    2.0250   22.2660 C.2   107  HIS107      0.2264
    108  O         16.3110    2.9140   22.7600 O.2   107  HIS107     -0.2867
    109  CB        14.2580    0.8120   23.8840 C.3   107  HIS107      0.0745
    110  CG        14.0170   -0.2590   24.8930 C.ar  107  HIS107      0.0817
    111  ND1       12.9420   -1.1190   24.8220 N.ar  107  HIS107     -0.2268
    112  CD2       14.6970   -0.5610   26.0340 C.ar  107  HIS107      0.1154
    113  CE1       12.9800   -1.9290   25.8940 C.ar  107  HIS107      0.1986
    114  NE2       14.0370   -1.6150   26.6320 N.ar  107  HIS107     -0.2212
@<TRIPOS>BOND
     1     4     3    2
     2     3     2    1
     3    53    52    2
     4    14    13    2
     5     1     2    1
     6    11    12    1
     7     2     5    1
     8    13    12    1
     9    52    51    1
    10    50    51    1
    11    12    15    1
    12    56    57    1
    13    51    54    1
    14     5     6    1
    15     8     6   ar
    16     8    10   ar
    17    54    55    1
    18    22    21    2
    19    19    20    1
    20    15    16    1
    21     6     7   ar
    22   107   108    2
    23   107   106    1
    24    10     9   ar
    25    57    58    1
    26    57    60    1
    27   106   105    1
    28   106   109    1
    29     7     9   ar
    30    21    20    1
    31    16    18    1
    32    16    17    1
    33    20    23    1
    34    58    59    2
    35    23    24    1
    36    61    60    1
    37    61    63    1
    38    61    62    1
    39   109   110    1
    40    24    25    1
    41    25    26    1
    42    26    27    1
    43   111   110   ar
    44   111   113   ar
    45   110   112   ar
    46    91    90   ar
    47    91    89   ar
    48    90    88   ar
    49   113   114   ar
    50   112   114   ar
    51    42    41    2
    52    89    87   ar
    53   102   101    2
    54    88    86   ar
    55    41    40    1
    56   101   100    1
    57    87    86   ar
    58    48    47    1
    59    86    85    1
    60    71    70    1
    61   103   100    1
    62   103   104    1
    63    49    47    1
    64    47    46    2
    65    43    40    1
    66    43    44    1
    67   100    99    1
    68    40    39    1
    69    84    83    2
    70    97    96    1
    71    85    82    1
    72    46    45    1
    73    70    69    1
    74    92    93    1
    75    39    30   am
    76    82    83    1
    77    82    81    1
    78    98    96    1
    79    45    44    1
    80    95    94    2
    81    96    93    1
    82    69    68    1
    83    28    29    1
    84    93    94    1
    85    30    29    1
    86    30    31    2
    87    38    36    1
    88    68    65    1
    89    29    32    1
    90    36    37    1
    91    36    35    2
    92    80    78   am
    93    32    33    1
    94    65    64    1
    95    65    66    1
    96    35    34    1
    97    78    79    2
    98    78    77    1
    99    75    74    2
   100    72    66   am
   101    72    73    1
   102    76    77    1
   103    76    73    1
   104    33    34    1
   105    66    67    2
   106    73    74    1
