@<TRIPOS>MOLECULE
tmp/3i6cB00.pdb
 138 130 0 0 0
SMALL
GASTEIGER

@<TRIPOS>ATOM
      1  N          1.6840   20.9200   43.4550 N.3     9  HIS9       -0.1241
      2  CA         2.2970   21.1460   44.7800 C.3     9  HIS9        0.1621
      3  C          2.6380   19.8040   45.4130 C.2     9  HIS9        0.2264
      4  O          2.1610   18.7410   44.9830 O.2     9  HIS9       -0.2867
      5  CB         1.3930   21.9780   45.7120 C.3     9  HIS9        0.0745
      6  CG         0.2280   21.2430   46.3240 C.ar    9  HIS9        0.0817
      7  ND1       -0.1430   21.4510   47.6310 N.ar    9  HIS9       -0.2268
      8  CD2       -0.6260   20.3280   45.8530 C.ar    9  HIS9        0.1154
      9  CE1       -1.1630   20.7150   48.0000 C.ar    9  HIS9        0.1986
     10  NE2       -1.4870   20.0250   46.8990 N.ar    9  HIS9       -0.2212
     11  N          2.5370   18.6480   49.3860 N.3    11  LEU11      -0.1245
     12  CA         2.0820   18.9900   50.7220 C.3    11  LEU11       0.1561
     13  C          2.6010   18.0050   51.7630 C.2    11  LEU11       0.2260
     14  O          2.4680   16.7990   51.5430 O.2    11  LEU11      -0.2867
     15  CB         0.5430   18.9540   50.7640 C.3    11  LEU11       0.0270
     16  CG        -0.0830   19.1490   52.1570 C.3    11  LEU11       0.0019
     17  CD1        0.3250   20.4990   52.7430 C.3    11  LEU11       0.0001
     18  CD2       -1.5820   18.9900   51.9930 C.3    11  LEU11       0.0001
     19  N          1.6730   17.3020   55.5260 N.3    13  LYS13      -0.1245
     20  CA         0.7770   17.6860   56.6410 C.3    13  LYS13       0.1561
     21  C          1.4690   17.5180   57.9670 C.2    13  LYS13       0.2260
     22  O          2.4870   16.8540   58.0830 O.2    13  LYS13      -0.2867
     23  CB        -0.4710   16.7900   56.5770 C.3    13  LYS13       0.0271
     24  CG        -1.3610   17.1060   55.3820 C.3    13  LYS13       0.0035
     25  CD        -2.6380   16.2830   55.4310 C.3    13  LYS13       0.0206
     26  CE        -3.5800   16.6930   54.2860 C.3    13  LYS13       0.1093
     27  NZ        -4.9110   16.0630   54.4110 N.3    13  LYS13      -0.1314
     28  N         -6.9640   18.5980   58.2330 N.3    19  ARG19      -0.1245
     29  CA        -7.3580   17.2060   58.0470 C.3    19  ARG19       0.1563
     30  C         -6.0980   16.3620   58.2160 C.2    19  ARG19       0.2260
     31  O         -5.3990   16.1230   57.2190 O.2    19  ARG19      -0.2867
     32  CB        -7.9780   16.9470   56.6670 C.3    19  ARG19       0.0307
     33  CG        -8.7420   15.6200   56.6990 C.3    19  ARG19       0.0489
     34  CD        -9.3840   15.2880   55.3610 C.3    19  ARG19       0.2205
     35  NE        -9.4190   13.8180   55.2100 N.pl3  19  ARG19      -0.0865
     36  CZ        -8.4770   13.1390   54.5620 C.cat  19  ARG19       0.5346
     37  NH1       -7.4670   13.8210   54.0290 N.pl3  19  ARG19       0.1354
     38  NH2       -8.5000   11.8180   54.4190 N.pl3  19  ARG19       0.1354
     39  N          1.0610   14.5600   50.7830 N.3    62  ASP62      -0.1225
     40  CA        -0.1060   14.1850   51.5780 C.3    62  ASP62       0.1805
     41  C         -1.3910   14.6730   50.9590 C.2    62  ASP62       0.2598
     42  O         -2.4510   14.3770   51.4990 O.2    62  ASP62      -0.2718
     43  CB         0.0100   14.7200   53.0150 C.3    62  ASP62       0.1424
     44  CG         0.8850   13.8380   53.8980 C.2    62  ASP62       0.3668
     45  OD1        0.7120   12.5990   53.9070 O.co2  62  ASP62      -0.2456
     46  OD2        1.7600   14.4560   54.5570 O.co2  62  ASP62      -0.2456
     47  N         -1.3500   15.3730   49.8420 N.am   63  CYS63      -0.1956
     48  CA        -2.6080   15.7360   49.1850 C.3    63  CYS63       0.1843
     49  C         -3.0390   14.6420   48.2440 C.2    63  CYS63       0.2626
     50  O         -2.1830   13.9460   47.6570 O.2    63  CYS63      -0.2714
     51  CB        -2.3220   17.0490   48.4320 C.3    63  CYS63       0.0997
     52  SG        -3.7220   17.6390   47.4710 S.3    63  CYS63      -0.0797
     53  N         -4.3140   14.4210   48.0120 N.am   64  SER64      -0.1936
     54  CA        -4.6890   13.3940   47.0180 C.3    64  SER64       0.2055
     55  C         -4.2700   13.7580   45.6110 C.2    64  SER64       0.2643
     56  O         -4.2800   12.8710   44.7490 O.2    64  SER64      -0.2714
     57  CB        -6.1870   13.1870   47.0810 C.3    64  SER64       0.2130
     58  OG        -6.7540   14.3660   46.5090 O.3    64  SER64      -0.2179
     59  N         -3.8530   14.9940   45.3470 N.am   65  SER65      -0.1949
     60  CA        -3.2830   15.3400   44.0400 C.3    65  SER65       0.1924
     61  C         -1.9510   14.6390   43.7900 C.2    65  SER65       0.2314
     62  O         -1.4530   14.7060   42.6550 O.2    65  SER65      -0.2863
     63  CB        -3.1070   16.8480   43.8690 C.3    65  SER65       0.2116
     64  OG        -2.2220   17.3200   44.9010 O.3    65  SER65      -0.2180
     65  N         -1.7390   11.7050   43.2070 N.3    67  LYS67      -0.1231
     66  CA        -2.1040   10.7570   42.1660 C.3    67  LYS67       0.1693
     67  C         -1.9580   11.3780   40.7880 C.2    67  LYS67       0.2591
     68  O         -1.6960   10.6760   39.8240 O.2    67  LYS67      -0.2718
     69  CB        -3.5240   10.2710   42.4190 C.3    67  LYS67       0.0285
     70  CG        -4.6160   11.2960   42.1360 C.3    67  LYS67       0.0035
     71  CD        -5.9580   10.5680   42.1920 C.3    67  LYS67       0.0206
     72  CE        -6.9820   11.4310   42.9210 C.3    67  LYS67       0.1093
     73  NZ        -8.3320   11.2430   42.2800 N.3    67  LYS67      -0.1314
     74  N         -2.0970   12.6920   40.7080 N.am   68  ALA68      -0.1980
     75  CA        -1.8390   13.4540   39.5100 C.3    68  ALA68       0.1597
     76  C         -0.4390   14.0710   39.5240 C.2    68  ALA68       0.2287
     77  O         -0.2360   15.0950   38.8690 O.2    68  ALA68      -0.2864
     78  CB        -2.9320   14.5050   39.3310 C.3    68  ALA68       0.0319
     79  N         -0.5100   17.7610   40.4070 N.3    71  ASP71      -0.1225
     80  CA        -1.2100   18.7630   39.6310 C.3    71  ASP71       0.1805
     81  C         -2.5500   19.0440   40.2800 C.2    71  ASP71       0.2597
     82  O         -3.3620   18.1650   40.5540 O.2    71  ASP71      -0.2718
     83  CB        -1.3650   18.2910   38.1710 C.3    71  ASP71       0.1424
     84  CG        -2.1800   19.2050   37.2810 C.2    71  ASP71       0.3668
     85  OD1       -2.0300   20.4450   37.3950 O.co2  71  ASP71      -0.2456
     86  OD2       -2.9910   18.7540   36.4330 O.co2  71  ASP71      -0.2456
     87  N         -2.8470   20.3120   40.5390 N.am   72  LEU72      -0.1979
     88  CA        -4.1460   20.6760   41.0480 C.3    72  LEU72       0.1596
     89  C         -5.0810   21.1630   39.9460 C.2    72  LEU72       0.2287
     90  O         -6.2370   21.5330   40.1700 O.2    72  LEU72      -0.2864
     91  CB        -3.9890   21.8420   42.0470 C.3    72  LEU72       0.0297
     92  CG        -3.1370   21.4400   43.2470 C.3    72  LEU72       0.0022
     93  CD1       -2.6370   22.6500   44.0060 C.3    72  LEU72       0.0001
     94  CD2       -3.9620   20.5030   44.1440 C.3    72  LEU72       0.0001
     95  N         -9.2710   28.1780   45.7370 N.3    80  MET80      -0.1230
     96  CA        -8.4140   27.6220   46.7660 C.3    80  MET80       0.1702
     97  C         -8.4370   28.4680   48.0390 C.2    80  MET80       0.2592
     98  O         -9.0050   29.5500   47.9930 O.2    80  MET80      -0.2718
     99  CB        -6.9700   27.5320   46.2560 C.3    80  MET80       0.0401
    100  CG        -6.8160   26.7070   44.9890 C.3    80  MET80       0.0596
    101  SD        -6.7460   24.9290   45.3460 S.3    80  MET80      -0.1393
    102  CE        -7.8670   24.3370   44.0750 C.3    80  MET80       0.0692
    103  N         -7.8340   27.9460   49.1100 N.am   81  GLN81      -0.1979
    104  CA        -7.6350   28.6170   50.3840 C.3    81  GLN81       0.1601
    105  C         -6.7520   29.8360   50.2130 C.2    81  GLN81       0.2287
    106  O         -5.7850   29.7850   49.4520 O.2    81  GLN81      -0.2864
    107  CB        -7.0320   27.6290   51.3950 C.3    81  GLN81       0.0394
    108  CG        -5.5720   27.2590   51.3580 C.3    81  GLN81       0.0908
    109  CD        -5.2120   26.2740   52.4570 C.2    81  GLN81       0.2608
    110  OE1       -4.9550   25.0930   52.2060 O.2    81  GLN81      -0.2717
    111  NE2       -5.2210   26.7510   53.7030 N.am   81  GLN81      -0.0878
    112  N         -2.7690   29.7520   50.2100 N.3    84  PHE84      -0.1241
    113  CA        -2.2350   29.0140   49.0550 C.3    84  PHE84       0.1605
    114  C         -2.3920   29.8300   47.7750 C.2    84  PHE84       0.2264
    115  O         -1.4630   29.9500   46.9800 O.2    84  PHE84      -0.2867
    116  CB        -2.9780   27.6750   48.9870 C.3    84  PHE84       0.0534
    117  CG        -2.4230   26.7460   47.9210 C.ar   84  PHE84      -0.0203
    118  CD1       -2.8880   26.8130   46.5980 C.ar   84  PHE84      -0.0042
    119  CD2       -1.4430   25.8480   48.2860 C.ar   84  PHE84      -0.0042
    120  CE1       -2.3490   25.9990   45.6320 C.ar   84  PHE84      -0.0003
    121  CE2       -0.9110   25.0290   47.2940 C.ar   84  PHE84      -0.0003
    122  CZ        -1.3550   25.0890   45.9940 C.ar   84  PHE84      -0.0000
    123  N         -3.2160   23.8040   56.0250 N.3   104  SER104     -0.1217
    124  CA        -3.2150   22.4130   55.5740 C.3   104  SER104      0.1889
    125  C         -1.9130   21.6890   55.8250 C.2   104  SER104      0.2288
    126  O         -1.8870   20.4420   55.7620 O.2   104  SER104     -0.2866
    127  CB        -3.4910   22.3650   54.0620 C.3   104  SER104      0.2089
    128  OG        -4.8260   22.7800   53.7770 O.3   104  SER104     -0.2183
    129  N          3.7190   23.4560   52.1710 N.3   107  HIS107     -0.1241
    130  CA         3.7360   23.1230   50.7620 C.3   107  HIS107      0.1621
    131  C          4.9910   23.5820   50.0270 C.2   107  HIS107      0.2264
    132  O          5.5970   24.5710   50.4300 O.2   107  HIS107     -0.2867
    133  CB         2.6000   23.8140   50.0080 C.3   107  HIS107      0.0745
    134  CG         1.2610   23.7560   50.6620 C.ar  107  HIS107      0.0817
    135  ND1        0.1820   23.1590   50.0430 N.ar  107  HIS107     -0.2268
    136  CD2        0.7970   24.2450   51.8380 C.ar  107  HIS107      0.1154
    137  CE1       -0.8940   23.2760   50.8470 C.ar  107  HIS107      0.1986
    138  NE2       -0.5260   23.9180   51.9200 N.ar  107  HIS107     -0.2212
@<TRIPOS>BOND
     1    86    84   ar
     2    84    85   ar
     3    84    83    1
     4    83    80    1
     5    77    76    2
     6    78    75    1
     7    75    76    1
     8    75    74    1
     9    80    81    1
    10    80    79    1
    11    68    67    2
    12    89    90    2
    13    89    88    1
    14    81    87   am
    15    81    82    2
    16    87    88    1
    17    74    67   am
    18    67    66    1
    19    88    91    1
    20    91    92    1
    21    70    71    1
    22    70    69    1
    23    66    69    1
    24    66    65    1
    25    71    72    1
    26    73    72    1
    27    62    61    2
    28    92    93    1
    29    92    94    1
    30     1     2    1
    31    61    60    1
    32    63    60    1
    33    63    64    1
    34    60    59    1
    35   102   101    1
    36    56    55    2
    37     2     3    1
    38     2     5    1
    39     4     3    2
    40   100   101    1
    41   100    99    1
    42    59    55   am
    43    55    54    1
    44   120   122   ar
    45   120   118   ar
    46     5     6    1
    47    95    96    1
    48     8     6   ar
    49     8    10   ar
    50   122   121   ar
    51    99    96    1
    52     6     7   ar
    53    58    57    1
    54   118   117   ar
    55    96    97    1
    56    10     9   ar
    57   115   114    2
    58    54    57    1
    59    54    53    1
    60   121   119   ar
    61    52    51    1
    62     7     9   ar
    63    50    49    2
    64   114   113    1
    65   117   119   ar
    66   117   116    1
    67    98    97    2
    68    53    49   am
    69    97   103   am
    70    49    48    1
    71    51    48    1
    72   116   113    1
    73   113   112    1
    74   103   104    1
    75    48    47    1
    76    11    12    1
    77   106   105    2
    78    47    41   am
    79   133   134    1
    80   133   130    1
    81   131   132    2
    82   131   130    1
    83   135   134   ar
    84   135   137   ar
    85   105   104    1
    86   104   107    1
    87   134   136   ar
    88    12    15    1
    89    12    13    1
    90   130   129    1
    91    15    16    1
    92    39    40    1
    93   137   138   ar
    94    41    42    2
    95    41    40    1
    96   108   107    1
    97   108   109    1
    98    14    13    2
    99    40    43    1
   100   136   138   ar
   101    18    16    1
   102    16    17    1
   103   110   109    2
   104   109   111   am
   105    43    44    1
   106   128   127    1
   107    44    45   ar
   108    44    46   ar
   109    37    36    1
   110   127   124    1
   111    26    27    1
   112    26    25    1
   113    38    36    1
   114    36    35    2
   115    35    34    1
   116    34    33    1
   117    24    25    1
   118    24    23    1
   119    19    20    1
   120   124   125    1
   121   124   123    1
   122   126   125    2
   123    23    20    1
   124    20    21    1
   125    32    33    1
   126    32    29    1
   127    31    30    2
   128    21    22    2
   129    29    30    1
   130    29    28    1
