@<TRIPOS>MOLECULE
tmp/3i6dB01.pdb
 162 154 0 0 0
SMALL
GASTEIGER

@<TRIPOS>ATOM
      1  N         40.3930  -40.3370   21.7000 N.3    61  ASP61      -0.1225
      2  CA        40.7720  -41.5560   21.0180 C.3    61  ASP61       0.1805
      3  C         41.9120  -42.2420   21.7810 C.2    61  ASP61       0.2598
      4  O         41.7300  -43.3210   22.3220 O.2    61  ASP61      -0.2718
      5  CB        41.1850  -41.1710   19.5930 C.3    61  ASP61       0.1424
      6  CG        41.8190  -42.2920   18.8460 C.2    61  ASP61       0.3668
      7  OD1       42.9430  -42.6830   19.2240 O.co2  61  ASP61      -0.2456
      8  OD2       41.1900  -42.7740   17.8810 O.co2  61  ASP61      -0.2456
      9  N         43.0750  -41.6010   21.8380 N.am   62  SER62      -0.1952
     10  CA        44.2390  -42.1520   22.5350 C.3    62  SER62       0.1924
     11  C         45.0510  -41.0090   23.1320 C.2    62  SER62       0.2314
     12  O         44.5380  -39.9040   23.3040 O.2    62  SER62      -0.2863
     13  CB        45.1040  -42.9150   21.5450 C.3    62  SER62       0.2116
     14  OG        45.4400  -42.0790   20.4490 O.3    62  SER62      -0.2180
     15  N         49.3290  -39.2440   23.4320 N.3    64  LEU64      -0.1245
     16  CA        50.7410  -39.2490   23.0480 C.3    64  LEU64       0.1561
     17  C         51.5680  -39.9900   24.0950 C.2    64  LEU64       0.2260
     18  O         51.5510  -39.6420   25.2720 O.2    64  LEU64      -0.2867
     19  CB        51.2510  -37.8160   22.9110 C.3    64  LEU64       0.0270
     20  CG        52.4120  -37.6310   21.9410 C.3    64  LEU64       0.0019
     21  CD1       51.9350  -38.0540   20.5640 C.3    64  LEU64       0.0001
     22  CD2       52.8830  -36.1790   21.9240 C.3    64  LEU64       0.0001
     23  N         54.9620  -40.2250   24.4050 N.3    66  ARG66      -0.1231
     24  CA        56.1490  -39.5270   24.8950 C.3    66  ARG66       0.1694
     25  C         55.8640  -38.6530   26.1170 C.2    66  ARG66       0.2591
     26  O         56.7880  -38.2300   26.8140 O.2    66  ARG66      -0.2718
     27  CB        56.8010  -38.6840   23.7790 C.3    66  ARG66       0.0321
     28  CG        55.9540  -37.5400   23.2670 C.3    66  ARG66       0.0489
     29  CD        56.7860  -36.4340   22.5980 C.3    66  ARG66       0.2205
     30  NE        57.2530  -36.7290   21.2360 N.pl3  66  ARG66      -0.0865
     31  CZ        56.4910  -37.2160   20.2520 C.cat  66  ARG66       0.5346
     32  NH1       55.2110  -37.4870   20.4700 N.pl3  66  ARG66       0.1354
     33  NH2       56.9890  -37.3930   19.0320 N.pl3  66  ARG66       0.1354
     34  N         54.5900  -38.3930   26.3920 N.am   67  LYS67      -0.1980
     35  CA        54.2380  -37.5710   27.5440 C.3    67  LYS67       0.1596
     36  C         54.0420  -38.4570   28.7670 C.2    67  LYS67       0.2287
     37  O         52.9410  -38.9450   29.0280 O.2    67  LYS67      -0.2864
     38  CB        52.9800  -36.7480   27.2340 C.3    67  LYS67       0.0298
     39  CG        53.2620  -35.5780   26.3000 C.3    67  LYS67       0.0038
     40  CD        52.0120  -34.8290   25.8720 C.3    67  LYS67       0.0206
     41  CE        52.3880  -33.6720   24.9540 C.3    67  LYS67       0.1093
     42  NZ        51.2310  -33.0110   24.3110 N.3    67  LYS67      -0.1314
     43  N         46.3910  -28.9620   11.6050 N.3   149  LEU149     -0.1245
     44  CA        46.1710  -28.2330   12.8440 C.3   149  LEU149      0.1561
     45  C         44.7040  -28.0580   13.1740 C.2   149  LEU149      0.2260
     46  O         44.2830  -28.3040   14.3050 O.2   149  LEU149     -0.2867
     47  CB        46.8450  -26.8670   12.7940 C.3   149  LEU149      0.0270
     48  CG        48.3680  -26.8780   12.7020 C.3   149  LEU149      0.0019
     49  CD1       48.8640  -25.4990   13.0620 C.3   149  LEU149      0.0001
     50  CD2       48.9760  -27.9170   13.6450 C.3   149  LEU149      0.0001
     51  N         42.4880  -29.8580   12.3960 N.3   151  GLY151     -0.1210
     52  CA        41.9870  -31.1680   12.7390 C.3   151  GLY151      0.1956
     53  C         42.1750  -31.5630   14.1890 C.2   151  GLY151      0.2612
     54  O         41.4680  -32.4460   14.6590 O.2   151  GLY151     -0.2717
     55  N         43.0970  -30.9250   14.9100 N.am  152  ILE152     -0.1965
     56  CA        43.3330  -31.2790   16.3120 C.3   152  ILE152      0.1727
     57  C         43.1850  -30.1270   17.3000 C.2   152  ILE152      0.2616
     58  O         43.7490  -30.1680   18.3960 O.2   152  ILE152     -0.2715
     59  CB        44.7400  -31.8580   16.5090 C.3   152  ILE152      0.0290
     60  CG1       45.7720  -30.7600   16.2620 C.3   152  ILE152      0.0022
     61  CG2       44.9720  -33.0140   15.5470 C.3   152  ILE152      0.0023
     62  CD1       47.1750  -31.1150   16.6810 C.3   152  ILE152      0.0001
     63  N         42.4470  -29.0970   16.9090 N.am  153  TYR153     -0.1974
     64  CA        42.2110  -27.9320   17.7600 C.3   153  TYR153      0.1639
     65  C         40.8920  -27.3250   17.3280 C.2   153  TYR153      0.2290
     66  O         40.3290  -26.4760   18.0150 O.2   153  TYR153     -0.2864
     67  CB        43.3250  -26.8900   17.5940 C.3   153  TYR153      0.0560
     68  CG        44.6460  -27.2560   18.2410 C.ar  153  TYR153     -0.0198
     69  CD1       44.8070  -27.2090   19.6370 C.ar  153  TYR153     -0.0009
     70  CD2       45.7300  -27.6800   17.4600 C.ar  153  TYR153     -0.0009
     71  CE1       46.0140  -27.5780   20.2360 C.ar  153  TYR153      0.0417
     72  CE2       46.9380  -28.0530   18.0380 C.ar  153  TYR153      0.0417
     73  CZ        47.0810  -28.0050   19.4260 C.ar  153  TYR153      0.1957
     74  OH        48.2900  -28.3970   19.9850 O.3   153  TYR153     -0.2866
     75  N         52.4640  -24.7360   20.7390 N.3   166  PHE166     -0.1241
     76  CA        53.7800  -25.3250   20.4940 C.3   166  PHE166      0.1605
     77  C         54.8630  -24.5120   21.1720 C.2   166  PHE166      0.2264
     78  O         55.7260  -23.9460   20.5040 O.2   166  PHE166     -0.2867
     79  CB        54.0820  -25.4010   18.9890 C.3   166  PHE166      0.0534
     80  CG        53.2090  -26.3630   18.2450 C.ar  166  PHE166     -0.0203
     81  CD1       53.1480  -27.7010   18.6240 C.ar  166  PHE166     -0.0042
     82  CD2       52.4230  -25.9270   17.1890 C.ar  166  PHE166     -0.0042
     83  CE1       52.3070  -28.5910   17.9580 C.ar  166  PHE166     -0.0003
     84  CE2       51.5750  -26.8090   16.5150 C.ar  166  PHE166     -0.0003
     85  CZ        51.5150  -28.1430   16.8990 C.ar  166  PHE166     -0.0000
     86  N         57.4890  -25.2100   22.3330 N.3   168  GLN168     -0.1245
     87  CA        58.8250  -25.6480   21.9480 C.3   168  GLN168      0.1566
     88  C         59.5020  -24.8240   20.8460 C.2   168  GLN168      0.2260
     89  O         60.6860  -25.0170   20.5830 O.2   168  GLN168     -0.2867
     90  CB        58.8070  -27.1300   21.5450 C.3   168  GLN168      0.0367
     91  CG        57.6410  -27.5440   20.6660 C.3   168  GLN168      0.0905
     92  CD        56.4380  -28.0060   21.4770 C.2   168  GLN168      0.2608
     93  OE1       56.0020  -27.3230   22.4080 O.2   168  GLN168     -0.2717
     94  NE2       55.8930  -29.1710   21.1220 N.am  168  GLN168     -0.0878
     95  N         51.1100  -43.4510   19.6760 N.3   176  PHE176     -0.1241
     96  CA        49.9480  -43.2250   20.5450 C.3   176  PHE176      0.1605
     97  C         49.5360  -44.4890   21.2840 C.2   176  PHE176      0.2264
     98  O         49.6350  -45.5810   20.7430 O.2   176  PHE176     -0.2867
     99  CB        48.7590  -42.7450   19.7200 C.3   176  PHE176      0.0534
    100  CG        48.8860  -41.3370   19.2370 C.ar  176  PHE176     -0.0203
    101  CD1       48.5690  -40.2730   20.0730 C.ar  176  PHE176     -0.0042
    102  CD2       49.3600  -41.0690   17.9610 C.ar  176  PHE176     -0.0042
    103  CE1       48.7250  -38.9610   19.6470 C.ar  176  PHE176     -0.0003
    104  CE2       49.5200  -39.7600   17.5230 C.ar  176  PHE176     -0.0003
    105  CZ        49.2020  -38.7020   18.3700 C.ar  176  PHE176     -0.0000
    106  N         35.6420  -43.4620   11.0910 N.3   313  ARG313     -0.1245
    107  CA        35.4300  -42.3340   11.9820 C.3   313  ARG313      0.1563
    108  C         35.5630  -41.0560   11.1660 C.2   313  ARG313      0.2260
    109  O         36.5810  -40.8240   10.5120 O.2   313  ARG313     -0.2867
    110  CB        36.4750  -42.3500   13.0860 C.3   313  ARG313      0.0307
    111  CG        36.2930  -41.2710   14.1270 C.3   313  ARG313      0.0489
    112  CD        37.4170  -41.3560   15.1480 C.3   313  ARG313      0.2205
    113  NE        37.1540  -40.5540   16.3380 N.pl3 313  ARG313     -0.0865
    114  CZ        37.9860  -40.4580   17.3670 C.cat 313  ARG313      0.5346
    115  NH1       39.1400  -41.1130   17.3490 N.pl3 313  ARG313      0.1354
    116  NH2       37.6610  -39.7110   18.4120 N.pl3 313  ARG313      0.1354
    117  N         34.9890  -36.7390   11.2010 N.3   315  TYR315     -0.1241
    118  CA        34.8140  -35.5550   12.0190 C.3   315  TYR315      0.1605
    119  C         34.1140  -34.4710   11.2240 C.2   315  TYR315      0.2264
    120  O         34.3140  -34.3470   10.0230 O.2   315  TYR315     -0.2867
    121  CB        36.1730  -35.0680   12.5200 C.3   315  TYR315      0.0534
    122  CG        36.4930  -35.5750   13.9010 C.ar  315  TYR315     -0.0201
    123  CD1       35.9030  -34.9870   15.0240 C.ar  315  TYR315     -0.0009
    124  CD2       37.3410  -36.6690   14.0870 C.ar  315  TYR315     -0.0009
    125  CE1       36.1460  -35.4750   16.3060 C.ar  315  TYR315      0.0417
    126  CE2       37.5970  -37.1700   15.3680 C.ar  315  TYR315      0.0417
    127  CZ        36.9930  -36.5640   16.4760 C.ar  315  TYR315      0.1957
    128  OH        37.2320  -37.0290   17.7510 O.3   315  TYR315     -0.2866
    129  N         35.9070  -27.7850   22.5680 N.3   362  MET362     -0.1245
    130  CA        37.2560  -27.6160   22.0510 C.3   362  MET362      0.1570
    131  C         37.7570  -26.2420   22.4820 C.2   362  MET362      0.2261
    132  O         37.5380  -25.2480   21.7840 O.2   362  MET362     -0.2867
    133  CB        37.2640  -27.7160   20.5110 C.3   362  MET362      0.0387
    134  CG        36.6470  -28.9700   19.9570 C.3   362  MET362      0.0595
    135  SD        37.3530  -30.4890   20.6900 S.3   362  MET362     -0.1393
    136  CE        38.7540  -30.7830   19.5900 C.3   362  MET362      0.0692
    137  N         45.3250  -29.0420   26.2890 N.3   397  VAL397     -0.1231
    138  CA        44.0640  -29.7340   26.1710 C.3   397  VAL397      0.1692
    139  C         44.3170  -31.2320   26.1290 C.2   397  VAL397      0.2592
    140  O         43.4340  -32.0020   26.3960 O.2   397  VAL397     -0.2718
    141  CB        43.3120  -29.2980   24.9040 C.3   397  VAL397      0.0266
    142  CG1       42.9530  -27.8370   25.0030 C.3   397  VAL397      0.0020
    143  CG2       44.1630  -29.5250   23.6860 C.3   397  VAL397      0.0020
    144  N         45.5280  -31.6610   25.7990 N.am  398  GLY398     -0.1957
    145  CA        45.7940  -33.0950   25.7560 C.3   398  GLY398      0.1869
    146  C         45.6610  -33.8070   27.0990 C.2   398  GLY398      0.2309
    147  O         45.9810  -33.2320   28.1460 O.2   398  GLY398     -0.2863
    148  N         47.4570  -36.0500   28.5500 N.3   400  PRO400     -0.2102
    149  CA        48.6590  -35.9950   29.3930 C.3   400  PRO400      0.1504
    150  C         48.7300  -34.6420   30.1170 C.2   400  PRO400      0.2575
    151  O         48.7630  -34.5980   31.3480 O.2   400  PRO400     -0.2718
    152  CB        49.7940  -36.1790   28.3900 C.3   400  PRO400      0.0282
    153  CG        49.1770  -37.0940   27.3480 C.3   400  PRO400      0.0208
    154  CD        47.7810  -36.5020   27.1820 C.3   400  PRO400      0.0893
    155  N         48.7110  -33.5470   29.3490 N.am  401  ASP401     -0.1974
    156  CA        48.7780  -32.1850   29.8900 C.3   401  ASP401      0.1708
    157  C         47.7800  -31.9680   31.0090 C.2   401  ASP401      0.2293
    158  O         48.0730  -31.2760   31.9770 O.2   401  ASP401     -0.2864
    159  CB        48.5020  -31.1500   28.8020 C.3   401  ASP401      0.1436
    160  CG        49.4960  -31.2170   27.6500 C.2   401  ASP401      0.3671
    161  OD1       50.6840  -30.8580   27.8360 O.co2 401  ASP401     -0.2456
    162  OD2       49.0820  -31.6420   26.5450 O.co2 401  ASP401     -0.2456
@<TRIPOS>BOND
     1   120   119    2
     2   109   108    2
     3   106   107    1
     4   108   107    1
     5   117   118    1
     6   119   118    1
     7    43    44    1
     8   107   110    1
     9   118   121    1
    10    51    52    1
    11   121   122    1
    12    48    47    1
    13    48    49    1
    14    48    50    1
    15    52    53    1
    16    47    44    1
    17    44    45    1
    18   110   111    1
    19    45    46    2
    20   122   124   ar
    21   122   123   ar
    22   124   126   ar
    23   111   112    1
    24    53    54    2
    25    53    55   am
    26    55    56    1
    27   123   125   ar
    28   112   113    1
    29   126   127   ar
    30    61    59    1
    31    60    59    1
    32    60    62    1
    33   125   127   ar
    34    56    59    1
    35    56    57    1
    36   113   114    2
    37   127   128    1
    38    84    85   ar
    39    84    82   ar
    40    85    83   ar
    41    63    57   am
    42    63    64    1
    43    82    80   ar
    44    57    58    2
    45    65    64    1
    46    65    66    2
    47   115   114    1
    48   114   116    1
    49    70    72   ar
    50    70    68   ar
    51   104   102   ar
    52   104   105   ar
    53    67    64    1
    54    67    68    1
    55     8     6   ar
    56    83    81   ar
    57   102   100   ar
    58    72    73   ar
    59    68    69   ar
    60    80    81   ar
    61    80    79    1
    62   105   103   ar
    63     6     7   ar
    64     6     5    1
    65    79    76    1
    66    33    31    1
    67   100    99    1
    68   100   101   ar
    69    73    74    1
    70    73    71   ar
    71   136   135    1
    72     5     2    1
    73    69    71   ar
    74   103   101   ar
    75    95    96    1
    76    99    96    1
    77   134   133    1
    78   134   135    1
    79    31    32    1
    80    31    30    2
    81    14    13    1
    82    76    75    1
    83    76    77    1
    84    78    77    2
    85   133   130    1
    86    96    97    1
    87    21    20    1
    88    89    88    2
    89    91    92    1
    90    91    90    1
    91    98    97    2
    92    88    87    1
    93     2     1    1
    94     2     3    1
    95    94    92   am
    96    30    29    1
    97    92    93    2
    98    90    87    1
    99    13    10    1
   100     3     9   am
   101     3     4    2
   102   132   131    2
   103     9    10    1
   104    22    20    1
   105    20    19    1
   106    87    86    1
   107   130   131    1
   108   130   129    1
   109    10    11    1
   110    29    28    1
   111    19    16    1
   112    16    15    1
   113    16    17    1
   114    11    12    2
   115    28    27    1
   116   143   141    1
   117    27    24    1
   118    17    18    2
   119    42    41    1
   120    23    24    1
   121    24    25    1
   122   141   142    1
   123   141   138    1
   124    41    40    1
   125   145   144    1
   126   145   146    1
   127   144   139   am
   128    40    39    1
   129    25    34   am
   130    25    26    2
   131   139   138    1
   132   139   140    2
   133   138   137    1
   134    39    38    1
   135    34    35    1
   136   162   160   ar
   137   146   147    2
   138   154   153    1
   139   154   148    1
   140    38    35    1
   141   153   152    1
   142    35    36    1
   143   160   161   ar
   144   160   159    1
   145   152   149    1
   146   148   149    1
   147    36    37    2
   148   159   156    1
   149   155   156    1
   150   155   150   am
   151   149   150    1
   152   156   157    1
   153   150   151    2
   154   157   158    2
