@<TRIPOS>MOLECULE
tmp/3i6mA00.pdb
 201 199 0 0 0
SMALL
GASTEIGER

@<TRIPOS>ATOM
      1  N         -7.3780   64.1660   66.3090 N.3    69  TYR69      -0.1241
      2  CA        -7.0120   64.3430   67.7120 C.3    69  TYR69       0.1605
      3  C         -6.4540   65.7750   67.8190 C.2    69  TYR69       0.2264
      4  O         -5.6610   66.1820   66.9670 O.2    69  TYR69      -0.2867
      5  CB        -5.8880   63.3870   68.0990 C.3    69  TYR69       0.0534
      6  CG        -5.4520   63.5500   69.5320 C.ar   69  TYR69      -0.0201
      7  CD1       -6.1420   62.9070   70.5660 C.ar   69  TYR69      -0.0009
      8  CD2       -4.3450   64.3500   69.8630 C.ar   69  TYR69      -0.0009
      9  CE1       -5.7410   63.0460   71.8940 C.ar   69  TYR69       0.0417
     10  CE2       -3.9350   64.4970   71.1960 C.ar   69  TYR69       0.0417
     11  CZ        -4.6400   63.8330   72.2020 C.ar   69  TYR69       0.1957
     12  OH        -4.2290   63.9170   73.5120 O.3    69  TYR69      -0.2866
     13  N         -4.2690   68.5980   70.0320 N.3    71  ASP71      -0.1239
     14  CA        -3.2580   68.7230   71.0820 C.3    71  ASP71       0.1674
     15  C         -3.6690   69.7290   72.1420 C.2    71  ASP71       0.2266
     16  O         -3.9100   70.8870   71.8310 O.2    71  ASP71      -0.2867
     17  CB        -1.9090   69.1450   70.4680 C.3    71  ASP71       0.1410
     18  CG        -0.7990   69.3170   71.5150 C.2    71  ASP71       0.3668
     19  OD1       -0.9780   68.8980   72.6760 O.co2  71  ASP71      -0.2456
     20  OD2        0.2700   69.8580   71.1730 O.co2  71  ASP71      -0.2456
     21  N          2.6140   74.7560   70.1570 N.3    80  SER80      -0.1217
     22  CA         1.8410   73.5680   69.8370 C.3    80  SER80       0.1889
     23  C          0.5350   73.9070   69.1220 C.2    80  SER80       0.2288
     24  O          0.0520   73.1350   68.2990 O.2    80  SER80      -0.2866
     25  CB         1.5380   72.7990   71.1160 C.3    80  SER80       0.2089
     26  OG         0.8990   73.6160   72.0600 O.3    80  SER80      -0.2183
     27  N         -0.0200   74.0560   65.1870 N.3    83  TRP83      -0.1227
     28  CA        -0.2150   72.8060   64.4550 C.3    83  TRP83       0.1737
     29  C         -1.6760   72.3270   64.5090 C.2    83  TRP83       0.2595
     30  O         -2.0960   71.5010   63.7020 O.2    83  TRP83      -0.2718
     31  CB         0.6970   71.6990   65.0350 C.3    83  TRP83       0.0564
     32  CG         2.1580   72.0360   64.9820 C.ar   83  TRP83       0.0003
     33  CD1        2.9860   72.3430   66.0410 C.ar   83  TRP83       0.0946
     34  CD2        2.9530   72.1750   63.7990 C.ar   83  TRP83       0.0152
     35  NE1        4.2460   72.6720   65.5770 N.ar   83  TRP83      -0.2442
     36  CE2        4.2500   72.5770   64.2050 C.ar   83  TRP83       0.0810
     37  CE3        2.6930   72.0080   62.4280 C.ar   83  TRP83       0.0012
     38  CZ2        5.2800   72.8150   63.2860 C.ar   83  TRP83       0.0191
     39  CZ3        3.7250   72.2500   61.5130 C.ar   83  TRP83       0.0001
     40  CH2        5.0000   72.6510   61.9520 C.ar   83  TRP83       0.0015
     41  N         -2.4460   72.8420   65.4590 N.am   84  ASN84      -0.1974
     42  CA        -3.8430   72.4160   65.6270 C.3    84  ASN84       0.1688
     43  C         -4.7770   72.9740   64.5680 C.2    84  ASN84       0.2292
     44  O         -4.4730   73.9810   63.9380 O.2    84  ASN84      -0.2864
     45  CB        -4.3870   72.8510   67.0030 C.3    84  ASN84       0.1181
     46  CG        -3.9950   71.9070   68.1500 C.2    84  ASN84       0.2629
     47  OD1       -3.8810   70.6960   67.9790 O.2    84  ASN84      -0.2716
     48  ND2       -3.8270   72.4720   69.3370 N.am   84  ASN84      -0.0877
     49  N          1.8900   67.2560   56.9680 N.3   116  GLY116     -0.1210
     50  CA         2.2220   66.1350   57.8240 C.3   116  GLY116      0.1956
     51  C          1.3210   66.1490   59.0540 C.2   116  GLY116      0.2612
     52  O          0.3090   66.8630   59.1100 O.2   116  GLY116     -0.2717
     53  N          1.7010   65.3540   60.0440 N.am  117  GLY117     -0.1942
     54  CA         0.9500   65.2550   61.2770 C.3   117  GLY117      0.2014
     55  C          0.8370   63.7960   61.7040 C.2   117  GLY117      0.2639
     56  O         -0.1870   63.4010   62.2520 O.2   117  GLY117     -0.2714
     57  N          1.8810   63.0000   61.4440 N.am  118  GLY118     -0.1954
     58  CA         1.8800   61.5890   61.8140 C.3   118  GLY118      0.1869
     59  C          0.7380   60.7240   61.2930 C.2   118  GLY118      0.2309
     60  O          0.4660   59.6500   61.8430 O.2   118  GLY118     -0.2863
     61  N         -2.2240   61.1560   61.6500 N.3   120  TYR120     -0.1227
     62  CA        -3.4030   61.2140   62.5140 C.3   120  TYR120      0.1736
     63  C         -3.9490   62.6390   62.7110 C.2   120  TYR120      0.2596
     64  O         -4.9520   62.8380   63.4060 O.2   120  TYR120     -0.2718
     65  CB        -3.0990   60.5870   63.8750 C.3   120  TYR120      0.0548
     66  CG        -2.2020   61.4020   64.7940 C.ar  120  TYR120     -0.0200
     67  CD1       -2.7270   62.4280   65.5910 C.ar  120  TYR120     -0.0009
     68  CD2       -0.8390   61.1060   64.9110 C.ar  120  TYR120     -0.0009
     69  CE1       -1.9190   63.1340   66.4950 C.ar  120  TYR120      0.0417
     70  CE2       -0.0160   61.8000   65.8100 C.ar  120  TYR120      0.0417
     71  CZ        -0.5650   62.8090   66.6010 C.ar  120  TYR120      0.1957
     72  OH         0.2300   63.4720   67.5110 O.3   120  TYR120     -0.2866
     73  N         -3.2880   63.6260   62.1100 N.am  121  SER121     -0.1938
     74  CA        -3.7100   65.0120   62.2560 C.3   121  SER121      0.2055
     75  C         -3.1220   65.8110   61.1180 C.2   121  SER121      0.2643
     76  O         -2.4110   65.2580   60.2860 O.2   121  SER121     -0.2714
     77  CB        -3.1880   65.5770   63.5790 C.3   121  SER121      0.2130
     78  OG        -1.7670   65.5840   63.5860 O.3   121  SER121     -0.2179
     79  N         -3.3840   67.1190   61.1160 N.am  122  GLY122     -0.1954
     80  CA        -2.8640   67.9870   60.0710 C.3   122  GLY122      0.1869
     81  C         -3.9420   68.7920   59.3550 C.2   122  GLY122      0.2309
     82  O         -5.0970   68.3690   59.2930 O.2   122  GLY122     -0.2863
     83  N         -3.2610   75.9000   57.9930 N.3   126  LEU126     -0.1245
     84  CA        -2.4080   76.4780   59.0320 C.3   126  LEU126      0.1561
     85  C         -1.6470   77.7300   58.5760 C.2   126  LEU126      0.2260
     86  O         -1.2360   77.8350   57.4200 O.2   126  LEU126     -0.2867
     87  CB        -1.3930   75.4300   59.5280 C.3   126  LEU126      0.0270
     88  CG        -1.9380   74.0670   59.9830 C.3   126  LEU126      0.0019
     89  CD1       -0.7550   73.1770   60.4180 C.3   126  LEU126      0.0001
     90  CD2       -2.9460   74.2410   61.1200 C.3   126  LEU126      0.0001
     91  N          1.4660   77.2270   56.6490 N.3   129  TYR129     -0.1241
     92  CA         1.3150   76.6910   55.2810 C.3   129  TYR129      0.1605
     93  C          0.7280   77.7220   54.2960 C.2   129  TYR129      0.2264
     94  O          0.4000   77.3790   53.1650 O.2   129  TYR129     -0.2867
     95  CB         0.4150   75.4490   55.2470 C.3   129  TYR129      0.0534
     96  CG         0.8550   74.2850   56.0990 C.ar  129  TYR129     -0.0201
     97  CD1        2.2000   74.0950   56.4440 C.ar  129  TYR129     -0.0009
     98  CD2       -0.0870   73.3700   56.5760 C.ar  129  TYR129     -0.0009
     99  CE1        2.5930   73.0150   57.2620 C.ar  129  TYR129      0.0417
    100  CE2        0.2850   72.2990   57.3770 C.ar  129  TYR129      0.0417
    101  CZ         1.6260   72.1290   57.7180 C.ar  129  TYR129      0.1957
    102  OH         1.9760   71.0740   58.5180 O.3   129  TYR129     -0.2866
    103  N          6.0990   67.4730   54.3910 N.3   198  GLU198     -0.1231
    104  CA         7.0020   67.2640   55.5130 C.3   198  GLU198      0.1699
    105  C          6.5330   66.1840   56.4680 C.2   198  GLU198      0.2592
    106  O          5.3370   66.0680   56.7540 O.2   198  GLU198     -0.2718
    107  CB         7.1920   68.5980   56.2630 C.3   198  GLU198      0.0402
    108  CG         8.2310   68.5630   57.3800 C.3   198  GLU198      0.1161
    109  CD         7.6250   68.2390   58.7220 C.2   198  GLU198      0.3649
    110  OE1        6.3780   68.2190   58.8070 O.co2 198  GLU198     -0.2457
    111  OE2        8.3870   68.0090   59.6960 O.co2 198  GLU198     -0.2457
    112  N          7.4920   65.4040   56.9670 N.am  199  SER199     -0.1952
    113  CA         7.2140   64.3240   57.9150 C.3   199  SER199      0.1924
    114  C          6.2050   63.3400   57.2770 C.2   199  SER199      0.2314
    115  O          6.5080   62.7630   56.2420 O.2   199  SER199     -0.2863
    116  CB         6.7000   64.9250   59.2350 C.3   199  SER199      0.2116
    117  OG         6.6500   63.9640   60.2840 O.3   199  SER199     -0.2180
    118  N          7.5370   54.1840   61.2910 N.3   232  TRP232     -0.1241
    119  CA         6.2320   54.5840   61.8150 C.3   232  TRP232      0.1605
    120  C          5.2060   54.8910   60.7260 C.2   232  TRP232      0.2264
    121  O          4.0420   55.1160   61.0310 O.2   232  TRP232     -0.2867
    122  CB         6.3940   55.8540   62.6670 C.3   232  TRP232      0.0550
    123  CG         7.1750   56.9380   61.9400 C.ar  232  TRP232      0.0003
    124  CD1        8.5440   57.1600   61.9910 C.ar  232  TRP232      0.0946
    125  CD2        6.6490   57.9210   61.0270 C.ar  232  TRP232      0.0152
    126  NE1        8.8850   58.2210   61.1650 N.ar  232  TRP232     -0.2442
    127  CE2        7.7450   58.7050   60.5680 C.ar  232  TRP232      0.0810
    128  CE3        5.3620   58.2180   60.5550 C.ar  232  TRP232      0.0012
    129  CZ2        7.5810   59.7660   59.6620 C.ar  232  TRP232      0.0191
    130  CZ3        5.2020   59.2690   59.6590 C.ar  232  TRP232      0.0001
    131  CH2        6.3100   60.0320   59.2220 C.ar  232  TRP232      0.0015
    132  N          6.7180   58.0410   68.9690 N.3   287  PHE287     -0.1241
    133  CA         6.9150   58.0790   67.5190 C.3   287  PHE287      0.1605
    134  C          6.2580   56.8660   66.8310 C.2   287  PHE287      0.2264
    135  O          6.8170   56.2910   65.8920 O.2   287  PHE287     -0.2867
    136  CB         8.4050   58.1270   67.1520 C.3   287  PHE287      0.0534
    137  CG         8.7180   59.0840   66.0230 C.ar  287  PHE287     -0.0203
    138  CD1        8.0180   59.0210   64.8110 C.ar  287  PHE287     -0.0042
    139  CD2        9.6880   60.0670   66.1830 C.ar  287  PHE287     -0.0042
    140  CE1        8.2760   59.9200   63.7810 C.ar  287  PHE287     -0.0003
    141  CE2        9.9570   60.9710   65.1670 C.ar  287  PHE287     -0.0003
    142  CZ         9.2500   60.9040   63.9540 C.ar  287  PHE287     -0.0000
    143  N          2.1770   55.7250   65.6150 N.3   289  PHE289     -0.1241
    144  CA         0.8180   56.1940   65.4470 C.3   289  PHE289      0.1605
    145  C         -0.0640   55.0420   65.0360 C.2   289  PHE289      0.2264
    146  O          0.3630   54.1410   64.3320 O.2   289  PHE289     -0.2867
    147  CB         0.8440   57.3320   64.4160 C.3   289  PHE289      0.0534
    148  CG         2.0130   58.2610   64.6230 C.ar  289  PHE289     -0.0203
    149  CD1        2.1070   59.0190   65.7880 C.ar  289  PHE289     -0.0042
    150  CD2        3.0910   58.2570   63.7400 C.ar  289  PHE289     -0.0042
    151  CE1        3.2590   59.7500   66.0800 C.ar  289  PHE289     -0.0003
    152  CE2        4.2430   58.9770   64.0120 C.ar  289  PHE289     -0.0003
    153  CZ         4.3390   59.7290   65.1870 C.ar  289  PHE289     -0.0000
    154  N         10.9380   66.8430   69.7990 N.3   329  PHE329     -0.1227
    155  CA         9.4890   67.0590   69.8950 C.3   329  PHE329      0.1736
    156  C          8.8030   65.8450   70.5310 C.2   329  PHE329      0.2595
    157  O          7.9360   65.9800   71.4070 O.2   329  PHE329     -0.2718
    158  CB         8.9070   67.2970   68.4840 C.3   329  PHE329      0.0547
    159  CG         7.8730   68.4050   68.4070 C.ar  329  PHE329     -0.0202
    160  CD1        7.1700   68.8180   69.5340 C.ar  329  PHE329     -0.0042
    161  CD2        7.5860   69.0170   67.1830 C.ar  329  PHE329     -0.0042
    162  CE1        6.1980   69.8220   69.4560 C.ar  329  PHE329     -0.0003
    163  CE2        6.6120   70.0260   67.0860 C.ar  329  PHE329     -0.0003
    164  CZ         5.9160   70.4300   68.2270 C.ar  329  PHE329     -0.0000
    165  N          9.2220   64.6540   70.1030 N.am  330  PHE330     -0.1976
    166  CA         8.6330   63.4130   70.5790 C.3   330  PHE330      0.1639
    167  C          8.9980   63.0450   72.0010 C.2   330  PHE330      0.2290
    168  O          8.1740   62.4790   72.7200 O.2   330  PHE330     -0.2864
    169  CB         8.9800   62.2700   69.6090 C.3   330  PHE330      0.0560
    170  CG         8.5770   62.5670   68.1950 C.ar  330  PHE330     -0.0200
    171  CD1        9.3700   63.4030   67.3950 C.ar  330  PHE330     -0.0042
    172  CD2        7.3460   62.1390   67.7070 C.ar  330  PHE330     -0.0042
    173  CE1        8.9430   63.8200   66.1320 C.ar  330  PHE330     -0.0003
    174  CE2        6.9090   62.5490   66.4470 C.ar  330  PHE330     -0.0003
    175  CZ         7.7090   63.3930   65.6570 C.ar  330  PHE330     -0.0000
    176  N          6.9750   65.2310   74.5330 N.3   333  TYR333     -0.1241
    177  CA         5.6280   64.7500   74.7460 C.3   333  TYR333      0.1605
    178  C          5.4910   63.3730   75.3840 C.2   333  TYR333      0.2264
    179  O          4.5170   63.1350   76.0750 O.2   333  TYR333     -0.2867
    180  CB         4.8370   64.7720   73.4360 C.3   333  TYR333      0.0534
    181  CG         4.2360   66.1240   73.1120 C.ar  333  TYR333     -0.0201
    182  CD1        5.0540   67.2160   72.8520 C.ar  333  TYR333     -0.0009
    183  CD2        2.8430   66.3120   73.0610 C.ar  333  TYR333     -0.0009
    184  CE1        4.5260   68.4700   72.5430 C.ar  333  TYR333      0.0417
    185  CE2        2.2940   67.5880   72.7510 C.ar  333  TYR333      0.0417
    186  CZ         3.1560   68.6570   72.4890 C.ar  333  TYR333      0.1957
    187  OH         2.6830   69.8990   72.1170 O.3   333  TYR333     -0.2866
    188  N         11.7210   69.1080   64.6600 N.3   439  HIS439     -0.1226
    189  CA        10.9950   68.4740   63.5710 C.3   439  HIS439      0.1752
    190  C          9.8690   69.4460   63.1790 C.2   439  HIS439      0.2596
    191  O          9.0970   69.8560   64.0290 O.2   439  HIS439     -0.2718
    192  CB        10.3870   67.1800   64.1010 C.3   439  HIS439      0.0759
    193  CG         9.7720   66.3030   63.0570 C.ar  439  HIS439      0.0818
    194  ND1       10.5020   65.7530   62.0250 N.ar  439  HIS439     -0.2268
    195  CD2        8.5230   65.7760   62.9600 C.ar  439  HIS439      0.1154
    196  CE1        9.7340   64.9170   61.3430 C.ar  439  HIS439      0.1986
    197  NE2        8.5300   64.9120   61.8890 N.ar  439  HIS439     -0.2212
    198  N          9.8040   69.8260   61.9080 N.am  440  GLY440     -0.1957
    199  CA         8.7580   70.7230   61.4400 C.3   440  GLY440      0.1869
    200  C          9.1030   72.2040   61.4060 C.2   440  GLY440      0.2309
    201  O          8.3520   73.0010   60.8470 O.2   440  GLY440     -0.2863
@<TRIPOS>BOND
     1    94    93    2
     2    93    92    1
     3   103   104    1
     4    95    92    1
     5    95    96    1
     6    92    91    1
     7   104   107    1
     8   104   105    1
     9    96    97   ar
    10    96    98   ar
    11   115   114    2
    12   107   108    1
    13    97    99   ar
    14   105   106    2
    15   105   112   am
    16    98   100   ar
    17   112   113    1
    18    49    50    1
    19    99   101   ar
    20   114   113    1
    21   100   101   ar
    22   108   109    1
    23    86    85    2
    24   101   102    1
    25    50    51    1
    26   113   116    1
    27    83    84    1
    28    85    84    1
    29   109   110   ar
    30   109   111   ar
    31    84    87    1
    32    51    52    2
    33    51    53   am
    34   131   130   ar
    35   131   129   ar
    36   116   117    1
    37    82    81    2
    38    81    80    1
    39    87    88    1
    40   130   128   ar
    41   129   127   ar
    42    88    89    1
    43    88    90    1
    44    53    54    1
    45    80    79    1
    46    76    75    2
    47   128   125   ar
    48   127   125   ar
    49   127   126   ar
    50   120   121    2
    51   120   119    1
    52   201   200    2
    53   125   123   ar
    54    79    75   am
    55    75    74    1
    56   126   124   ar
    57    54    55    1
    58   118   119    1
    59    59    58    1
    60    59    60    2
    61   196   197   ar
    62   196   194   ar
    63   200   199    1
    64   199   198    1
    65    57    55   am
    66    57    58    1
    67    39    40   ar
    68    39    37   ar
    69    61    62    1
    70    55    56    2
    71   119   122    1
    72   197   195   ar
    73   198   190   am
    74   123   124   ar
    75   123   122    1
    76    40    38   ar
    77   194   193   ar
    78    73    74    1
    79    73    63   am
    80    74    77    1
    81    37    34   ar
    82    62    63    1
    83    62    65    1
    84    63    64    2
    85   195   193   ar
    86   193   192    1
    87   190   189    1
    88   190   191    2
    89    38    36   ar
    90   189   192    1
    91   189   188    1
    92    77    78    1
    93    30    29    2
    94   150   152   ar
    95   150   148   ar
    96   140   142   ar
    97   140   138   ar
    98    34    36   ar
    99    34    32   ar
   100    65    66    1
   101    44    43    2
   102   142   141   ar
   103   152   153   ar
   104    36    35   ar
   105   146   145    2
   106   147   148    1
   107   147   144    1
   108    28    29    1
   109    28    31    1
   110    28    27    1
   111    29    41   am
   112    43    42    1
   113   148   149   ar
   114    66    68   ar
   115    66    67   ar
   116   138   137   ar
   117    68    70   ar
   118    32    31    1
   119    32    33   ar
   120   145   144    1
   121   141   139   ar
   122   153   151   ar
   123   144   143    1
   124    41    42    1
   125    35    33   ar
   126    67    69   ar
   127    42    45    1
   128   175   173   ar
   129   175   174   ar
   130   149   151   ar
   131    70    71   ar
   132   135   134    2
   133   137   139   ar
   134   137   136    1
   135   173   171   ar
   136     1     2    1
   137   174   172   ar
   138    69    71   ar
   139    71    72    1
   140   134   133    1
   141     4     3    2
   142    45    46    1
   143   163   161   ar
   144   163   164   ar
   145   136   133    1
   146   161   159   ar
   147   171   170   ar
   148   133   132    1
   149   172   170   ar
   150     2     3    1
   151     2     5    1
   152    47    46    2
   153     5     6    1
   154    46    48   am
   155   170   169    1
   156   164   162   ar
   157    24    23    2
   158   159   158    1
   159   159   160   ar
   160   158   155    1
   161    23    22    1
   162   162   160   ar
   163     6     8   ar
   164     6     7   ar
   165   169   166    1
   166   154   155    1
   167    22    21    1
   168    22    25    1
   169     8    10   ar
   170   155   156    1
   171    13    14    1
   172   165   156   am
   173   165   166    1
   174    17    14    1
   175    17    18    1
   176   156   157    2
   177     7     9   ar
   178   166   167    1
   179    14    15    1
   180    25    26    1
   181    20    18   ar
   182    10    11   ar
   183    18    19   ar
   184    16    15    2
   185     9    11   ar
   186   167   168    2
   187   187   186    1
   188    11    12    1
   189   186   184   ar
   190   186   185   ar
   191   184   182   ar
   192   185   183   ar
   193   182   181   ar
   194   183   181   ar
   195   181   180    1
   196   180   177    1
   197   176   177    1
   198   177   178    1
   199   178   179    2
