@<TRIPOS>MOLECULE
tmp/3i6nA05.pdb
 107 106 0 0 0
SMALL
GASTEIGER

@<TRIPOS>ATOM
      1  N          9.6470    1.9200   19.6780 N.3   105  GLN105     -0.1245
      2  CA         8.6670    2.0280   20.7440 C.3   105  GLN105      0.1566
      3  C          7.2620    1.6080   20.2820 C.2   105  GLN105      0.2260
      4  O          6.4920    1.0510   21.0620 O.2   105  GLN105     -0.2867
      5  CB         8.6440    3.4580   21.3050 C.3   105  GLN105      0.0367
      6  CG         7.8380    3.5830   22.5980 C.3   105  GLN105      0.0905
      7  CD         7.7630    4.9970   23.1260 C.2   105  GLN105      0.2608
      8  OE1        7.7010    5.9480   22.3670 O.2   105  GLN105     -0.2717
      9  NE2        7.7390    5.1370   24.4330 N.am  105  GLN105     -0.0878
     10  N          5.3860   -1.7720   21.6570 N.3   109  HIS109     -0.1241
     11  CA         4.0470   -1.5950   22.2330 C.3   109  HIS109      0.1621
     12  C          2.9450   -2.3920   21.5510 C.2   109  HIS109      0.2264
     13  O          1.9000   -2.6300   22.1410 O.2   109  HIS109     -0.2867
     14  CB         3.6810   -0.1120   22.2630 C.3   109  HIS109      0.0745
     15  CG         4.3750    0.6550   23.3500 C.ar  109  HIS109      0.0817
     16  ND1        4.0260    1.9470   23.6900 N.ar  109  HIS109     -0.2268
     17  CD2        5.3990    0.3180   24.1710 C.ar  109  HIS109      0.1154
     18  CE1        4.8040    2.3680   24.6670 C.ar  109  HIS109      0.1986
     19  NE2        5.6470    1.3980   24.9810 N.ar  109  HIS109     -0.2212
     20  N          3.0460   -5.8520   26.9680 N.3   113  PHE113     -0.1241
     21  CA         2.6710   -4.9720   28.0580 C.3   113  PHE113      0.1605
     22  C          2.3560   -5.8120   29.2870 C.2   113  PHE113      0.2264
     23  O          1.4530   -6.6430   29.2730 O.2   113  PHE113     -0.2867
     24  CB         1.4670   -4.1070   27.6750 C.3   113  PHE113      0.0534
     25  CG         1.0410   -3.1400   28.7540 C.ar  113  PHE113     -0.0203
     26  CD1        1.9880   -2.4990   29.5520 C.ar  113  PHE113     -0.0042
     27  CD2       -0.3070   -2.8600   28.9590 C.ar  113  PHE113     -0.0042
     28  CE1        1.5970   -1.5960   30.5350 C.ar  113  PHE113     -0.0003
     29  CE2       -0.7100   -1.9560   29.9400 C.ar  113  PHE113     -0.0003
     30  CZ         0.2410   -1.3230   30.7310 C.ar  113  PHE113     -0.0000
     31  N         -2.9660    1.7210   26.0460 N.3   253  PHE253     -0.1227
     32  CA        -3.0170    2.7440   27.0850 C.3   253  PHE253      0.1736
     33  C         -1.8000    3.6500   27.2700 C.2   253  PHE253      0.2595
     34  O         -1.9230    4.7150   27.8720 O.2   253  PHE253     -0.2718
     35  CB        -3.3710    2.1090   28.4360 C.3   253  PHE253      0.0547
     36  CG        -4.7930    1.6240   28.5170 C.ar  253  PHE253     -0.0202
     37  CD1       -5.0790    0.2640   28.6020 C.ar  253  PHE253     -0.0042
     38  CD2       -5.8540    2.5330   28.4790 C.ar  253  PHE253     -0.0042
     39  CE1       -6.4010   -0.1910   28.6420 C.ar  253  PHE253     -0.0003
     40  CE2       -7.1860    2.0900   28.5180 C.ar  253  PHE253     -0.0003
     41  CZ        -7.4590    0.7240   28.6010 C.ar  253  PHE253     -0.0000
     42  N         -0.6400    3.2590   26.7530 N.am  254  ARG254     -0.1980
     43  CA         0.5740    4.0600   26.9300 C.3   254  ARG254      0.1597
     44  C          0.7730    5.1120   25.8510 C.2   254  ARG254      0.2287
     45  O          1.8040    5.7860   25.8110 O.2   254  ARG254     -0.2864
     46  CB         1.7730    3.1390   26.9490 C.3   254  ARG254      0.0334
     47  CG         1.6680    1.9810   27.9440 C.3   254  ARG254      0.0492
     48  CD         2.6230    0.8280   27.5880 C.3   254  ARG254      0.2205
     49  NE         2.1820    0.0720   26.4290 N.pl3 254  ARG254     -0.0865
     50  CZ         2.7320   -1.0680   26.0170 C.cat 254  ARG254      0.5346
     51  NH1        3.7620   -1.5940   26.6620 N.pl3 254  ARG254      0.1354
     52  NH2        2.2420   -1.6950   24.9590 N.pl3 254  ARG254      0.1354
     53  N          2.2170    8.6420   26.6710 N.3   257  GLU257     -0.1245
     54  CA         3.4430    8.7200   27.4720 C.3   257  GLU257      0.1567
     55  C          4.3890    9.8430   27.0840 C.2   257  GLU257      0.2260
     56  O          5.0650   10.4100   27.9420 O.2   257  GLU257     -0.2867
     57  CB         4.2910    7.4210   27.3660 C.3   257  GLU257      0.0388
     58  CG         5.5000    7.6860   28.2290 C.3   257  GLU257      0.1160
     59  CD         6.8790    7.6630   27.5540 C.2   257  GLU257      0.3649
     60  OE1        6.9610    7.2330   26.3800 O.co2 257  GLU257     -0.2457
     61  OE2        7.8480    8.0700   28.2180 O.co2 257  GLU257     -0.2457
     62  N          3.4730   12.7250   28.9240 N.3   380  PHE380     -0.1241
     63  CA         2.0350   12.9670   29.0740 C.3   380  PHE380      0.1605
     64  C          1.6660   14.4080   28.7310 C.2   380  PHE380      0.2264
     65  O          0.7970   15.0130   29.3640 O.2   380  PHE380     -0.2867
     66  CB         1.5930   12.6360   30.4990 C.3   380  PHE380      0.0534
     67  CG         1.9380   11.2490   30.9080 C.ar  380  PHE380     -0.0203
     68  CD1        1.0470   10.2020   30.7080 C.ar  380  PHE380     -0.0042
     69  CD2        3.1960   10.9720   31.4260 C.ar  380  PHE380     -0.0042
     70  CE1        1.4130    8.8870   31.0090 C.ar  380  PHE380     -0.0003
     71  CE2        3.5720    9.6720   31.7270 C.ar  380  PHE380     -0.0003
     72  CZ         2.6780    8.6250   31.5210 C.ar  380  PHE380     -0.0000
     73  N         11.8760   11.3000   35.0070 N.3   420  LEU420     -0.1231
     74  CA        10.7310   10.6360   34.3840 C.3   420  LEU420      0.1693
     75  C          9.4640   10.8470   35.2090 C.2   420  LEU420      0.2592
     76  O          9.4760   10.6910   36.4300 O.2   420  LEU420     -0.2718
     77  CB        10.9960    9.1300   34.2300 C.3   420  LEU420      0.0284
     78  CG         9.8480    8.2450   33.7230 C.3   420  LEU420      0.0019
     79  CD1        9.7120    8.3690   32.2290 C.3   420  LEU420      0.0001
     80  CD2       10.1110    6.8070   34.0930 C.3   420  LEU420      0.0001
     81  N          8.3760   11.2050   34.5350 N.am  421  PHE421     -0.1962
     82  CA         7.0990   11.4170   35.2060 C.3   421  PHE421      0.1771
     83  C          6.2790   10.1290   35.1340 C.2   421  PHE421      0.2619
     84  O          6.1000    9.5690   34.0500 O.2   421  PHE421     -0.2715
     85  CB         6.3150   12.5510   34.5250 C.3   421  PHE421      0.0574
     86  CG         4.9430   12.7950   35.1170 C.ar  421  PHE421     -0.0200
     87  CD1        4.7530   13.7620   36.1010 C.ar  421  PHE421     -0.0042
     88  CD2        3.8450   12.0460   34.6980 C.ar  421  PHE421     -0.0042
     89  CE1        3.4940   13.9780   36.6530 C.ar  421  PHE421     -0.0003
     90  CE2        2.5850   12.2540   35.2450 C.ar  421  PHE421     -0.0003
     91  CZ         2.4090   13.2210   36.2230 C.ar  421  PHE421     -0.0000
     92  N          5.7990    9.6570   36.2830 N.am  422  GLN422     -0.1964
     93  CA         4.9640    8.4590   36.3360 C.3   422  GLN422      0.1718
     94  C          3.5150    8.9400   36.4000 C.2   422  GLN422      0.2458
     95  O          3.1830    9.8200   37.1880 O.2   422  GLN422     -0.2730
     96  CB         5.3100    7.6160   37.5600 C.3   422  GLN422      0.0407
     97  CG         6.6300    6.8710   37.4360 C.3   422  GLN422      0.0908
     98  CD         6.5190    5.6020   36.6160 C.2   422  GLN422      0.2608
     99  OE1        6.1620    5.6370   35.4400 O.2   422  GLN422     -0.2717
    100  NE2        6.8290    4.4670   37.2410 N.am  422  GLN422     -0.0878
    101  N          2.6350    8.3220   35.5740 N.am  423  PRO423     -0.2727
    102  CA         1.2030    8.6660   35.4540 C.3   423  PRO423      0.1402
    103  C          0.4330    8.6430   36.7560 C.2   423  PRO423      0.2269
    104  O         -0.7000    9.0850   36.8460 O.2   423  PRO423     -0.2865
    105  CB         0.6750    7.5820   34.5050 C.3   423  PRO423      0.0296
    106  CG         1.5580    6.4120   34.7640 C.3   423  PRO423      0.0237
    107  CD         2.9210    7.0200   34.9410 C.3   423  PRO423      0.0939
@<TRIPOS>BOND
     1     1     2    1
     2     3     2    1
     3     3     4    2
     4     2     5    1
     5     5     6    1
     6    12    13    2
     7    12    11    1
     8    10    11    1
     9    11    14    1
    10    14    15    1
    11     8     7    2
    12     6     7    1
    13     7     9   am
    14    15    16   ar
    15    15    17   ar
    16    16    18   ar
    17    17    19   ar
    18    18    19   ar
    19    52    50    1
    20    45    44    2
    21    44    43    1
    22    50    49    2
    23    50    51    1
    24    31    32    1
    25    60    59   ar
    26    49    48    1
    27    53    54    1
    28    42    43    1
    29    42    33   am
    30    43    46    1
    31    46    47    1
    32    20    21    1
    33    55    54    1
    34    55    56    2
    35    32    33    1
    36    32    35    1
    37    33    34    2
    38    57    54    1
    39    57    58    1
    40    59    61   ar
    41    59    58    1
    42    48    47    1
    43    24    21    1
    44    24    25    1
    45    21    22    1
    46    35    36    1
    47    38    36   ar
    48    38    40   ar
    49    36    37   ar
    50    40    41   ar
    51    41    39   ar
    52    37    39   ar
    53    64    63    1
    54    64    65    2
    55    25    27   ar
    56    25    26   ar
    57    62    63    1
    58    27    29   ar
    59    63    66    1
    60    23    22    2
    61    26    28   ar
    62    29    30   ar
    63    66    67    1
    64    28    30   ar
    65    68    67   ar
    66    68    70   ar
    67    67    69   ar
    68    70    72   ar
    69    69    71   ar
    70    72    71   ar
    71    79    78    1
    72    78    80    1
    73    78    77    1
    74    84    83    2
    75    77    74    1
    76    74    73    1
    77    74    75    1
    78   105   106    1
    79   105   102    1
    80    85    86    1
    81    85    82    1
    82    81    82    1
    83    81    75   am
    84    88    86   ar
    85    88    90   ar
    86   106   107    1
    87   107   101    1
    88    86    87   ar
    89    83    82    1
    90    83    92   am
    91    75    76    2
    92    90    91   ar
    93    99    98    2
    94   102   101    1
    95   102   103    1
    96   101    94   am
    97    87    89   ar
    98    91    89   ar
    99    92    93    1
   100    93    94    1
   101    93    96    1
   102    94    95    2
   103    98   100   am
   104    98    97    1
   105   103   104    2
   106    97    96    1
