@<TRIPOS>MOLECULE
tmp/3i6rA00.pdb
 152 141 0 0 0
SMALL
GASTEIGER

@<TRIPOS>ATOM
      1  N         -6.6910   34.7690   20.8470 N.3    12  LEU12      -0.1245
      2  CA        -5.6390   33.9800   20.2200 C.3    12  LEU12       0.1561
      3  C         -4.2560   34.2820   20.7980 C.2    12  LEU12       0.2260
      4  O         -3.4660   33.3640   21.0210 O.2    12  LEU12      -0.2867
      5  CB        -5.6700   34.1830   18.6990 C.3    12  LEU12       0.0270
      6  CG        -4.5740   33.5720   17.8200 C.3    12  LEU12       0.0019
      7  CD1       -5.1710   32.9290   16.5770 C.3    12  LEU12       0.0001
      8  CD2       -3.5270   34.6230   17.4600 C.3    12  LEU12       0.0001
      9  N         -1.8000   31.7670   22.5870 N.3    16  LEU16      -0.1245
     10  CA        -0.4080   31.7630   22.1760 C.3    16  LEU16       0.1561
     11  C          0.5420   31.7840   23.3750 C.2    16  LEU16       0.2260
     12  O          1.5830   31.1280   23.3640 O.2    16  LEU16      -0.2867
     13  CB        -0.1580   32.9690   21.2650 C.3    16  LEU16       0.0270
     14  CG         1.1630   33.1560   20.5170 C.3    16  LEU16       0.0019
     15  CD1        1.5500   31.9040   19.7410 C.3    16  LEU16       0.0001
     16  CD2        1.0470   34.3610   19.5920 C.3    16  LEU16       0.0001
     17  N          0.5360   24.5460   21.3260 N.3    21  GLY21      -0.1225
     18  CA         0.2450   24.9310   19.9400 C.3    21  GLY21       0.1811
     19  C         -0.7830   24.0700   19.2340 C.2    21  GLY21       0.2280
     20  O         -1.7540   24.5870   18.6700 O.2    21  GLY21      -0.2866
     21  N         -4.1920   24.6630   20.5900 N.3    24  CYS24      -0.1221
     22  CA        -4.7550   25.9260   20.0930 C.3    24  CYS24       0.1808
     23  C         -5.3550   25.7320   18.7100 C.2    24  CYS24       0.2601
     24  O         -6.5100   26.0900   18.4660 O.2    24  CYS24      -0.2717
     25  CB        -3.6900   27.0150   19.9980 C.3    24  CYS24       0.0970
     26  SG        -3.0790   27.6220   21.5590 S.3    24  CYS24      -0.0800
     27  N         -4.5510   25.1560   17.8180 N.am   25  HIS25      -0.1975
     28  CA        -4.9460   24.9090   16.4410 C.3    25  HIS25       0.1656
     29  C         -6.2900   24.2050   16.3880 C.2    25  HIS25       0.2291
     30  O         -7.1980   24.6580   15.6860 O.2    25  HIS25      -0.2864
     31  CB        -3.8750   24.0880   15.7220 C.3    25  HIS25       0.0771
     32  CG        -4.0060   24.0910   14.2300 C.ar   25  HIS25       0.0820
     33  ND1       -3.5560   25.1300   13.4440 N.ar   25  HIS25      -0.2267
     34  CD2       -4.5280   23.1770   13.3800 C.ar   25  HIS25       0.1154
     35  CE1       -3.7990   24.8580   12.1750 C.ar   25  HIS25       0.1986
     36  NE2       -4.3850   23.6760   12.1090 N.ar   25  HIS25      -0.2212
     37  N         -9.3180   26.3300   17.4780 N.3    28  PHE28      -0.1227
     38  CA        -9.7190   27.2360   16.4140 C.3    28  PHE28       0.1736
     39  C        -10.3220   26.5170   15.2050 C.2    28  PHE28       0.2595
     40  O        -11.2670   27.0240   14.6070 O.2    28  PHE28      -0.2718
     41  CB        -8.5800   28.1740   16.0320 C.3    28  PHE28       0.0547
     42  CG        -8.2720   29.1900   17.0930 C.ar   28  PHE28      -0.0202
     43  CD1       -7.0770   29.1370   17.8010 C.ar   28  PHE28      -0.0042
     44  CD2       -9.2000   30.1810   17.4150 C.ar   28  PHE28      -0.0042
     45  CE1       -6.8030   30.0690   18.8040 C.ar   28  PHE28      -0.0003
     46  CE2       -8.9330   31.1170   18.4100 C.ar   28  PHE28      -0.0003
     47  CZ        -7.7310   31.0590   19.1040 C.ar   28  PHE28      -0.0000
     48  N         -9.8040   25.3320   14.8740 N.am   29  LEU29      -0.1980
     49  CA       -10.4500   24.4720   13.8790 C.3    29  LEU29       0.1596
     50  C        -11.8700   24.1480   14.3220 C.2    29  LEU29       0.2287
     51  O        -12.7870   24.1220   13.5040 O.2    29  LEU29      -0.2864
     52  CB        -9.6650   23.1770   13.6380 C.3    29  LEU29       0.0297
     53  CG        -8.3150   23.2060   12.9030 C.3    29  LEU29       0.0022
     54  CD1       -7.7860   21.7940   12.7520 C.3    29  LEU29       0.0001
     55  CD2       -8.3750   23.8850   11.5350 C.3    29  LEU29       0.0001
     56  N        -16.4800   31.6400   13.8980 N.3    37  LEU37      -0.1245
     57  CA       -15.4640   32.5460   13.3770 C.3    37  LEU37       0.1561
     58  C        -15.9660   33.6880   12.4930 C.2    37  LEU37       0.2260
     59  O        -16.9840   33.5710   11.8690 O.2    37  LEU37      -0.2867
     60  CB       -14.3430   31.7880   12.7240 C.3    37  LEU37       0.0270
     61  CG       -13.6570   30.8170   13.6550 C.3    37  LEU37       0.0019
     62  CD1      -12.3580   30.4330   13.0830 C.3    37  LEU37       0.0001
     63  CD2      -13.4360   31.4670   14.9450 C.3    37  LEU37       0.0001
     64  N         -2.7150   22.8090    7.5070 N.3    67  PHE67      -0.1241
     65  CA        -3.5050   23.6380    8.3890 C.3    67  PHE67       0.1605
     66  C         -4.8280   22.9480    8.6660 C.2    67  PHE67       0.2264
     67  O         -5.2150   22.7550    9.8220 O.2    67  PHE67      -0.2867
     68  CB        -3.7270   25.0030    7.7480 C.3    67  PHE67       0.0534
     69  CG        -4.0040   26.0960    8.7280 C.ar   67  PHE67      -0.0203
     70  CD1       -2.9840   26.9340    9.1460 C.ar   67  PHE67      -0.0042
     71  CD2       -5.2860   26.2950    9.2280 C.ar   67  PHE67      -0.0042
     72  CE1       -3.2350   27.9520   10.0530 C.ar   67  PHE67      -0.0003
     73  CE2       -5.5440   27.3090   10.1340 C.ar   67  PHE67      -0.0003
     74  CZ        -4.5130   28.1400   10.5460 C.ar   67  PHE67      -0.0000
     75  N        -12.3360   28.8510    7.2820 N.3    77  ILE77      -0.1245
     76  CA       -11.0150   29.3580    6.9230 C.3    77  ILE77       0.1561
     77  C        -11.0620   30.1840    5.6300 C.2    77  ILE77       0.2260
     78  O        -10.4530   31.2610    5.5560 O.2    77  ILE77      -0.2867
     79  CB        -9.9570   28.2360    6.8070 C.3    77  ILE77       0.0252
     80  CG1       -9.9030   27.4040    8.0970 C.3    77  ILE77       0.0019
     81  CG2       -8.5900   28.8350    6.5270 C.3    77  ILE77       0.0019
     82  CD1       -9.0960   26.1190    7.9810 C.3    77  ILE77       0.0001
     83  N        -12.4380   33.6650    6.0970 N.3    80  LEU80      -0.1245
     84  CA       -11.5410   34.6550    6.6910 C.3    80  LEU80       0.1561
     85  C        -11.0030   35.6100    5.6230 C.2    80  LEU80       0.2260
     86  O        -10.3270   36.5870    5.9380 O.2    80  LEU80      -0.2867
     87  CB       -10.3820   33.9870    7.4400 C.3    80  LEU80       0.0270
     88  CG       -10.6990   33.3550    8.7980 C.3    80  LEU80       0.0019
     89  CD1       -9.5400   32.4810    9.2420 C.3    80  LEU80       0.0001
     90  CD2      -10.9890   34.4330    9.8290 C.3    80  LEU80       0.0001
     91  N          4.4630   20.3140   17.7300 N.3   103  ILE103     -0.1245
     92  CA         4.4950   21.6800   17.1950 C.3   103  ILE103      0.1561
     93  C          5.0410   22.6240   18.2660 C.2   103  ILE103      0.2260
     94  O          4.5080   22.6840   19.3760 O.2   103  ILE103     -0.2867
     95  CB         3.0920   22.1870   16.7480 C.3   103  ILE103      0.0252
     96  CG1        2.4200   21.2000   15.7870 C.3   103  ILE103      0.0019
     97  CG2        3.1980   23.5740   16.1130 C.3   103  ILE103      0.0019
     98  CD1        0.9640   21.5180   15.4990 C.3   103  ILE103      0.0001
     99  N          6.4650   26.7360   18.8730 N.3   105  ARG105     -0.1245
    100  CA         6.5840   28.1070   18.3660 C.3   105  ARG105      0.1563
    101  C          7.7280   28.8730   19.0210 C.2   105  ARG105      0.2260
    102  O          8.1600   28.5450   20.1260 O.2   105  ARG105     -0.2867
    103  CB         5.2820   28.8790   18.5900 C.3   105  ARG105      0.0307
    104  CG         4.0650   28.2450   17.9580 C.3   105  ARG105      0.0489
    105  CD         2.8260   28.5180   18.7780 C.3   105  ARG105      0.2205
    106  NE         2.8780   27.8450   20.0720 N.pl3 105  ARG105     -0.0865
    107  CZ         1.9010   27.8680   20.9750 C.cat 105  ARG105      0.5346
    108  NH1        0.7660   28.5230   20.7350 N.pl3 105  ARG105      0.1354
    109  NH2        2.0590   27.2240   22.1240 N.pl3 105  ARG105      0.1354
    110  N          8.0560   28.6220   13.5290 N.3   112  ILE112     -0.1245
    111  CA         7.5060   27.3630   14.0130 C.3   112  ILE112      0.1561
    112  C          8.4150   26.2130   13.5980 C.2   112  ILE112      0.2260
    113  O          9.0260   26.2570   12.5380 O.2   112  ILE112     -0.2867
    114  CB         6.0630   27.1280   13.4820 C.3   112  ILE112      0.0252
    115  CG1        5.1190   28.2300   13.9820 C.3   112  ILE112      0.0019
    116  CG2        5.5400   25.7430   13.8860 C.3   112  ILE112      0.0019
    117  CD1        3.7450   28.2400   13.3190 C.3   112  ILE112      0.0001
    118  N          0.9260   30.0630    6.1990 N.3   338  TYR338     -0.1241
    119  CA         0.6170   29.2970    7.3860 C.3   338  TYR338      0.1605
    120  C          0.9160   29.9770    8.7260 C.2   338  TYR338      0.2264
    121  O          0.0740   30.1490    9.5730 O.2   338  TYR338     -0.2867
    122  CB         1.3690   27.9800    7.2980 C.3   338  TYR338      0.0534
    123  CG         0.8460   26.8590    8.1380 C.ar  338  TYR338     -0.0201
    124  CD1        0.4620   25.6710    7.5730 C.ar  338  TYR338     -0.0009
    125  CD2        0.7750   26.9740    9.4940 C.ar  338  TYR338     -0.0009
    126  CE1        0.0170   24.6570    8.3390 C.ar  338  TYR338      0.0417
    127  CE2        0.3320   25.9740   10.2520 C.ar  338  TYR338      0.0417
    128  CZ        -0.0440   24.8190    9.6810 C.ar  338  TYR338      0.1957
    129  OH        -0.4860   23.8340   10.4800 O.3   338  TYR338     -0.2866
    130  N         -0.9040   33.1420   10.1300 N.3   341  LEU341     -0.1231
    131  CA        -2.1290   32.8670   10.8330 C.3   341  LEU341      0.1693
    132  C         -1.8540   32.5470   12.2660 C.2   341  LEU341      0.2591
    133  O         -2.6160   32.9040   13.1240 O.2   341  LEU341     -0.2718
    134  CB        -2.8830   31.7340   10.1900 C.3   341  LEU341      0.0284
    135  CG        -3.7280   32.1580    9.0200 C.3   341  LEU341      0.0019
    136  CD1       -4.0970   30.9950    8.2210 C.3   341  LEU341      0.0001
    137  CD2       -4.9210   32.8080    9.5360 C.3   341  LEU341      0.0001
    138  N         -0.7880   31.8280   12.5570 N.am  342  VAL342     -0.1980
    139  CA        -0.6000   31.5630   13.9520 C.3   342  VAL342      0.1595
    140  C         -0.1920   32.7580   14.7740 C.2   342  VAL342      0.2287
    141  O         -0.6770   32.9700   15.8510 O.2   342  VAL342     -0.2864
    142  CB         0.4930   30.5450   14.1080 C.3   342  VAL342      0.0276
    143  CG1        1.0860   30.6410   15.4570 C.3   342  VAL342      0.0022
    144  CG2       -0.0220   29.1810   13.8260 C.3   342  VAL342      0.0022
    145  N         -6.8460   35.8890   13.1060 N.3   346  MET346     -0.1245
    146  CA        -8.0090   36.0110   12.2160 C.3   346  MET346      0.1570
    147  C         -7.9300   37.0500   11.0960 C.2   346  MET346      0.2261
    148  O         -8.6370   36.9290   10.0910 O.2   346  MET346     -0.2867
    149  CB        -9.2410   36.3520   13.0490 C.3   346  MET346      0.0387
    150  CG        -9.3760   35.5450   14.2960 C.3   346  MET346      0.0595
    151  SD       -10.3880   34.0950   14.0530 S.3   346  MET346     -0.1393
    152  CE        -9.9170   33.1590   15.5020 C.3   346  MET346      0.0692
@<TRIPOS>BOND
     1    78    77    2
     2    85    86    2
     3    85    84    1
     4    77    76    1
     5    83    84    1
     6   118   119    1
     7    81    79    1
     8    84    87    1
     9    79    76    1
    10    79    80    1
    11    76    75    1
    12   122   119    1
    13   122   123    1
    14   119   120    1
    15    87    88    1
    16    64    65    1
    17   124   123   ar
    18   124   126   ar
    19    68    65    1
    20    68    69    1
    21    82    80    1
    22   123   125   ar
    23   136   135    1
    24   126   128   ar
    25    65    66    1
    26    66    67    2
    27   120   121    2
    28    69    70   ar
    29    69    71   ar
    30    88    89    1
    31    88    90    1
    32   135   137    1
    33   135   134    1
    34    70    72   ar
    35    71    73   ar
    36   125   127   ar
    37   128   127   ar
    38   128   129    1
    39    72    74   ar
    40   148   147    2
    41   130   131    1
    42    73    74   ar
    43   134   131    1
    44   131   132    1
    45   147   146    1
    46    55    53    1
    47    59    58    2
    48    36    35   ar
    49    36    34   ar
    50    35    33   ar
    51   146   149    1
    52   146   145    1
    53   132   138   am
    54   132   133    2
    55    58    57    1
    56   113   112    2
    57   138   139    1
    58    60    57    1
    59    60    61    1
    60    54    53    1
    61    53    52    1
    62   149   150    1
    63    62    61    1
    64   117   115    1
    65    57    56    1
    66    34    32   ar
    67    33    32   ar
    68   114   116    1
    69   114   115    1
    70   114   111    1
    71    51    50    2
    72   110   111    1
    73   112   111    1
    74    52    49    1
    75    61    63    1
    76   144   142    1
    77    49    50    1
    78    49    48    1
    79   139   142    1
    80   139   140    1
    81   151   150    1
    82   151   152    1
    83   142   143    1
    84    32    31    1
    85    40    39    2
    86   140   141    2
    87    48    39   am
    88    39    38    1
    89    98    96    1
    90    30    29    2
    91    31    28    1
    92    96    95    1
    93    41    38    1
    94    41    42    1
    95    97    95    1
    96    29    28    1
    97    38    37    1
    98    28    27    1
    99     7     6    1
   100    95    92    1
   101    42    44   ar
   102    42    43   ar
   103    92    91    1
   104    92    93    1
   105    44    46   ar
   106     8     6    1
   107    43    45   ar
   108    27    23   am
   109     6     5    1
   110   104   103    1
   111   104   105    1
   112    93    94    2
   113   100   103    1
   114   100    99    1
   115   100   101    1
   116    46    47   ar
   117    24    23    2
   118    20    19    2
   119     5     2    1
   120    23    22    1
   121   105   106    1
   122    45    47   ar
   123   101   102    2
   124    19    18    1
   125    16    14    1
   126    15    14    1
   127    18    17    1
   128    25    22    1
   129    25    26    1
   130   106   107    2
   131    22    21    1
   132     2     3    1
   133     2     1    1
   134    14    13    1
   135   108   107    1
   136     3     4    2
   137   107   109    1
   138    13    10    1
   139    10     9    1
   140    10    11    1
   141    12    11    2
