@<TRIPOS>MOLECULE
tmp/3i6vA00.pdb
 124 118 0 0 0
SMALL
GASTEIGER

@<TRIPOS>ATOM
      1  N        -56.9930  -26.8460    1.3710 N.3     7  GLU7       -0.1245
      2  CA       -57.9110  -25.9250    0.7270 C.3     7  GLU7        0.1567
      3  C        -59.3480  -26.0750    1.2910 C.2     7  GLU7        0.2260
      4  O        -60.0460  -25.0920    1.4310 O.2     7  GLU7       -0.2867
      5  CB       -57.9390  -26.1720   -0.7820 C.3     7  GLU7        0.0388
      6  CG       -58.7320  -25.1540   -1.5740 C.3     7  GLU7        0.1160
      7  CD       -58.7680  -25.4370   -3.1000 C.2     7  GLU7        0.3649
      8  OE1      -58.3250  -26.5200   -3.5620 O.co2   7  GLU7       -0.2457
      9  OE2      -59.2670  -24.5680   -3.8360 O.co2   7  GLU7       -0.2457
     10  N        -61.9700  -29.2090   -2.3940 N.3    10  TYR10      -0.1241
     11  CA       -61.4700  -29.9450   -3.5510 C.3    10  TYR10       0.1605
     12  C        -61.7850  -31.4250   -3.4110 C.2    10  TYR10       0.2264
     13  O        -60.8660  -32.2480   -3.2970 O.2    10  TYR10      -0.2867
     14  CB       -59.9440  -29.6890   -3.6790 C.3    10  TYR10       0.0534
     15  CG       -59.3020  -30.1680   -4.9620 C.ar   10  TYR10      -0.0201
     16  CD1      -59.9580  -30.0210   -6.2100 C.ar   10  TYR10      -0.0009
     17  CD2      -58.0300  -30.7580   -4.9380 C.ar   10  TYR10      -0.0009
     18  CE1      -59.3420  -30.4400   -7.4190 C.ar   10  TYR10       0.0417
     19  CE2      -57.4050  -31.1850   -6.1440 C.ar   10  TYR10       0.0417
     20  CZ       -58.0810  -31.0310   -7.3680 C.ar   10  TYR10       0.1957
     21  OH       -57.4890  -31.4370   -8.5270 O.3    10  TYR10      -0.2866
     22  N        -56.9310  -21.5840   -1.8720 N.3    48  TRP48      -0.1241
     23  CA       -55.9100  -22.0240   -2.8210 C.3    48  TRP48       0.1605
     24  C        -55.0000  -20.8920   -3.2870 C.2    48  TRP48       0.2264
     25  O        -53.7790  -21.0540   -3.2840 O.2    48  TRP48      -0.2867
     26  CB       -56.5640  -22.7300   -4.0100 C.3    48  TRP48       0.0550
     27  CG       -55.5390  -23.2200   -5.0000 C.ar   48  TRP48       0.0003
     28  CD1      -55.1440  -22.5820   -6.1410 C.ar   48  TRP48       0.0946
     29  CD2      -54.7220  -24.3940   -4.8850 C.ar   48  TRP48       0.0152
     30  NE1      -54.1600  -23.3100   -6.7730 N.ar   48  TRP48      -0.2442
     31  CE2      -53.8870  -24.4300   -6.0250 C.ar   48  TRP48       0.0810
     32  CE3      -54.6490  -25.4500   -3.9450 C.ar   48  TRP48       0.0012
     33  CZ2      -52.9760  -25.4720   -6.2570 C.ar   48  TRP48       0.0191
     34  CZ3      -53.7460  -26.4940   -4.1730 C.ar   48  TRP48       0.0001
     35  CH2      -52.9270  -26.5010   -5.3230 C.ar   48  TRP48       0.0015
     36  N        -53.0500  -30.7590   -0.2300 N.3    65  ALA65      -0.1231
     37  CA       -54.1670  -30.0670   -0.8840 C.3    65  ALA65       0.1694
     38  C        -54.1710  -30.3690   -2.3770 C.2    65  ALA65       0.2593
     39  O        -54.3360  -29.4630   -3.2020 O.2    65  ALA65      -0.2718
     40  CB       -54.0590  -28.5150   -0.6420 C.3    65  ALA65       0.0304
     41  N        -53.9720  -31.6380   -2.7240 N.am   66  GLY66      -0.1942
     42  CA       -53.9420  -32.0820   -4.1350 C.3    66  GLY66       0.2014
     43  C        -52.9610  -31.3170   -5.0220 C.2    66  GLY66       0.2639
     44  O        -53.2120  -31.1520   -6.2100 O.2    66  GLY66      -0.2714
     45  N        -51.8430  -30.8700   -4.4450 N.am   67  MET67      -0.1963
     46  CA       -50.8840  -29.9730   -5.1430 C.3    67  MET67       0.1736
     47  C        -49.8490  -30.8360   -5.8770 C.2    67  MET67       0.2617
     48  O        -49.1400  -31.5960   -5.2270 O.2    67  MET67      -0.2715
     49  CB       -50.1430  -29.0740   -4.1380 C.3    67  MET67       0.0427
     50  CG       -49.1580  -27.9970   -4.7880 C.3    67  MET67       0.0599
     51  SD       -48.4220  -26.8430   -3.6160 S.3    67  MET67      -0.1393
     52  CE       -49.7520  -25.6700   -3.5360 C.3    67  MET67       0.0692
     53  N        -49.7790  -30.7040   -7.2010 N.am   68  SER68      -0.1950
     54  CA       -48.7700  -31.3850   -7.9920 C.3    68  SER68       0.1924
     55  C        -47.3790  -30.8620   -7.7020 C.2    68  SER68       0.2314
     56  O        -47.1670  -29.6420   -7.5370 O.2    68  SER68      -0.2863
     57  CB       -49.0480  -31.1870   -9.4830 C.3    68  SER68       0.2116
     58  OG       -50.2420  -31.8900   -9.8460 O.3    68  SER68      -0.2180
     59  N        -42.8520  -24.6340   -8.5530 N.3    73  ARG73      -0.1245
     60  CA       -43.2140  -24.4590   -7.1400 C.3    73  ARG73       0.1563
     61  C        -42.0120  -24.7880   -6.2730 C.2    73  ARG73       0.2260
     62  O        -41.8490  -24.2610   -5.2020 O.2    73  ARG73      -0.2867
     63  CB       -44.4170  -25.3090   -6.7060 C.3    73  ARG73       0.0307
     64  CG       -45.7350  -24.7610   -7.2820 C.3    73  ARG73       0.0489
     65  CD       -46.8200  -25.8440   -7.2690 C.3    73  ARG73       0.2205
     66  NE       -48.0900  -25.3150   -7.7820 N.pl3  73  ARG73      -0.0865
     67  CZ       -49.0710  -26.0690   -8.2530 C.cat  73  ARG73       0.5346
     68  NH1      -48.9000  -27.3780   -8.3670 N.pl3  73  ARG73       0.1354
     69  NH2      -50.1880  -25.5010   -8.6880 N.pl3  73  ARG73       0.1354
     70  N        -58.8740  -23.3490  -12.6230 N.3   107  GLN107     -0.1245
     71  CA       -58.5470  -22.7380  -11.3410 C.3   107  GLN107      0.1566
     72  C        -57.2420  -21.9510  -11.3830 C.2   107  GLN107      0.2260
     73  O        -56.2270  -22.4090  -11.9520 O.2   107  GLN107     -0.2867
     74  CB       -58.5190  -23.7900  -10.2240 C.3   107  GLN107      0.0367
     75  CG       -58.2220  -23.1780   -8.8240 C.3   107  GLN107      0.0905
     76  CD       -58.4170  -24.1630   -7.6860 C.2   107  GLN107      0.2608
     77  OE1      -58.3180  -25.3600   -7.8690 O.2   107  GLN107     -0.2717
     78  NE2      -58.7200  -23.6520   -6.5080 N.am  107  GLN107     -0.0878
     79  N        -52.7940  -23.0300  -10.9550 N.3   110  THR110     -0.1203
     80  CA       -52.6820  -24.4830  -11.1210 C.3   110  THR110      0.1994
     81  C        -51.8960  -24.8250  -12.3960 C.2   110  THR110      0.2618
     82  O        -51.7200  -23.9790  -13.2870 O.2   110  THR110     -0.2717
     83  CB       -54.0690  -25.1790  -11.2440 C.3   110  THR110      0.1784
     84  OG1      -54.7720  -24.6480  -12.3550 O.3   110  THR110     -0.2211
     85  CG2      -54.9120  -25.0340   -9.9250 C.3   110  THR110      0.0376
     86  N        -51.4720  -26.0790  -12.5000 N.am  111  ILE111     -0.1965
     87  CA       -50.7650  -26.5100  -13.7090 C.3   111  ILE111      0.1727
     88  C        -51.7340  -26.4710  -14.8770 C.2   111  ILE111      0.2616
     89  O        -51.3270  -26.2280  -16.0210 O.2   111  ILE111     -0.2715
     90  CB       -50.1170  -27.8880  -13.5260 C.3   111  ILE111      0.0290
     91  CG1      -51.1730  -28.9640  -13.2330 C.3   111  ILE111      0.0022
     92  CG2      -49.0890  -27.8160  -12.3800 C.3   111  ILE111      0.0023
     93  CD1      -50.6160  -30.3160  -12.8340 C.3   111  ILE111      0.0001
     94  N        -53.0260  -26.6700  -14.5780 N.am  112  GLN112     -0.1977
     95  CA       -54.0670  -26.6590  -15.6360 C.3   112  GLN112      0.1601
     96  C        -54.2240  -25.2660  -16.1980 C.2   112  GLN112      0.2287
     97  O        -54.2420  -25.0830  -17.4270 O.2   112  GLN112     -0.2864
     98  CB       -55.4050  -27.2440  -15.1380 C.3   112  GLN112      0.0394
     99  CG       -55.3630  -28.7810  -14.9800 C.3   112  GLN112      0.0908
    100  CD       -54.7690  -29.2070  -13.6390 C.2   112  GLN112      0.2608
    101  OE1      -54.5200  -28.3560  -12.7760 O.2   112  GLN112     -0.2717
    102  NE2      -54.5300  -30.5210  -13.4580 N.am  112  GLN112     -0.0878
    103  N        -62.4260  -24.5560   -7.2280 N.3   129  PRO129     -0.2116
    104  CA       -62.7710  -25.5590   -8.2350 C.3   129  PRO129      0.1372
    105  C        -64.2740  -25.5030   -8.6230 C.2   129  PRO129      0.2244
    106  O        -64.6390  -25.5850   -9.8060 O.2   129  PRO129     -0.2868
    107  CB       -62.4590  -26.8690   -7.5200 C.3   129  PRO129      0.0268
    108  CG       -61.3610  -26.4870   -6.4880 C.3   129  PRO129      0.0207
    109  CD       -61.9420  -25.1830   -5.9850 C.3   129  PRO129      0.0892
    110  N        -58.1400  -31.4560  -13.1080 N.3   147  ASP147     -0.1239
    111  CA       -57.6730  -32.7780  -12.7580 C.3   147  ASP147      0.1674
    112  C        -58.7750  -33.7920  -13.0220 C.2   147  ASP147      0.2266
    113  O        -59.9610  -33.5530  -12.6470 O.2   147  ASP147     -0.2867
    114  CB       -57.3250  -32.7730  -11.2910 C.3   147  ASP147      0.1410
    115  CG       -56.8250  -34.0750  -10.8180 C.2   147  ASP147      0.3668
    116  OD1      -55.6210  -34.3610  -11.0250 O.co2 147  ASP147     -0.2456
    117  OD2      -57.6390  -34.7920  -10.1810 O.co2 147  ASP147     -0.2456
    118  N        -49.1650  -35.7270   -6.8810 N.3   175  VAL175     -0.1245
    119  CA       -49.4650  -34.8620   -5.7500 C.3   175  VAL175      0.1561
    120  C        -48.4830  -35.1650   -4.5840 C.2   175  VAL175      0.2260
    121  O        -48.2010  -36.3290   -4.2660 O.2   175  VAL175     -0.2867
    122  CB       -50.9540  -35.0490   -5.3350 C.3   175  VAL175      0.0252
    123  CG1      -51.2780  -34.1940   -4.1710 C.3   175  VAL175      0.0019
    124  CG2      -51.8710  -34.6320   -6.5100 C.3   175  VAL175      0.0019
@<TRIPOS>BOND
     1    97    96    2
     2    96    95    1
     3    89    88    2
     4    95    98    1
     5    95    94    1
     6    98    99    1
     7    99   100    1
     8    88    94   am
     9    88    87    1
    10    87    90    1
    11    87    86    1
    12   100   102   am
    13   100   101    2
    14    90    91    1
    15    90    92    1
    16    82    81    2
    17    91    93    1
    18   110   111    1
    19   112   111    1
    20   112   113    2
    21   111   114    1
    22    70    71    1
    23    86    81   am
    24    81    80    1
    25    84    83    1
    26    73    72    2
    27    72    71    1
    28    71    74    1
    29   114   115    1
    30    83    80    1
    31    83    85    1
    32    80    79    1
    33   116   115   ar
    34   115   117   ar
    35    74    75    1
    36    58    57    1
    37   106   105    2
    38    57    54    1
    39    75    76    1
    40    69    67    1
    41   105   104    1
    42    59    60    1
    43    21    20    1
    44    68    67    1
    45    67    66    2
    46   104   107    1
    47   104   103    1
    48    54    55    1
    49    54    53    1
    50    77    76    2
    51    66    65    1
    52    55    56    2
    53    76    78   am
    54   107   108    1
    55    18    20   ar
    56    18    16   ar
    57    20    19   ar
    58    64    65    1
    59    64    63    1
    60   103   109    1
    61    53    47   am
    62    60    63    1
    63    60    61    1
    64   118   119    1
    65    30    28   ar
    66    30    31   ar
    67   124   122    1
    68   108   109    1
    69    61    62    2
    70    33    31   ar
    71    33    35   ar
    72    16    15   ar
    73    44    43    2
    74    19    17   ar
    75    28    27   ar
    76    31    29   ar
    77    47    48    2
    78    47    46    1
    79   119   122    1
    80   119   120    1
    81   122   123    1
    82    35    34   ar
    83    46    45    1
    84    46    49    1
    85    43    45   am
    86    43    42    1
    87    27    29   ar
    88    27    26    1
    89    15    17   ar
    90    15    14    1
    91    29    32   ar
    92    50    49    1
    93    50    51    1
    94   120   121    2
    95    34    32   ar
    96    42    41    1
    97    26    23    1
    98     9     7   ar
    99    14    11    1
   100    51    52    1
   101     8     7   ar
   102    11    12    1
   103    11    10    1
   104    12    13    2
   105    24    25    2
   106    24    23    1
   107    39    38    2
   108     7     6    1
   109    23    22    1
   110    41    38   am
   111    38    37    1
   112     6     5    1
   113    37    40    1
   114    37    36    1
   115     5     2    1
   116     2     3    1
   117     2     1    1
   118     3     4    2
