@<TRIPOS>MOLECULE
tmp/3i6zA00.pdb
 249 247 0 0 0
SMALL
GASTEIGER

@<TRIPOS>ATOM
      1  N         -7.4570   63.7000   66.4630 N.3    67  TYR67      -0.1241
      2  CA        -7.0910   63.8650   67.8680 C.3    67  TYR67       0.1605
      3  C         -6.5300   65.2880   67.9460 C.2    67  TYR67       0.2264
      4  O         -5.8030   65.7050   67.0460 O.2    67  TYR67      -0.2867
      5  CB        -5.9860   62.8780   68.2340 C.3    67  TYR67       0.0534
      6  CG        -5.4970   63.0440   69.6540 C.ar   67  TYR67      -0.0201
      7  CD1       -6.1770   62.4570   70.7260 C.ar   67  TYR67      -0.0009
      8  CD2       -4.3670   63.8170   69.9300 C.ar   67  TYR67      -0.0009
      9  CE1       -5.7290   62.6400   72.0550 C.ar   67  TYR67       0.0417
     10  CE2       -3.9160   64.0100   71.2480 C.ar   67  TYR67       0.0417
     11  CZ        -4.5970   63.4200   72.2940 C.ar   67  TYR67       0.1957
     12  OH        -4.1320   63.6050   73.5730 O.3    67  TYR67      -0.2866
     13  N         -4.3290   68.1060   70.1640 N.3    69  ASP69      -0.1239
     14  CA        -3.3100   68.2950   71.1960 C.3    69  ASP69       0.1674
     15  C         -3.7340   69.2790   72.2830 C.2    69  ASP69       0.2266
     16  O         -3.9710   70.4400   71.9940 O.2    69  ASP69      -0.2867
     17  CB        -2.0250   68.7990   70.5230 C.3    69  ASP69       0.1410
     18  CG        -0.8710   68.9910   71.4940 C.2    69  ASP69       0.3668
     19  OD1       -1.1010   69.1570   72.7080 O.co2  69  ASP69      -0.2456
     20  OD2        0.2880   68.9980   71.0380 O.co2  69  ASP69      -0.2456
     21  N         -1.9100   69.2060   75.3850 N.3    71  GLN71      -0.1245
     22  CA        -0.8120   69.1130   76.3500 C.3    71  GLN71       0.1566
     23  C         -0.4210   70.4870   76.9190 C.2    71  GLN71       0.2260
     24  O         -0.0960   70.6000   78.0920 O.2    71  GLN71      -0.2867
     25  CB         0.4290   68.4680   75.6990 C.3    71  GLN71       0.0367
     26  CG         0.7920   67.0940   76.2340 C.3    71  GLN71       0.0905
     27  CD         0.8160   67.0250   77.7660 C.2    71  GLN71       0.2608
     28  OE1       -0.1030   66.4980   78.4030 O.2    71  GLN71      -0.2717
     29  NE2        1.8840   67.5520   78.3640 N.am   71  GLN71      -0.0878
     30  N          2.5620   74.2750   70.3530 N.3    78  SER78      -0.1217
     31  CA         1.7570   73.0930   70.0750 C.3    78  SER78       0.1889
     32  C          0.4770   73.4060   69.3150 C.2    78  SER78       0.2288
     33  O          0.0760   72.6470   68.4260 O.2    78  SER78      -0.2866
     34  CB         1.4280   72.3440   71.3830 C.3    78  SER78       0.2089
     35  OG         0.8510   73.1970   72.3600 O.3    78  SER78      -0.2183
     36  N         -0.1790   73.6110   65.3720 N.3    81  TRP81      -0.1241
     37  CA        -0.3610   72.3650   64.6140 C.3    81  TRP81       0.1605
     38  C         -1.7980   71.8560   64.6280 C.2    81  TRP81       0.2264
     39  O         -2.1870   71.0650   63.7580 O.2    81  TRP81      -0.2867
     40  CB         0.5590   71.2700   65.1660 C.3    81  TRP81       0.0550
     41  CG         2.0080   71.6670   65.1430 C.ar   81  TRP81       0.0003
     42  CD1        2.7910   71.9860   66.2050 C.ar   81  TRP81       0.0946
     43  CD2        2.8280   71.8150   63.9780 C.ar   81  TRP81       0.0152
     44  NE1        4.0570   72.3290   65.7810 N.ar   81  TRP81      -0.2442
     45  CE2        4.1060   72.2290   64.4190 C.ar   81  TRP81       0.0810
     46  CE3        2.6070   71.6330   62.6020 C.ar   81  TRP81       0.0012
     47  CZ2        5.1680   72.4680   63.5250 C.ar   81  TRP81       0.0191
     48  CZ3        3.6690   71.8750   61.7140 C.ar   81  TRP81       0.0001
     49  CH2        4.9290   72.2870   62.1850 C.ar   81  TRP81       0.0015
     50  N          1.8150   66.8870   57.0840 N.3   114  GLY114     -0.1210
     51  CA         2.1790   65.7780   57.9430 C.3   114  GLY114      0.1956
     52  C          1.2530   65.7460   59.1540 C.2   114  GLY114      0.2612
     53  O          0.2070   66.4020   59.1680 O.2   114  GLY114     -0.2717
     54  N          1.6470   64.9870   60.1760 N.am  115  GLY115     -0.1942
     55  CA         0.8580   64.8570   61.3900 C.3   115  GLY115      0.2014
     56  C          0.7850   63.3970   61.8600 C.2   115  GLY115      0.2639
     57  O         -0.2150   62.9830   62.4310 O.2   115  GLY115     -0.2714
     58  N          1.8330   62.6120   61.5900 N.am  116  GLY116     -0.1954
     59  CA         1.8590   61.2130   62.0150 C.3   116  GLY116      0.1869
     60  C          0.7350   60.3210   61.5020 C.2   116  GLY116      0.2309
     61  O          0.4740   59.2570   62.0720 O.2   116  GLY116     -0.2863
     62  N         -2.2250   60.7270   61.8390 N.3   118  TYR118     -0.1227
     63  CA        -3.4130   60.7730   62.6930 C.3   118  TYR118      0.1736
     64  C         -3.9670   62.1880   62.8640 C.2   118  TYR118      0.2596
     65  O         -4.9880   62.3830   63.5060 O.2   118  TYR118     -0.2718
     66  CB        -3.1030   60.1920   64.0870 C.3   118  TYR118      0.0548
     67  CG        -2.2140   61.0660   64.9830 C.ar  118  TYR118     -0.0200
     68  CD1       -2.7570   62.1120   65.7520 C.ar  118  TYR118     -0.0009
     69  CD2       -0.8410   60.8310   65.0740 C.ar  118  TYR118     -0.0009
     70  CE1       -1.9370   62.9040   66.6020 C.ar  118  TYR118      0.0417
     71  CE2       -0.0170   61.6050   65.9150 C.ar  118  TYR118      0.0417
     72  CZ        -0.5720   62.6400   66.6790 C.ar  118  TYR118      0.1957
     73  OH         0.2490   63.3940   67.5150 O.3   118  TYR118     -0.2866
     74  N         -3.2750   63.1750   62.3010 N.am  119  SER119     -0.1938
     75  CA        -3.7140   64.5530   62.4210 C.3   119  SER119      0.2055
     76  C         -3.1720   65.3540   61.2620 C.2   119  SER119      0.2643
     77  O         -2.4690   64.8180   60.4080 O.2   119  SER119     -0.2714
     78  CB        -3.2070   65.1520   63.7380 C.3   119  SER119      0.2130
     79  OG        -1.7810   65.1110   63.7870 O.3   119  SER119     -0.2179
     80  N         -3.4870   66.6450   61.2450 N.am  120  GLY120     -0.1954
     81  CA        -3.0050   67.5000   60.1770 C.3   120  GLY120      0.1869
     82  C         -4.1230   68.2620   59.4850 C.2   120  GLY120      0.2309
     83  O         -5.2540   67.7830   59.4190 O.2   120  GLY120     -0.2863
     84  N         -3.4250   75.4290   58.1800 N.3   124  LEU124     -0.1245
     85  CA        -2.5960   76.0010   59.2320 C.3   124  LEU124      0.1561
     86  C         -1.8580   77.2630   58.7580 C.2   124  LEU124      0.2260
     87  O         -1.4560   77.3660   57.5960 O.2   124  LEU124     -0.2867
     88  CB        -1.5630   74.9570   59.7060 C.3   124  LEU124      0.0270
     89  CG        -2.0530   73.5590   60.1350 C.3   124  LEU124      0.0019
     90  CD1       -0.8520   72.6940   60.5650 C.3   124  LEU124      0.0001
     91  CD2       -3.0500   73.6710   61.2880 C.3   124  LEU124      0.0001
     92  N          1.2730   76.8180   56.8170 N.3   127  TYR127     -0.1241
     93  CA         1.1410   76.2860   55.4530 C.3   127  TYR127      0.1605
     94  C          0.5220   77.3190   54.5060 C.2   127  TYR127      0.2264
     95  O          0.1260   76.9640   53.3890 O.2   127  TYR127     -0.2867
     96  CB         0.2680   75.0080   55.4060 C.3   127  TYR127      0.0534
     97  CG         0.7200   73.8560   56.2940 C.ar  127  TYR127     -0.0201
     98  CD1        2.0650   73.6780   56.6210 C.ar  127  TYR127     -0.0009
     99  CD2       -0.2040   72.9340   56.7810 C.ar  127  TYR127     -0.0009
    100  CE1        2.4840   72.6040   57.4310 C.ar  127  TYR127      0.0417
    101  CE2        0.1940   71.8610   57.5800 C.ar  127  TYR127      0.0417
    102  CZ         1.5440   71.7040   57.8980 C.ar  127  TYR127      0.1957
    103  OH         1.9400   70.6570   58.6890 O.3   127  TYR127     -0.2866
    104  N          6.0900   67.1650   54.5260 N.3   196  GLU196     -0.1231
    105  CA         6.9920   66.9620   55.6420 C.3   196  GLU196      0.1699
    106  C          6.5040   65.8650   56.5970 C.2   196  GLU196      0.2592
    107  O          5.3040   65.7310   56.8560 O.2   196  GLU196     -0.2718
    108  CB         7.1900   68.3040   56.3780 C.3   196  GLU196      0.0402
    109  CG         8.1660   68.2520   57.5530 C.3   196  GLU196      0.1161
    110  CD         7.4820   67.9040   58.8680 C.2   196  GLU196      0.3649
    111  OE1        6.2310   67.8710   58.8880 O.co2 196  GLU196     -0.2457
    112  OE2        8.1950   67.6760   59.8730 O.co2 196  GLU196     -0.2457
    113  N          7.4490   65.0750   57.1070 N.am  197  SER197     -0.1952
    114  CA         7.1610   63.9910   58.0430 C.3   197  SER197      0.1924
    115  C          6.1580   62.9990   57.3930 C.2   197  SER197      0.2314
    116  O          6.4660   62.4030   56.3540 O.2   197  SER197     -0.2863
    117  CB         6.6390   64.5880   59.3630 C.3   197  SER197      0.2116
    118  OG         6.6010   63.6100   60.3940 O.3   197  SER197     -0.2180
    119  N          7.6030   53.9260   61.5510 N.3   230  TRP230     -0.1241
    120  CA         6.2700   54.3120   62.0150 C.3   230  TRP230      0.1605
    121  C          5.2730   54.5840   60.8760 C.2   230  TRP230      0.2264
    122  O          4.0850   54.7580   61.1200 O.2   230  TRP230     -0.2867
    123  CB         6.3770   55.5970   62.8410 C.3   230  TRP230      0.0550
    124  CG         7.1500   56.6820   62.1160 C.ar  230  TRP230      0.0003
    125  CD1        8.5030   56.9260   62.1980 C.ar  230  TRP230      0.0946
    126  CD2        6.6330   57.6350   61.1760 C.ar  230  TRP230      0.0152
    127  NE1        8.8550   57.9710   61.3670 N.ar  230  TRP230     -0.2442
    128  CE2        7.7320   58.4260   60.7280 C.ar  230  TRP230      0.0810
    129  CE3        5.3510   57.9080   60.6630 C.ar  230  TRP230      0.0012
    130  CZ2        7.5840   59.4680   59.7890 C.ar  230  TRP230      0.0191
    131  CZ3        5.2000   58.9470   59.7300 C.ar  230  TRP230      0.0001
    132  CH2        6.3180   59.7180   59.3080 C.ar  230  TRP230      0.0015
    133  N         -5.6830   55.6850   70.5670 N.3   276  TRP276     -0.1241
    134  CA        -4.3600   55.3750   71.0770 C.3   276  TRP276      0.1605
    135  C         -4.2510   54.0810   71.8720 C.2   276  TRP276      0.2264
    136  O         -3.1430   53.6200   72.1300 O.2   276  TRP276     -0.2867
    137  CB        -3.8270   56.5380   71.9260 C.3   276  TRP276      0.0550
    138  CG        -3.6150   57.8020   71.1650 C.ar  276  TRP276      0.0003
    139  CD1       -4.4430   58.8890   71.1350 C.ar  276  TRP276      0.0946
    140  CD2       -2.4720   58.1450   70.3780 C.ar  276  TRP276      0.0152
    141  NE1       -3.8820   59.8910   70.3810 N.ar  276  TRP276     -0.2442
    142  CE2       -2.6730   59.4630   69.9080 C.ar  276  TRP276      0.0810
    143  CE3       -1.2980   57.4690   70.0280 C.ar  276  TRP276      0.0012
    144  CZ2       -1.7390   60.1210   69.0890 C.ar  276  TRP276      0.0191
    145  CZ3       -0.3620   58.1260   69.2090 C.ar  276  TRP276      0.0001
    146  CH2       -0.5920   59.4370   68.7530 C.ar  276  TRP276      0.0015
    147  N         -2.2230   50.5240   70.1690 N.3   279  LEU279     -0.1245
    148  CA        -0.7990   50.3090   69.9180 C.3   279  LEU279      0.1561
    149  C         -0.3680   49.0090   70.5880 C.2   279  LEU279      0.2260
    150  O         -0.8200   48.6780   71.6750 O.2   279  LEU279     -0.2867
    151  CB         0.0500   51.4840   70.4400 C.3   279  LEU279      0.0270
    152  CG        -0.1120   52.7580   69.5840 C.3   279  LEU279      0.0019
    153  CD1        0.6710   53.9110   70.1990 C.3   279  LEU279      0.0001
    154  CD2        0.3780   52.4980   68.1560 C.3   279  LEU279      0.0001
    155  N          5.3000   52.8870   73.7880 N.3   283  SER283     -0.1202
    156  CA         6.2860   53.4690   72.8990 C.3   283  SER283      0.2020
    157  C          6.0910   54.9460   72.6370 C.2   283  SER283      0.2619
    158  O          5.1390   55.5530   73.1310 O.2   283  SER283     -0.2717
    159  CB         6.2020   52.7420   71.5580 C.3   283  SER283      0.2103
    160  OG         4.8650   52.8320   71.0620 O.3   283  SER283     -0.2182
    161  N          7.0370   55.5120   71.8950 N.am  284  ILE284     -0.1965
    162  CA         6.9540   56.8840   71.4310 C.3   284  ILE284      0.1727
    163  C          7.2610   56.7940   69.9350 C.2   284  ILE284      0.2616
    164  O          7.8950   55.8440   69.4660 O.2   284  ILE284     -0.2715
    165  CB         7.9490   57.8740   72.1280 C.3   284  ILE284      0.0290
    166  CG1        9.3980   57.4490   71.9010 C.3   284  ILE284      0.0022
    167  CG2        7.5790   58.0160   73.6070 C.3   284  ILE284      0.0023
    168  CD1       10.4310   58.5200   72.4120 C.3   284  ILE284      0.0001
    169  N          6.7840   57.7760   69.1870 N.am  285  PHE285     -0.1960
    170  CA         6.9590   57.8180   67.7370 C.3   285  PHE285      0.1771
    171  C          6.2970   56.6140   67.0290 C.2   285  PHE285      0.2619
    172  O          6.8450   56.0590   66.0800 O.2   285  PHE285     -0.2715
    173  CB         8.4470   57.9140   67.3680 C.3   285  PHE285      0.0574
    174  CG         8.7150   58.8720   66.2250 C.ar  285  PHE285     -0.0200
    175  CD1        7.9500   58.8100   65.0500 C.ar  285  PHE285     -0.0042
    176  CD2        9.6880   59.8680   66.3510 C.ar  285  PHE285     -0.0042
    177  CE1        8.1400   59.7220   64.0200 C.ar  285  PHE285     -0.0003
    178  CE2        9.8990   60.7940   65.3320 C.ar  285  PHE285     -0.0003
    179  CZ         9.1220   60.7280   64.1510 C.ar  285  PHE285     -0.0000
    180  N          5.1150   56.2270   67.5120 N.am  286  ARG286     -0.1963
    181  CA         4.3280   55.1290   66.9100 C.3   286  ARG286      0.1729
    182  C          2.8780   55.5930   66.9290 C.2   286  ARG286      0.2616
    183  O          2.3870   56.0620   67.9530 O.2   286  ARG286     -0.2715
    184  CB         4.4490   53.8220   67.7030 C.3   286  ARG286      0.0348
    185  CG         5.8060   53.1400   67.6040 C.3   286  ARG286      0.0492
    186  CD         6.1870   52.7790   66.1530 C.3   286  ARG286      0.2205
    187  NE         7.4740   52.0710   66.1010 N.pl3 286  ARG286     -0.0865
    188  CZ         8.6670   52.6440   65.9330 C.cat 286  ARG286      0.5346
    189  NH1        8.7840   53.9620   65.7960 N.pl3 286  ARG286      0.1354
    190  NH2        9.7580   51.8880   65.9040 N.pl3 286  ARG286      0.1354
    191  N          2.2030   55.4470   65.7950 N.am  287  PHE287     -0.1974
    192  CA         0.8320   55.9020   65.6230 C.3   287  PHE287      0.1639
    193  C         -0.0570   54.7230   65.2030 C.2   287  PHE287      0.2290
    194  O          0.3860   53.8000   64.5290 O.2   287  PHE287     -0.2864
    195  CB         0.8530   57.0510   64.6080 C.3   287  PHE287      0.0560
    196  CG         2.0230   57.9830   64.8120 C.ar  287  PHE287     -0.0200
    197  CD1        2.1450   58.7200   65.9930 C.ar  287  PHE287     -0.0042
    198  CD2        3.0580   58.0430   63.8790 C.ar  287  PHE287     -0.0042
    199  CE1        3.2810   59.4980   66.2550 C.ar  287  PHE287     -0.0003
    200  CE2        4.2090   58.8230   64.1250 C.ar  287  PHE287     -0.0003
    201  CZ         4.3170   59.5490   65.3190 C.ar  287  PHE287     -0.0000
    202  N         10.7130   66.5310   69.9840 N.3   327  PHE327     -0.1227
    203  CA         9.2580   66.6880   70.1430 C.3   327  PHE327      0.1736
    204  C          8.6640   65.4360   70.8150 C.2   327  PHE327      0.2595
    205  O          7.8250   65.5280   71.7090 O.2   327  PHE327     -0.2718
    206  CB         8.5900   66.8380   68.7660 C.3   327  PHE327      0.0547
    207  CG         7.5630   67.9540   68.6750 C.ar  327  PHE327     -0.0202
    208  CD1        6.6880   68.2240   69.7240 C.ar  327  PHE327     -0.0042
    209  CD2        7.4670   68.7190   67.5050 C.ar  327  PHE327     -0.0042
    210  CE1        5.7290   69.2460   69.6160 C.ar  327  PHE327     -0.0003
    211  CE2        6.5100   69.7440   67.3870 C.ar  327  PHE327     -0.0003
    212  CZ         5.6410   70.0060   68.4430 C.ar  327  PHE327     -0.0000
    213  N          9.1140   64.2640   70.3710 N.am  328  PHE328     -0.1976
    214  CA         8.5790   63.0050   70.8660 C.3   328  PHE328      0.1639
    215  C          9.0410   62.5970   72.2450 C.2   328  PHE328      0.2290
    216  O          8.3150   61.9200   72.9670 O.2   328  PHE328     -0.2864
    217  CB         8.8560   61.9020   69.8360 C.3   328  PHE328      0.0560
    218  CG         8.4010   62.2780   68.4500 C.ar  328  PHE328     -0.0200
    219  CD1        9.2090   63.0700   67.6360 C.ar  328  PHE328     -0.0042
    220  CD2        7.1020   61.9870   68.0350 C.ar  328  PHE328     -0.0042
    221  CE1        8.7220   63.5810   66.4150 C.ar  328  PHE328     -0.0003
    222  CE2        6.6040   62.4890   66.8310 C.ar  328  PHE328     -0.0003
    223  CZ         7.4150   63.2910   66.0130 C.ar  328  PHE328     -0.0000
    224  N          6.9870   64.7340   74.7580 N.3   331  TYR331     -0.1241
    225  CA         5.6370   64.2510   75.0040 C.3   331  TYR331      0.1605
    226  C          5.4810   62.9140   75.6790 C.2   331  TYR331      0.2264
    227  O          4.4390   62.6590   76.2500 O.2   331  TYR331     -0.2867
    228  CB         4.8230   64.2500   73.7160 C.3   331  TYR331      0.0534
    229  CG         4.2340   65.5940   73.3740 C.ar  331  TYR331     -0.0201
    230  CD1        5.0540   66.7060   73.1750 C.ar  331  TYR331     -0.0009
    231  CD2        2.8500   65.7520   73.2110 C.ar  331  TYR331     -0.0009
    232  CE1        4.5200   67.9460   72.8050 C.ar  331  TYR331      0.0417
    233  CE2        2.3000   66.9920   72.8440 C.ar  331  TYR331      0.0417
    234  CZ         3.1470   68.0860   72.6400 C.ar  331  TYR331      0.1957
    235  OH         2.6360   69.3060   72.2350 O.3   331  TYR331     -0.2866
    236  N         11.5520   68.8660   64.8680 N.3   437  HIS437     -0.1226
    237  CA        10.8210   68.2180   63.7820 C.3   437  HIS437      0.1752
    238  C          9.7080   69.1850   63.3740 C.2   437  HIS437      0.2596
    239  O          8.8990   69.5880   64.2080 O.2   437  HIS437     -0.2718
    240  CB        10.1790   66.9220   64.3060 C.3   437  HIS437      0.0759
    241  CG         9.6490   66.0140   63.2400 C.ar  437  HIS437      0.0818
    242  ND1       10.4550   65.4720   62.2550 N.ar  437  HIS437     -0.2268
    243  CD2        8.4210   65.4630   63.0620 C.ar  437  HIS437      0.1154
    244  CE1        9.7490   64.6200   61.5320 C.ar  437  HIS437      0.1986
    245  NE2        8.5140   64.5930   61.9970 N.ar  437  HIS437     -0.2212
    246  N          9.6790   69.5580   62.1010 N.am  438  GLY438     -0.1957
    247  CA         8.6320   70.4390   61.6130 C.3   438  GLY438      0.1869
    248  C          8.9920   71.9140   61.5360 C.2   438  GLY438      0.2309
    249  O          8.2920   72.6960   60.8850 O.2   438  GLY438     -0.2863
@<TRIPOS>BOND
     1    95    94    2
     2    94    93    1
     3   104   105    1
     4    96    93    1
     5    96    97    1
     6    93    92    1
     7   105   108    1
     8   105   106    1
     9    97    98   ar
    10    97    99   ar
    11   116   115    2
    12   108   109    1
    13   106   107    2
    14   106   113   am
    15    98   100   ar
    16    99   101   ar
    17    50    51    1
    18   113   114    1
    19   115   114    1
    20   100   102   ar
    21   109   110    1
    22   101   102   ar
    23    87    86    2
    24   102   103    1
    25    51    52    1
    26   114   117    1
    27    84    85    1
    28    86    85    1
    29   110   111   ar
    30   110   112   ar
    31    52    53    2
    32    52    54   am
    33    85    88    1
    34   132   131   ar
    35   132   130   ar
    36   117   118    1
    37    83    82    2
    38    82    81    1
    39    88    89    1
    40   131   129   ar
    41   130   128   ar
    42    89    90    1
    43    89    91    1
    44    54    55    1
    45    81    80    1
    46    77    76    2
    47   129   126   ar
    48   128   126   ar
    49   128   127   ar
    50   121   122    2
    51   121   120    1
    52   249   248    2
    53   126   124   ar
    54    80    76   am
    55    76    75    1
    56   127   125   ar
    57    55    56    1
    58    60    59    1
    59    60    61    2
    60   244   245   ar
    61   244   242   ar
    62   248   247    1
    63   119   120    1
    64    58    56   am
    65    58    59    1
    66   247   246    1
    67    48    49   ar
    68    48    46   ar
    69    62    63    1
    70    56    57    2
    71   245   243   ar
    72   120   123    1
    73   246   238   am
    74   124   125   ar
    75   124   123    1
    76    49    47   ar
    77   242   241   ar
    78    74    75    1
    79    74    64   am
    80    75    78    1
    81    46    43   ar
    82    63    64    1
    83    63    66    1
    84    64    65    2
    85   243   241   ar
    86   241   240    1
    87   238   237    1
    88   238   239    2
    89    47    45   ar
    90    78    79    1
    91    39    38    2
    92   237   240    1
    93   237   236    1
    94   198   200   ar
    95   198   196   ar
    96    43    45   ar
    97    43    41   ar
    98   177   179   ar
    99   177   175   ar
   100    66    67    1
   101   200   201   ar
   102   179   178   ar
   103    45    44   ar
   104   194   193    2
   105   195   196    1
   106   195   192    1
   107    37    38    1
   108    37    40    1
   109    37    36    1
   110   196   197   ar
   111    67    69   ar
   112    67    68   ar
   113   175   174   ar
   114    69    71   ar
   115    41    40    1
   116    41    42   ar
   117   193   192    1
   118   201   199   ar
   119   178   176   ar
   120   192   191    1
   121    68    70   ar
   122    44    42   ar
   123   191   182   am
   124   189   188    1
   125   190   188    1
   126    71    72   ar
   127   188   187    2
   128   197   199   ar
   129   223   221   ar
   130   223   222   ar
   131   172   171    2
   132   187   186    1
   133   186   185    1
   134   174   176   ar
   135   174   173    1
   136   221   219   ar
   137     1     2    1
   138    70    72   ar
   139    72    73    1
   140   222   220   ar
   141   181   182    1
   142   181   180    1
   143   181   184    1
   144   182   183    2
   145   171   180   am
   146   171   170    1
   147     4     3    2
   148   173   170    1
   149   211   209   ar
   150   211   212   ar
   151   209   207   ar
   152   185   184    1
   153   219   218   ar
   154   170   169    1
   155     2     3    1
   156     2     5    1
   157   220   218   ar
   158   154   152    1
   159     5     6    1
   160    33    32    2
   161   212   210   ar
   162   218   217    1
   163   207   206    1
   164   207   208   ar
   165   146   144   ar
   166   146   145   ar
   167   206   203    1
   168   144   142   ar
   169   169   163   am
   170   145   143   ar
   171    32    31    1
   172   164   163    2
   173   152   153    1
   174   152   151    1
   175   210   208   ar
   176     6     8   ar
   177     6     7   ar
   178   217   214    1
   179   142   140   ar
   180   142   141   ar
   181   148   147    1
   182   148   151    1
   183   148   149    1
   184     8    10   ar
   185   163   162    1
   186   202   203    1
   187   143   140   ar
   188    31    30    1
   189    31    34    1
   190   203   204    1
   191    13    14    1
   192   213   204   am
   193   213   214    1
   194   140   138   ar
   195   141   139   ar
   196    17    14    1
   197    17    18    1
   198   133   134    1
   199   149   150    2
   200     7     9   ar
   201   204   205    2
   202   214   215    1
   203    20    18   ar
   204   160   159    1
   205   134   135    1
   206   134   137    1
   207   139   138   ar
   208   138   137    1
   209    14    15    1
   210    10    11   ar
   211    34    35    1
   212   162   161    1
   213   162   165    1
   214    18    19   ar
   215   159   156    1
   216   135   136    2
   217   161   157   am
   218   166   165    1
   219   166   168    1
   220    16    15    2
   221     9    11   ar
   222   165   167    1
   223   235   234    1
   224   215   216    2
   225    11    12    1
   226   157   156    1
   227   157   158    2
   228   234   232   ar
   229   234   233   ar
   230   232   230   ar
   231   233   231   ar
   232   156   155    1
   233   230   229   ar
   234   231   229   ar
   235   229   228    1
   236   228   225    1
   237   224   225    1
   238   225   226    1
   239    21    22    1
   240   226   227    2
   241    25    26    1
   242    25    22    1
   243    26    27    1
   244    22    23    1
   245    23    24    2
   246    27    29   am
   247    27    28    2
