@<TRIPOS>MOLECULE
tmp/3i73A00.pdb
 158 153 0 0 0
SMALL
GASTEIGER

@<TRIPOS>ATOM
      1  N        -45.8900   20.3090   11.5110 N.3   153  GLN153     -0.1245
      2  CA       -46.0860   18.8760   11.3130 C.3   153  GLN153      0.1566
      3  C        -45.7800   18.1380   12.6270 C.2   153  GLN153      0.2260
      4  O        -44.6690   18.1890   13.1430 O.2   153  GLN153     -0.2867
      5  CB       -45.1840   18.3710   10.1770 C.3   153  GLN153      0.0367
      6  CG       -45.1770   19.2900    8.9480 C.3   153  GLN153      0.0905
      7  CD       -46.5910   19.5400    8.4130 C.2   153  GLN153      0.2608
      8  OE1      -47.2400   18.5920    7.9640 O.2   153  GLN153     -0.2717
      9  NE2      -47.0670   20.8240    8.4470 N.am  153  GLN153     -0.0878
     10  N        -35.0730   10.9300    3.1600 N.3   171  PRO171     -0.2102
     11  CA       -34.8810   10.2390    1.8800 C.3   171  PRO171      0.1504
     12  C        -35.2730   11.0810    0.6550 C.2   171  PRO171      0.2576
     13  O        -36.3300   11.7240    0.6350 O.2   171  PRO171     -0.2718
     14  CB       -35.7680    8.9980    2.0200 C.3   171  PRO171      0.0282
     15  CG       -35.7260    8.6990    3.4730 C.3   171  PRO171      0.0208
     16  CD       -35.7590   10.0520    4.1350 C.3   171  PRO171      0.0893
     17  N        -34.4000   11.0630   -0.3510 N.am  172  GLY172     -0.1957
     18  CA       -34.4940   11.9390   -1.5110 C.3   172  GLY172      0.1869
     19  C        -35.3360   11.4490   -2.6770 C.2   172  GLY172      0.2309
     20  O        -35.9400   10.3730   -2.5990 O.2   172  GLY172     -0.2863
     21  N        -40.2710   13.3210   -5.6360 N.3   176  SER176     -0.1217
     22  CA       -40.9800   12.0510   -5.4350 C.3   176  SER176      0.1889
     23  C        -42.4560   12.2960   -5.1410 C.2   176  SER176      0.2288
     24  O        -42.8120   13.1120   -4.2760 O.2   176  SER176     -0.2866
     25  CB       -40.3540   11.2170   -4.3090 C.3   176  SER176      0.2089
     26  OG       -41.1010   10.0180   -4.0800 O.3   176  SER176     -0.2183
     27  N        -44.5030   10.1270   -3.9430 N.3   178  LYS178     -0.1231
     28  CA       -45.0010    9.2070   -2.9270 C.3   178  LYS178      0.1693
     29  C        -45.1570    9.8620   -1.5540 C.2   178  LYS178      0.2593
     30  O        -45.7350    9.2640   -0.6450 O.2   178  LYS178     -0.2718
     31  CB       -44.1320    7.9460   -2.8600 C.3   178  LYS178      0.0285
     32  CG       -44.1360    7.1410   -4.1540 C.3   178  LYS178      0.0035
     33  CD       -43.7050    5.7060   -3.9440 C.3   178  LYS178      0.0206
     34  CE       -43.4430    4.9830   -5.2840 C.3   178  LYS178      0.1093
     35  NZ       -44.6220    4.9500   -6.1960 N.3   178  LYS178     -0.1314
     36  N        -44.6640   11.1030   -1.4500 N.am  179  THR179     -0.1939
     37  CA       -44.5900   11.8910   -0.2150 C.3   179  THR179      0.2028
     38  C        -44.8970   13.3480   -0.5280 C.2   179  THR179      0.2642
     39  O        -44.7270   13.7730   -1.6820 O.2   179  THR179     -0.2714
     40  CB       -43.1680   11.8990    0.3880 C.3   179  THR179      0.1808
     41  OG1      -42.3670   12.9220   -0.2240 O.3   179  THR179     -0.2208
     42  CG2      -42.4830   10.6180    0.1480 C.3   179  THR179      0.0379
     43  N        -45.3050   14.1170    0.4910 N.am  180  VAL180     -0.1963
     44  CA       -45.5100   15.5740    0.3420 C.3   180  VAL180      0.1727
     45  C        -44.9430   16.3970    1.5190 C.2   180  VAL180      0.2616
     46  O        -45.1280   17.6170    1.5780 O.2   180  VAL180     -0.2715
     47  CB       -47.0120   15.9590    0.1030 C.3   180  VAL180      0.0290
     48  CG1      -47.5960   15.2730   -1.1240 C.3   180  VAL180      0.0023
     49  CG2      -47.8550   15.6560    1.3170 C.3   180  VAL180      0.0023
     50  N        -44.2620   15.7400    2.4550 N.am  181  THR181     -0.1951
     51  CA       -43.6890   16.4780    3.5900 C.3   181  THR181      0.1897
     52  C        -42.5980   17.4430    3.1480 C.2   181  THR181      0.2313
     53  O        -42.4930   18.5480    3.6680 O.2   181  THR181     -0.2863
     54  CB       -43.1930   15.5710    4.7500 C.3   181  THR181      0.1794
     55  OG1      -41.8410   15.1690    4.5250 O.3   181  THR181     -0.2208
     56  CG2      -44.0520   14.3600    4.9020 C.3   181  THR181      0.0378
     57  N        -44.4490   20.3590    2.3770 N.3   184  GLN184     -0.1245
     58  CA       -44.9510   20.9180    3.6490 C.3   184  GLN184      0.1566
     59  C        -43.8680   21.7320    4.4080 C.2   184  GLN184      0.2260
     60  O        -44.1250   22.8130    4.9140 O.2   184  GLN184     -0.2867
     61  CB       -45.5150   19.8030    4.5400 C.3   184  GLN184      0.0367
     62  CG       -46.8610   19.2090    4.0710 C.3   184  GLN184      0.0905
     63  CD       -47.9960   20.2380    4.0700 C.2   184  GLN184      0.2608
     64  OE1      -48.2130   20.9030    3.0820 O.2   184  GLN184     -0.2717
     65  NE2      -48.7240   20.3560    5.1870 N.am  184  GLN184     -0.0878
     66  N        -29.7000    1.8320    1.9820 N.3   323  PHE323     -0.1241
     67  CA       -29.1650    3.0890    2.4810 C.3   323  PHE323      0.1605
     68  C        -27.8030    2.8910    3.1410 C.2   323  PHE323      0.2264
     69  O        -27.6160    3.1940    4.3240 O.2   323  PHE323     -0.2867
     70  CB       -30.1690    3.7560    3.4330 C.3   323  PHE323      0.0534
     71  CG       -31.2600    4.5150    2.7290 C.ar  323  PHE323     -0.0203
     72  CD1      -32.1090    3.8750    1.8290 C.ar  323  PHE323     -0.0042
     73  CD2      -31.4460    5.8710    2.9690 C.ar  323  PHE323     -0.0042
     74  CE1      -33.1190    4.5760    1.1700 C.ar  323  PHE323     -0.0003
     75  CE2      -32.4570    6.5810    2.3140 C.ar  323  PHE323     -0.0003
     76  CZ       -33.2930    5.9280    1.4170 C.ar  323  PHE323     -0.0000
     77  N        -38.5300    8.6600    6.0070 N.3   341  LEU341     -0.1231
     78  CA       -39.6070    8.3520    5.0600 C.3   341  LEU341      0.1693
     79  C        -39.5290    6.8770    4.6880 C.2   341  LEU341      0.2592
     80  O        -38.4560    6.3700    4.3310 O.2   341  LEU341     -0.2718
     81  CB       -39.4590    9.2180    3.8130 C.3   341  LEU341      0.0284
     82  CG       -40.3160   10.4660    3.5930 C.3   341  LEU341      0.0019
     83  CD1      -40.7730   11.1670    4.8530 C.3   341  LEU341      0.0001
     84  CD2      -39.6030   11.4260    2.6310 C.3   341  LEU341      0.0001
     85  N        -40.6620    6.2000    4.7820 N.am  342  ASP342     -0.1960
     86  CA       -40.7070    4.7490    4.8500 C.3   342  ASP342      0.1840
     87  C        -41.7730    4.2280    3.8810 C.2   342  ASP342      0.2621
     88  O        -42.9810    4.4510    4.0750 O.2   342  ASP342     -0.2715
     89  CB       -41.0010    4.3320    6.3090 C.3   342  ASP342      0.1450
     90  CG       -41.1490    2.8480    6.4800 C.2   342  ASP342      0.3671
     91  OD1      -42.0350    2.2770    5.8330 O.co2 342  ASP342     -0.2456
     92  OD2      -40.4010    2.2390    7.2790 O.co2 342  ASP342     -0.2456
     93  N        -41.3120    3.5440    2.8340 N.am  343  ALA343     -0.1977
     94  CA       -42.1830    3.0510    1.7610 C.3   343  ALA343      0.1597
     95  C        -43.3170    2.1610    2.2850 C.2   343  ALA343      0.2287
     96  O        -44.4140    2.1620    1.7210 O.2   343  ALA343     -0.2864
     97  CB       -41.3590    2.3370    0.6640 C.3   343  ALA343      0.0319
     98  N        -46.1060    4.4150    3.7180 N.3   346  ALA346     -0.1245
     99  CA       -46.7850    5.0050    2.5760 C.3   346  ALA346      0.1562
    100  C        -47.8090    4.0670    1.9430 C.2   346  ALA346      0.2260
    101  O        -48.9220    4.4900    1.6590 O.2   346  ALA346     -0.2867
    102  CB       -45.7870    5.4620    1.5410 C.3   346  ALA346      0.0290
    103  N        -49.8590    8.6530    6.7430 N.3   351  PHE351     -0.1228
    104  CA       -49.1910    9.8760    6.2630 C.3   351  PHE351      0.1721
    105  C        -48.9750   10.8700    7.3420 C.2   351  PHE351      0.2437
    106  O        -49.8750   11.0380    8.1700 O.2   351  PHE351     -0.2733
    107  CB       -49.8020   10.5110    5.0110 C.3   351  PHE351      0.0547
    108  CG       -49.7150    9.6390    3.8110 C.ar  351  PHE351     -0.0202
    109  CD1      -50.8670    9.0550    3.2880 C.ar  351  PHE351     -0.0042
    110  CD2      -48.4730    9.3560    3.2300 C.ar  351  PHE351     -0.0042
    111  CE1      -50.8050    8.2120    2.1530 C.ar  351  PHE351     -0.0003
    112  CE2      -48.3760    8.5180    2.1130 C.ar  351  PHE351     -0.0003
    113  CZ       -49.5560    7.9300    1.5630 C.ar  351  PHE351     -0.0000
    114  N        -48.0470   11.7850    7.0490 N.am  352  PRO352     -0.2718
    115  CA       -46.5780   11.6430    6.8440 C.3   352  PRO352      0.1535
    116  C        -46.0300   10.2520    7.1130 C.2   352  PRO352      0.2598
    117  O        -46.2160    9.6990    8.1910 O.2   352  PRO352     -0.2715
    118  CB       -45.9380   12.7740    7.6670 C.3   352  PRO352      0.0310
    119  CG       -47.0850   13.5590    8.2330 C.3   352  PRO352      0.0237
    120  CD       -48.3290   12.7520    8.1330 C.3   352  PRO352      0.0939
    121  N        -45.3790    9.6920    6.1070 N.am  353  ALA353     -0.1978
    122  CA       -44.8320    8.3520    6.1770 C.3   353  ALA353      0.1597
    123  C        -43.4790    8.2770    6.8860 C.2   353  ALA353      0.2287
    124  O        -42.5570    7.5720    6.4400 O.2   353  ALA353     -0.2864
    125  CB       -44.7630    7.7170    4.7650 C.3   353  ALA353      0.0319
    126  N        -51.3400   12.9620    9.8020 N.3   429  GLN429     -0.1231
    127  CA       -51.7170   14.3620    9.6490 C.3   429  GLN429      0.1698
    128  C        -52.1170   14.5610    8.2020 C.2   429  GLN429      0.2592
    129  O        -51.4770   13.9850    7.3200 O.2   429  GLN429     -0.2718
    130  CB       -50.5280   15.2640   10.0230 C.3   429  GLN429      0.0381
    131  CG       -50.8680   16.7500   10.0280 C.3   429  GLN429      0.0905
    132  CD       -49.8770   17.6160   10.7320 C.2   429  GLN429      0.2608
    133  OE1      -50.0390   18.8390   10.7480 O.2   429  GLN429     -0.2717
    134  NE2      -48.8630   17.0150   11.3520 N.am  429  GLN429     -0.0878
    135  N        -53.1630   15.3540    7.9410 N.am  430  ASP430     -0.1960
    136  CA       -53.6780   15.4960    6.5620 C.3   430  ASP430      0.1840
    137  C        -53.2290   16.7880    5.8960 C.2   430  ASP430      0.2622
    138  O        -53.8160   17.8610    6.1190 O.2   430  ASP430     -0.2715
    139  CB       -55.2050   15.3850    6.5280 C.3   430  ASP430      0.1450
    140  CG       -55.7730   15.2220    5.1100 C.2   430  ASP430      0.3671
    141  OD1      -55.0480   15.3780    4.0810 O.co2 430  ASP430     -0.2456
    142  OD2      -56.9960   14.9340    5.0360 O.co2 430  ASP430     -0.2456
    143  N        -52.2010   16.6680    5.0740 N.am  431  ALA431     -0.1963
    144  CA       -51.5900   17.8080    4.4080 C.3   431  ALA431      0.1728
    145  C        -52.5230   18.4570    3.3950 C.2   431  ALA431      0.2616
    146  O        -52.3120   19.6230    3.0210 O.2   431  ALA431     -0.2715
    147  CB       -50.2880   17.3830    3.7200 C.3   431  ALA431      0.0334
    148  N        -53.5440   17.7070    2.9710 N.am  432  PHE432     -0.1974
    149  CA       -54.5700   18.1790    2.0150 C.3   432  PHE432      0.1639
    150  C        -55.7930   18.7960    2.6640 C.2   432  PHE432      0.2290
    151  O        -56.7220   19.1630    1.9630 O.2   432  PHE432     -0.2864
    152  CB       -55.0380   17.0270    1.1130 C.3   432  PHE432      0.0560
    153  CG       -53.9050   16.3270    0.4070 C.ar  432  PHE432     -0.0200
    154  CD1      -53.0980   15.3980    1.0890 C.ar  432  PHE432     -0.0042
    155  CD2      -53.6080   16.6250   -0.9200 C.ar  432  PHE432     -0.0042
    156  CE1      -52.0630   14.7550    0.4480 C.ar  432  PHE432     -0.0003
    157  CE2      -52.5470   15.9740   -1.5750 C.ar  432  PHE432     -0.0003
    158  CZ       -51.7730   15.0380   -0.8830 C.ar  432  PHE432     -0.0000
@<TRIPOS>BOND
     1    35    34    1
     2    21    22    1
     3    22    23    1
     4    22    25    1
     5    34    33    1
     6    23    24    2
     7    25    26    1
     8    32    33    1
     9    32    31    1
    10    27    28    1
    11    28    31    1
    12    28    29    1
    13    19    20    2
    14    19    18    1
    15    39    38    2
    16   157   155   ar
    17   157   158   ar
    18    29    36   am
    19    29    30    2
    20    18    17    1
    21    36    37    1
    22    48    47    1
    23   155   153   ar
    24   158   156   ar
    25    38    37    1
    26    38    43   am
    27    17    12   am
    28    41    40    1
    29    37    40    1
    30    47    44    1
    31    47    49    1
    32    42    40    1
    33    44    43    1
    34    44    45    1
    35   153   154   ar
    36   153   152    1
    37   156   154   ar
    38    13    12    2
    39    12    11    1
    40    97    94    1
    41   152   149    1
    42    74    76   ar
    43    74    72   ar
    44    76    75   ar
    45    45    46    2
    46    45    50   am
    47   102    99    1
    48   113   112   ar
    49   113   111   ar
    50   101   100    2
    51    96    95    2
    52    94    95    1
    53    94    93    1
    54    72    71   ar
    55    11    14    1
    56    11    10    1
    57   100    99    1
    58   151   150    2
    59    66    67    1
    60   149   150    1
    61   149   148    1
    62    14    15    1
    63   112   110   ar
    64   111   109   ar
    65    75    73   ar
    66    57    58    1
    67    50    51    1
    68    67    68    1
    69    67    70    1
    70    99    98    1
    71    84    82    1
    72    71    73   ar
    73    71    70    1
    74    93    87   am
    75   148   145   am
    76   146   145    2
    77    64    63    2
    78    68    69    2
    79    52    51    1
    80    52    53    2
    81    10    16    1
    82   110   108   ar
    83   109   108   ar
    84   145   144    1
    85    15    16    1
    86    51    54    1
    87    82    81    1
    88    82    83    1
    89    58    59    1
    90    58    61    1
    91   147   144    1
    92   108   107    1
    93    81    78    1
    94    87    88    2
    95    87    86    1
    96    63    62    1
    97    63    65   am
    98    62    61    1
    99   141   140   ar
   100    80    79    2
   101   144   143    1
   102    59    60    2
   103    55    54    1
   104    79    85   am
   105    79    78    1
   106    54    56    1
   107   125   122    1
   108    85    86    1
   109    86    89    1
   110   107   104    1
   111   142   140   ar
   112    78    77    1
   113   143   137   am
   114   140   139    1
   115    91    90   ar
   116   137   138    2
   117   137   136    1
   118   121   122    1
   119   121   116   am
   120   122   123    1
   121   104   103    1
   122   104   105    1
   123    89    90    1
   124   124   123    2
   125    90    92   ar
   126   139   136    1
   127   136   135    1
   128   115   114    1
   129   115   116    1
   130   115   118    1
   131   114   105   am
   132   114   120    1
   133   116   117    2
   134   129   128    2
   135   105   106    2
   136   118   119    1
   137   135   128   am
   138     8     7    2
   139   120   119    1
   140   128   127    1
   141     7     9   am
   142     7     6    1
   143     6     5    1
   144   127   126    1
   145   127   130    1
   146   130   131    1
   147   131   132    1
   148     5     2    1
   149   132   133    2
   150   132   134   am
   151     2     1    1
   152     2     3    1
   153     3     4    2
