@<TRIPOS>MOLECULE
tmp/3i74A00.pdb
 174 168 0 0 0
SMALL
GASTEIGER

@<TRIPOS>ATOM
      1  N        -64.2170   18.9640    6.9720 N.3    33  SER33      -0.1217
      2  CA       -65.1240   19.5850    7.9290 C.3    33  SER33       0.1889
      3  C        -65.6750   20.9610    7.5730 C.2    33  SER33       0.2288
      4  O        -66.1720   21.6790    8.4410 O.2    33  SER33      -0.2866
      5  CB       -64.4030   19.6470    9.2770 C.3    33  SER33       0.2089
      6  OG       -63.3200   20.5590    9.2320 O.3    33  SER33      -0.2183
      7  N        -63.9710   23.3450   12.9820 N.3   101  ASP101     -0.1239
      8  CA       -62.8470   22.5260   13.4240 C.3   101  ASP101      0.1674
      9  C        -61.5040   23.0910   12.9750 C.2   101  ASP101      0.2266
     10  O        -60.5930   23.2500   13.7860 O.2   101  ASP101     -0.2867
     11  CB       -63.0010   21.0870   12.9350 C.3   101  ASP101      0.1410
     12  CG       -61.7330   20.2790   13.1050 C.2   101  ASP101      0.3668
     13  OD1      -60.7600   20.5360   12.3640 O.co2 101  ASP101     -0.2456
     14  OD2      -61.7100   19.3840   13.9750 O.co2 101  ASP101     -0.2456
     15  N        -59.6270   21.7820   10.2020 N.3   103  HIS103     -0.1241
     16  CA       -59.0340   20.8370    9.2630 C.3   103  HIS103      0.1621
     17  C        -59.3990   21.1900    7.8230 C.2   103  HIS103      0.2264
     18  O        -58.5370   21.2410    6.9460 O.2   103  HIS103     -0.2867
     19  CB       -59.5060   19.4180    9.5900 C.3   103  HIS103      0.0745
     20  CG       -58.5440   18.3430    9.1840 C.ar  103  HIS103      0.0817
     21  ND1      -58.5970   17.7180    7.9560 N.ar  103  HIS103     -0.2268
     22  CD2      -57.5180   17.7670    9.8550 C.ar  103  HIS103      0.1154
     23  CE1      -57.6390   16.8100    7.8850 C.ar  103  HIS103      0.1986
     24  NE2      -56.9710   16.8190    9.0240 N.ar  103  HIS103     -0.2212
     25  N        -68.0510   16.1720    7.5990 N.3   144  SER144     -0.1217
     26  CA       -67.5340   15.9950    8.9510 C.3   144  SER144      0.1889
     27  C        -68.0130   17.1100    9.8820 C.2   144  SER144      0.2288
     28  O        -67.6690   18.2770    9.6970 O.2   144  SER144     -0.2866
     29  CB       -66.0050   15.9430    8.9250 C.3   144  SER144      0.2089
     30  OG       -65.4810   15.5790   10.1880 O.3   144  SER144     -0.2183
     31  N        -70.5850   14.4570   14.6520 N.3   148  GLY148     -0.1210
     32  CA       -70.2690   13.1460   14.0970 C.3   148  GLY148      0.1956
     33  C        -69.8220   13.1510   12.6490 C.2   148  GLY148      0.2612
     34  O        -70.0800   14.0980   11.9070 O.2   148  GLY148     -0.2717
     35  N        -69.1420   12.0780   12.2560 N.am  149  THR149     -0.1952
     36  CA       -68.6920   11.8870   10.8830 C.3   149  THR149      0.1897
     37  C        -69.1420   10.5070   10.4150 C.2   149  THR149      0.2313
     38  O        -68.8300    9.5010   11.0490 O.2   149  THR149     -0.2863
     39  CB       -67.1570   11.9830   10.7790 C.3   149  THR149      0.1794
     40  OG1      -66.7330   13.3080   11.1210 O.3   149  THR149     -0.2208
     41  CG2      -66.6890   11.6530    9.3670 C.3   149  THR149      0.0378
     42  N        -58.5060   14.4670    3.1570 N.3   172  SER172     -0.1202
     43  CA       -57.5270   14.1360    4.1860 C.3   172  SER172      0.2020
     44  C        -58.1470   13.3140    5.3140 C.2   172  SER172      0.2619
     45  O        -58.1160   13.7140    6.4770 O.2   172  SER172     -0.2717
     46  CB       -56.8850   15.4080    4.7440 C.3   172  SER172      0.2103
     47  OG       -56.2490   16.1490    3.7150 O.3   172  SER172     -0.2182
     48  N        -58.7070   12.1630    4.9550 N.am  173  TYR173     -0.1961
     49  CA       -59.2810   11.2370    5.9260 C.3   173  TYR173      0.1771
     50  C        -58.8970    9.8060    5.5650 C.2   173  TYR173      0.2620
     51  O        -58.6290    9.5050    4.4010 O.2   173  TYR173     -0.2715
     52  CB       -60.8040   11.3670    5.9580 C.3   173  TYR173      0.0574
     53  CG       -61.3100   12.6000    6.6710 C.ar  173  TYR173     -0.0198
     54  CD1      -61.2480   13.8500    6.0670 C.ar  173  TYR173     -0.0009
     55  CD2      -61.8610   12.5120    7.9430 C.ar  173  TYR173     -0.0009
     56  CE1      -61.7140   14.9810    6.7170 C.ar  173  TYR173      0.0417
     57  CE2      -62.3290   13.6350    8.6000 C.ar  173  TYR173      0.0417
     58  CZ       -62.2540   14.8660    7.9820 C.ar  173  TYR173      0.1957
     59  OH       -62.7170   15.9880    8.6310 O.3   173  TYR173     -0.2866
     60  N        -58.8790    8.9230    6.5580 N.am  174  GLY174     -0.1940
     61  CA       -58.5150    7.5330    6.3190 C.3   174  GLY174      0.2014
     62  C        -59.0710    6.5580    7.3380 C.2   174  GLY174      0.2639
     63  O        -59.1060    6.8440    8.5350 O.2   174  GLY174     -0.2714
     64  N        -59.5050    5.3990    6.8530 N.am  175  TYR175     -0.1959
     65  CA       -60.0030    4.3340    7.7140 C.3   175  TYR175      0.1771
     66  C        -59.1510    3.0830    7.5350 C.2   175  TYR175      0.2619
     67  O        -58.6710    2.8010    6.4370 O.2   175  TYR175     -0.2715
     68  CB       -61.4630    4.0190    7.3870 C.3   175  TYR175      0.0574
     69  CG       -62.3930    5.1990    7.5400 C.ar  175  TYR175     -0.0198
     70  CD1      -62.5840    6.0970    6.4990 C.ar  175  TYR175     -0.0009
     71  CD2      -63.0820    5.4130    8.7250 C.ar  175  TYR175     -0.0009
     72  CE1      -63.4350    7.1780    6.6350 C.ar  175  TYR175      0.0417
     73  CE2      -63.9330    6.4900    8.8720 C.ar  175  TYR175      0.0417
     74  CZ       -64.1060    7.3690    7.8250 C.ar  175  TYR175      0.1957
     75  OH       -64.9550    8.4420    7.9710 O.3   175  TYR175     -0.2866
     76  N        -58.9690    2.3320    8.6140 N.am  176  ARG176     -0.1963
     77  CA       -58.1220    1.1480    8.5750 C.3   176  ARG176      0.1729
     78  C        -58.8110   -0.0870    9.1550 C.2   176  ARG176      0.2616
     79  O        -59.7480    0.0230    9.9460 O.2   176  ARG176     -0.2715
     80  CB       -56.8000    1.4240    9.3010 C.3   176  ARG176      0.0348
     81  CG       -55.8550    2.3110    8.5020 C.3   176  ARG176      0.0492
     82  CD       -54.9050    3.1040    9.3850 C.3   176  ARG176      0.2205
     83  NE       -53.9930    2.2560   10.1460 N.pl3 176  ARG176     -0.0865
     84  CZ       -53.9380    2.2240   11.4730 C.cat 176  ARG176      0.5346
     85  NH1      -54.7420    2.9990   12.1870 N.pl3 176  ARG176      0.1354
     86  NH2      -53.0760    1.4250   12.0860 N.pl3 176  ARG176      0.1354
     87  N        -58.3340   -1.2610    8.7540 N.am  177  PHE177     -0.1974
     88  CA       -58.8440   -2.5200    9.2830 C.3   177  PHE177      0.1639
     89  C        -60.1370   -2.9700    8.6080 C.2   177  PHE177      0.2290
     90  O        -60.9530   -3.6570    9.2210 O.2   177  PHE177     -0.2864
     91  CB       -59.0550   -2.4150   10.7950 C.3   177  PHE177      0.0560
     92  CG       -57.9220   -1.7470   11.5210 C.ar  177  PHE177     -0.0200
     93  CD1      -58.1060   -0.5230   12.1410 C.ar  177  PHE177     -0.0042
     94  CD2      -56.6740   -2.3430   11.5820 C.ar  177  PHE177     -0.0042
     95  CE1      -57.0650    0.0950   12.8090 C.ar  177  PHE177     -0.0003
     96  CE2      -55.6300   -1.7310   12.2490 C.ar  177  PHE177     -0.0003
     97  CZ       -55.8260   -0.5100   12.8630 C.ar  177  PHE177     -0.0000
     98  N        -54.6040   11.4730    1.8640 N.3   202  SER202     -0.1217
     99  CA       -53.5120   11.2880    2.8090 C.3   202  SER202      0.1889
    100  C        -53.2450    9.8060    3.0280 C.2   202  SER202      0.2288
    101  O        -54.1430    8.9790    2.8830 O.2   202  SER202     -0.2866
    102  CB       -53.8410   11.9700    4.1370 C.3   202  SER202      0.2089
    103  OG       -55.1890   11.7340    4.5050 O.3   202  SER202     -0.2183
    104  N        -52.1020    8.5710    5.9000 N.3   204  GLY204     -0.1210
    105  CA       -52.2860    8.2560    7.3130 C.3   204  GLY204      0.1956
    106  C        -51.1030    8.7140    8.1440 C.2   204  GLY204      0.2612
    107  O        -50.0140    8.9430    7.6160 O.2   204  GLY204     -0.2717
    108  N        -51.3140    8.8460    9.4480 N.am  205  ASN205     -0.1960
    109  CA       -50.2760    9.3490   10.3390 C.3   205  ASN205      0.1819
    110  C        -49.9070    8.3510   11.4290 C.2   205  ASN205      0.2621
    111  O        -49.4900    8.7380   12.5220 O.2   205  ASN205     -0.2715
    112  CB       -50.7140   10.6750   10.9620 C.3   205  ASN205      0.1195
    113  CG       -51.0640   11.7200    9.9180 C.2   205  ASN205      0.2630
    114  OD1      -50.3350   11.9100    8.9440 O.2   205  ASN205     -0.2716
    115  ND2      -52.1840   12.4060   10.1180 N.am  205  ASN205     -0.0877
    116  N        -50.0580    7.0650   11.1230 N.am  206  ARG206     -0.1977
    117  CA       -49.7450    6.0070   12.0770 C.3   206  ARG206      0.1597
    118  C        -48.4680    5.2480   11.7180 C.2   206  ARG206      0.2287
    119  O        -48.3620    4.0470   11.9700 O.2   206  ARG206     -0.2864
    120  CB       -50.9140    5.0290   12.1960 C.3   206  ARG206      0.0334
    121  CG       -52.1440    5.6170   12.8580 C.3   206  ARG206      0.0492
    122  CD       -51.7530    6.4630   14.0550 C.3   206  ARG206      0.2205
    123  NE       -52.8610    6.6220   14.9900 N.pl3 206  ARG206     -0.0865
    124  CZ       -53.0320    5.8710   16.0730 C.cat 206  ARG206      0.5346
    125  NH1      -52.1620    4.9100   16.3610 N.pl3 206  ARG206      0.1354
    126  NH2      -54.0720    6.0820   16.8710 N.pl3 206  ARG206      0.1354
    127  N        -53.2630    3.9910    4.9210 N.3   214  ASN214     -0.1240
    128  CA       -54.6260    3.7750    4.4530 C.3   214  ASN214      0.1653
    129  C        -54.8490    4.4630    3.1110 C.2   214  ASN214      0.2266
    130  O        -53.9560    5.1390    2.6010 O.2   214  ASN214     -0.2867
    131  CB       -55.6490    4.2430    5.4920 C.3   214  ASN214      0.1155
    132  CG       -55.4860    5.7070    5.8580 C.2   214  ASN214      0.2627
    133  OD1      -55.7410    6.1040    6.9950 O.2   214  ASN214     -0.2716
    134  ND2      -55.0600    6.5180    4.8960 N.am  214  ASN214     -0.0877
    135  N        -49.6410   23.3830   11.0180 N.3   422  GLU422     -0.1231
    136  CA       -50.2510   22.0790   11.2540 C.3   422  GLU422      0.1699
    137  C        -49.4640   20.9940   10.5180 C.2   422  GLU422      0.2593
    138  O        -48.8690   21.2520    9.4710 O.2   422  GLU422     -0.2718
    139  CB       -51.7120   22.0960   10.7980 C.3   422  GLU422      0.0402
    140  CG       -52.5820   21.0050   11.4010 C.3   422  GLU422      0.1161
    141  CD       -52.4940   20.9530   12.9140 C.2   422  GLU422      0.3649
    142  OE1      -53.3300   21.5950   13.5840 O.co2 422  GLU422     -0.2457
    143  OE2      -51.5830   20.2750   13.4350 O.co2 422  GLU422     -0.2457
    144  N        -49.4590   19.7820   11.0660 N.am  423  SER423     -0.1938
    145  CA       -48.6540   18.7000   10.5030 C.3   423  SER423      0.2055
    146  C        -49.4810   17.4560   10.1880 C.2   423  SER423      0.2644
    147  O        -50.5250   17.2230   10.7940 O.2   423  SER423     -0.2714
    148  CB       -47.5160   18.3330   11.4600 C.3   423  SER423      0.2130
    149  OG       -46.7290   19.4680   11.7810 O.3   423  SER423     -0.2179
    150  N        -49.0000   16.6580    9.2380 N.am  424  GLY424     -0.1939
    151  CA       -49.6490   15.3980    8.8880 C.3   424  GLY424      0.2014
    152  C        -49.8140   15.2090    7.3930 C.2   424  GLY424      0.2640
    153  O        -49.5680   16.1240    6.6080 O.2   424  GLY424     -0.2714
    154  N        -50.2320   14.0130    6.9950 N.am  425  THR425     -0.1936
    155  CA       -50.4840   13.7340    5.5880 C.3   425  THR425      0.2028
    156  C        -51.6730   14.5470    5.0780 C.2   425  THR425      0.2643
    157  O        -51.8630   14.6980    3.8700 O.2   425  THR425     -0.2714
    158  CB       -50.7130   12.2300    5.3360 C.3   425  THR425      0.1808
    159  OG1      -51.4540   11.6670    6.4250 O.3   425  THR425     -0.2208
    160  CG2      -49.3810   11.5070    5.2260 C.3   425  THR425      0.0379
    161  N        -52.4670   15.0740    6.0080 N.am  426  SER426     -0.1935
    162  CA       -53.5950   15.9290    5.6560 C.3   426  SER426      0.2055
    163  C        -53.1100   17.1580    4.9010 C.2   426  SER426      0.2642
    164  O        -53.7820   17.6510    3.9950 O.2   426  SER426     -0.2714
    165  CB       -54.3580   16.3610    6.9090 C.3   426  SER426      0.2130
    166  OG       -55.0240   15.2650    7.5090 O.3   426  SER426     -0.2179
    167  N        -51.9370   17.6500    5.2850 N.am  427  MET427     -0.1976
    168  CA       -51.3520   18.8250    4.6520 C.3   427  MET427      0.1605
    169  C        -50.6730   18.4720    3.3290 C.2   427  MET427      0.2287
    170  O        -50.5240   19.3220    2.4520 O.2   427  MET427     -0.2864
    171  CB       -50.3490   19.4930    5.5940 C.3   427  MET427      0.0413
    172  CG       -50.9720   20.3020    6.7280 C.3   427  MET427      0.0598
    173  SD       -51.9850   19.3430    7.8740 S.3   427  MET427     -0.1393
    174  CE       -53.5860   19.4310    7.0730 C.3   427  MET427      0.0692
@<TRIPOS>BOND
     1    98    99    1
     2   170   169    2
     3   130   129    2
     4    99   100    1
     5    99   102    1
     6   101   100    2
     7   129   128    1
     8    42    43    1
     9   169   168    1
    10    47    46    1
    11   157   156    2
    12   164   163    2
    13   102   103    1
    14    43    46    1
    15    43    44    1
    16    51    50    2
    17   128   127    1
    18   128   131    1
    19   168   167    1
    20   168   171    1
    21   134   132   am
    22   163   167   am
    23   163   162    1
    24    48    44   am
    25    48    49    1
    26   156   155    1
    27   156   161   am
    28   160   158    1
    29    44    45    2
    30   158   155    1
    31   158   159    1
    32   131   132    1
    33    50    49    1
    34    50    60   am
    35   155   154    1
    36   171   172    1
    37   162   161    1
    38   162   165    1
    39   132   133    2
    40   104   105    1
    41    49    52    1
    42    52    53    1
    43    54    53   ar
    44    54    56   ar
    45    61    60    1
    46    61    62    1
    47    67    66    2
    48    70    72   ar
    49    70    69   ar
    50   153   152    2
    51    72    74   ar
    52    53    55   ar
    53    56    58   ar
    54   172   173    1
    55    64    62   am
    56    64    65    1
    57   165   166    1
    58    18    17    2
    59     1     2    1
    60   154   152   am
    61   174   173    1
    62   105   106    1
    63    62    63    2
    64    68    69    1
    65    68    65    1
    66   152   151    1
    67    66    65    1
    68    66    76   am
    69    69    71   ar
    70     3     2    1
    71     3     4    2
    72    25    26    1
    73   107   106    2
    74    17    16    1
    75    74    75    1
    76    74    73   ar
    77    23    21   ar
    78    23    24   ar
    79     2     5    1
    80    55    57   ar
    81    21    20   ar
    82    58    57   ar
    83    58    59    1
    84   106   108   am
    85    81    80    1
    86    81    82    1
    87    77    76    1
    88    77    78    1
    89    77    80    1
    90    89    90    2
    91    89    88    1
    92    71    73   ar
    93    87    78   am
    94    87    88    1
    95   151   150    1
    96    29    26    1
    97    29    30    1
    98   114   113    2
    99    26    27    1
   100    24    22   ar
   101    78    79    2
   102    20    19    1
   103    20    22   ar
   104     6     5    1
   105   150   146   am
   106    16    19    1
   107    16    15    1
   108    88    91    1
   109    41    39    1
   110    82    83    1
   111   108   109    1
   112   138   137    2
   113    28    27    2
   114   113   115   am
   115   113   112    1
   116    83    84    2
   117   146   145    1
   118   146   147    2
   119   109   112    1
   120   109   110    1
   121    37    36    1
   122    37    38    2
   123   145   144    1
   124   145   148    1
   125   137   144   am
   126   137   136    1
   127    39    36    1
   128    39    40    1
   129    91    92    1
   130   139   136    1
   131   139   140    1
   132    36    35    1
   133   135   136    1
   134   116   110   am
   135   116   117    1
   136   140   141    1
   137   110   111    2
   138   148   149    1
   139    84    86    1
   140    84    85    1
   141    92    94   ar
   142    92    93   ar
   143    94    96   ar
   144   118   119    2
   145   118   117    1
   146    34    33    2
   147   117   120    1
   148    93    95   ar
   149   120   121    1
   150    96    97   ar
   151    35    33   am
   152    13    12   ar
   153    33    32    1
   154    95    97   ar
   155   121   122    1
   156   141   143   ar
   157   141   142   ar
   158    11    12    1
   159    11     8    1
   160     9     8    1
   161     9    10    2
   162     7     8    1
   163    12    14   ar
   164   122   123    1
   165    32    31    1
   166   123   124    2
   167   124   125    1
   168   124   126    1
