@<TRIPOS>MOLECULE
tmp/3i78A00.pdb
 126 126 0 0 0
SMALL
GASTEIGER

@<TRIPOS>ATOM
      1  N         49.2370  -14.0950   10.8880 N.3    42  HIS42      -0.1241
      2  CA        49.9060  -12.8010   11.0800 C.3    42  HIS42       0.1621
      3  C         48.9810  -11.6360   10.8430 C.2    42  HIS42       0.2264
      4  O         49.3990  -10.5030   10.9350 O.2    42  HIS42      -0.2867
      5  CB        51.1210  -12.6600   10.1670 C.3    42  HIS42       0.0745
      6  CG        50.7750  -12.3830    8.7400 C.ar   42  HIS42       0.0817
      7  ND1       50.5670  -13.3850    7.8170 N.ar   42  HIS42      -0.2268
      8  CD2       50.6040  -11.2190    8.0750 C.ar   42  HIS42       0.1154
      9  CE1       50.2810  -12.8490    6.6440 C.ar   42  HIS42       0.1986
     10  NE2       50.2990  -11.5350    6.7720 N.ar   42  HIS42      -0.2212
     11  N         50.4850  -11.9010   -9.3550 N.3   172  ASP172     -0.1225
     12  CA        50.8430  -12.3950   -8.0260 C.3   172  ASP172      0.1805
     13  C         49.9610  -11.7310   -7.0050 C.2   172  ASP172      0.2598
     14  O         49.3850  -10.7020   -7.2910 O.2   172  ASP172     -0.2718
     15  CB        52.2840  -12.0130   -7.7260 C.3   172  ASP172      0.1424
     16  CG        52.9100  -12.8520   -6.6230 C.2   172  ASP172      0.3668
     17  OD1       52.1770  -13.3210   -5.7160 O.co2 172  ASP172     -0.2456
     18  OD2       54.1600  -13.0220   -6.6740 O.co2 172  ASP172     -0.2456
     19  N         49.8450  -12.3190   -5.8160 N.am  173  THR173     -0.1939
     20  CA        49.1140  -11.6760   -4.7210 C.3   173  THR173      0.2028
     21  C         50.0640  -10.7070   -4.1080 C.2   173  THR173      0.2642
     22  O         51.2640  -10.8060   -4.3330 O.2   173  THR173     -0.2714
     23  CB        48.5840  -12.6420   -3.6380 C.3   173  THR173      0.1808
     24  OG1       49.6620  -13.3100   -2.9680 O.3   173  THR173     -0.2208
     25  CG2       47.6520  -13.6540   -4.2630 C.3   173  THR173      0.0379
     26  N         49.5320   -9.7590   -3.3570 N.am  174  CYS174     -0.1953
     27  CA        50.3440   -8.6660   -2.9030 C.3   174  CYS174      0.1843
     28  C         49.8660   -8.1290   -1.5740 C.2   174  CYS174      0.2625
     29  O         48.8140   -8.5090   -1.0850 O.2   174  CYS174     -0.2714
     30  CB        50.3800   -7.5520   -3.9570 C.3   174  CYS174      0.0997
     31  SG        51.5440   -6.2180   -3.5500 S.3   174  CYS174     -0.0797
     32  N         50.6680   -7.2370   -1.0080 N.am  175  GLN175     -0.1963
     33  CA        50.4150   -6.6060    0.2750 C.3   175  GLN175      0.1733
     34  C         48.9340   -6.2600    0.4230 C.2   175  GLN175      0.2616
     35  O         48.3660   -5.5570   -0.4190 O.2   175  GLN175     -0.2715
     36  CB        51.3090   -5.3650    0.3880 C.3   175  GLN175      0.0408
     37  CG        51.6000   -4.8720    1.8170 C.3   175  GLN175      0.0908
     38  CD        50.9260   -3.5280    2.1540 C.2   175  GLN175      0.2608
     39  OE1       50.1530   -3.4330    3.1190 O.2   175  GLN175     -0.2717
     40  NE2       51.2290   -2.4890    1.3670 N.am  175  GLN175     -0.0878
     41  N         48.3070   -6.7970    1.4690 N.am  176  GLY176     -0.1955
     42  CA        46.8700   -6.6510    1.6600 C.3   176  GLY176      0.1869
     43  C         46.0270   -7.8350    1.2220 C.2   176  GLY176      0.2309
     44  O         44.8060   -7.7630    1.2650 O.2   176  GLY176     -0.2863
     45  N         46.8960  -11.1450    2.2760 N.3   178  SER178     -0.1217
     46  CA        47.1170  -12.1260    3.3190 C.3   178  SER178      0.1889
     47  C         45.8030  -12.5550    3.8840 C.2   178  SER178      0.2288
     48  O         44.9280  -11.7300    4.1460 O.2   178  SER178     -0.2866
     49  CB        47.9500  -11.5250    4.4250 C.3   178  SER178      0.2089
     50  OG        49.0930  -10.9060    3.9030 O.3   178  SER178     -0.2183
     51  N         46.9880  -17.1420    1.4780 N.3   197  VAL197     -0.1231
     52  CA        47.9960  -16.1320    1.1770 C.3   197  VAL197      0.1692
     53  C         48.7840  -15.7830    2.4410 C.2   197  VAL197      0.2593
     54  O         48.1910  -15.4220    3.4470 O.2   197  VAL197     -0.2718
     55  CB        47.3380  -14.8640    0.6180 C.3   197  VAL197      0.0266
     56  CG1       48.3040  -13.7000    0.6310 C.3   197  VAL197      0.0020
     57  CG2       46.8900  -15.1020   -0.7750 C.3   197  VAL197      0.0020
     58  N         50.1070  -15.8970    2.3940 N.am  198  SER198     -0.1938
     59  CA        50.9010  -15.7070    3.5890 C.3   198  SER198      0.2055
     60  C         51.9320  -14.5860    3.4780 C.2   198  SER198      0.2643
     61  O         51.8660  -13.5630    4.2180 O.2   198  SER198     -0.2714
     62  CB        51.5940  -17.0070    3.9580 C.3   198  SER198      0.2130
     63  OG        52.2510  -16.8760    5.2050 O.3   198  SER198     -0.2179
     64  N         52.8920  -14.7850    2.5730 N.am  199  TRP199     -0.1959
     65  CA        53.9450  -13.7920    2.3260 C.3   199  TRP199      0.1771
     66  C         54.6430  -14.0200    0.9550 C.2   199  TRP199      0.2620
     67  O         54.4110  -15.0430    0.2620 O.2   199  TRP199     -0.2715
     68  CB        54.9720  -13.8250    3.4640 C.3   199  TRP199      0.0590
     69  CG        55.6840  -15.1500    3.5670 C.ar  199  TRP199      0.0006
     70  CD1       55.2470  -16.2630    4.2210 C.ar  199  TRP199      0.0946
     71  CD2       56.9410  -15.5100    2.9670 C.ar  199  TRP199      0.0152
     72  NE1       56.1650  -17.2890    4.0940 N.ar  199  TRP199     -0.2442
     73  CE2       57.2060  -16.8520    3.3180 C.ar  199  TRP199      0.0810
     74  CE3       57.8640  -14.8310    2.1660 C.ar  199  TRP199      0.0012
     75  CZ2       58.3570  -17.5210    2.8940 C.ar  199  TRP199      0.0191
     76  CZ3       59.0080  -15.4960    1.7530 C.ar  199  TRP199      0.0001
     77  CH2       59.2450  -16.8220    2.1160 C.ar  199  TRP199      0.0015
     78  N         55.4960  -13.0750    0.5690 N.am  200  GLY200     -0.1954
     79  CA        56.3080  -13.2450   -0.6130 C.3   200  GLY200      0.1869
     80  C         57.4390  -12.2520   -0.5600 C.2   200  GLY200      0.2309
     81  O         57.3600  -11.2940    0.1980 O.2   200  GLY200     -0.2863
     82  N         58.3960   -9.2050   -1.8960 N.3   202  GLY202     -0.1210
     83  CA        57.8180   -8.1800   -2.7320 C.3   202  GLY202      0.1956
     84  C         56.6540   -8.7310   -3.4820 C.2   202  GLY202      0.2612
     85  O         56.2210   -9.7910   -3.1470 O.2   202  GLY202     -0.2717
     86  N         56.1480   -8.0320   -4.4920 N.am  203  CYS203     -0.1970
     87  CA        54.9970   -8.5360   -5.2390 C.3   203  CYS203      0.1712
     88  C         55.3620   -8.6950   -6.7100 C.2   203  CYS203      0.2296
     89  O         55.8650   -7.7560   -7.3490 O.2   203  CYS203     -0.2864
     90  CB        53.7840   -7.6070   -5.1010 C.3   203  CYS203      0.0983
     91  SG        53.3300   -7.1970   -3.4100 S.3   203  CYS203     -0.0798
     92  N         58.6250  -15.7840   -6.0780 N.3   209  TYR209     -0.1227
     93  CA        57.2870  -16.3120   -5.9870 C.3   209  TYR209      0.1736
     94  C         56.4730  -15.8480   -4.8000 C.2   209  TYR209      0.2596
     95  O         56.9150  -15.0160   -3.9860 O.2   209  TYR209     -0.2718
     96  CB        57.3790  -17.8030   -5.9250 C.3   209  TYR209      0.0548
     97  CG        58.0460  -18.3430   -7.1250 C.ar  209  TYR209     -0.0200
     98  CD1       57.4070  -18.3000   -8.3640 C.ar  209  TYR209     -0.0009
     99  CD2       59.3290  -18.8870   -7.0450 C.ar  209  TYR209     -0.0009
    100  CE1       58.0170  -18.8040   -9.4990 C.ar  209  TYR209      0.0417
    101  CE2       59.9620  -19.4010   -8.1870 C.ar  209  TYR209      0.0417
    102  CZ        59.2940  -19.3530   -9.4100 C.ar  209  TYR209      0.1957
    103  OH        59.8780  -19.8530  -10.5460 O.3   209  TYR209     -0.2866
    104  N         55.2750  -16.4240   -4.7270 N.am  210  GLY210     -0.1942
    105  CA        54.3340  -16.2230   -3.6390 C.3   210  GLY210      0.2014
    106  C         54.2010  -17.4590   -2.7650 C.2   210  GLY210      0.2639
    107  O         54.0500  -18.6020   -3.2500 O.2   210  GLY210     -0.2714
    108  N         54.2680  -17.2180   -1.4570 N.am  211  VAL211     -0.1963
    109  CA        54.1810  -18.2990   -0.4740 C.3   211  VAL211      0.1727
    110  C         52.8160  -18.3470    0.1850 C.2   211  VAL211      0.2616
    111  O         52.2190  -17.3000    0.4850 O.2   211  VAL211     -0.2715
    112  CB        55.2630  -18.1830    0.5790 C.3   211  VAL211      0.0290
    113  CG1       55.0710  -19.2640    1.6300 C.3   211  VAL211      0.0023
    114  CG2       56.6180  -18.2970   -0.0830 C.3   211  VAL211      0.0023
    115  N         52.3280  -19.5620    0.3900 N.am  212  TYR212     -0.1974
    116  CA        51.0020  -19.7540    0.9290 C.3   212  TYR212      0.1639
    117  C         50.9690  -20.8230    2.0230 C.2   212  TYR212      0.2290
    118  O         51.6260  -21.8710    1.8940 O.2   212  TYR212     -0.2864
    119  CB        50.0480  -20.1390   -0.1910 C.3   212  TYR212      0.0560
    120  CG        49.8950  -19.1040   -1.2760 C.ar  212  TYR212     -0.0198
    121  CD1       50.8230  -19.0060   -2.3200 C.ar  212  TYR212     -0.0009
    122  CD2       48.8050  -18.2490   -1.2950 C.ar  212  TYR212     -0.0009
    123  CE1       50.6770  -18.0740   -3.3330 C.ar  212  TYR212      0.0417
    124  CE2       48.6580  -17.3100   -2.3120 C.ar  212  TYR212      0.0417
    125  CZ        49.5960  -17.2350   -3.3150 C.ar  212  TYR212      0.1957
    126  OH        49.4550  -16.3050   -4.3060 O.3   212  TYR212     -0.2866
@<TRIPOS>BOND
     1   103   102    1
     2   100   102   ar
     3   100    98   ar
     4   102   101   ar
     5    11    12    1
     6    98    97   ar
     7   101    99   ar
     8    12    15    1
     9    12    13    1
    10    15    16    1
    11    89    88    2
    12    14    13    2
    13    97    99   ar
    14    97    96    1
    15    13    19   am
    16    88    87    1
    17    18    16   ar
    18    16    17   ar
    19    92    93    1
    20    93    96    1
    21    93    94    1
    22    19    20    1
    23    87    90    1
    24    87    86    1
    25    90    91    1
    26    94   104   am
    27    94    95    2
    28   104   105    1
    29    20    21    1
    30    20    23    1
    31    86    84   am
    32    22    21    2
    33   126   125    1
    34    25    23    1
    35    21    26   am
    36    30    31    1
    37    30    27    1
    38   105   106    1
    39    23    24    1
    40    31    91    1
    41    84    85    2
    42    84    83    1
    43    26    27    1
    44   123   125   ar
    45   123   121   ar
    46   125   124   ar
    47   107   106    2
    48    27    28    1
    49   106   108   am
    50    83    82    1
    51   121   120   ar
    52   124   122   ar
    53    28    29    2
    54    28    32   am
    55   108   109    1
    56   122   120   ar
    57   120   119    1
    58    32    33    1
    59    57    55    1
    60    79    80    1
    61    79    78    1
    62    80    81    2
    63   109   110    1
    64   109   112    1
    65    35    34    2
    66   119   116    1
    67   114   112    1
    68   110   115   am
    69   110   111    2
    70    67    66    2
    71    33    36    1
    72    33    34    1
    73    36    37    1
    74   115   116    1
    75    34    41   am
    76    78    66   am
    77   112   113    1
    78    55    56    1
    79    55    52    1
    80   116   117    1
    81    66    65    1
    82    52    51    1
    83    52    53    1
    84    43    44    2
    85    43    42    1
    86    40    38   am
    87    41    42    1
    88    76    77   ar
    89    76    74   ar
    90    37    38    1
    91   118   117    2
    92    77    75   ar
    93    38    39    2
    94    74    71   ar
    95    45    46    1
    96    65    64    1
    97    65    68    1
    98    58    53   am
    99    58    59    1
   100    53    54    2
   101    64    60   am
   102    75    73   ar
   103    71    73   ar
   104    71    69   ar
   105    73    72   ar
   106    46    47    1
   107    46    49    1
   108    68    69    1
   109    60    59    1
   110    60    61    2
   111    69    70   ar
   112    59    62    1
   113    47    48    2
   114    50    49    1
   115    62    63    1
   116    72    70   ar
   117     9    10   ar
   118     9     7   ar
   119    10     8   ar
   120     7     6   ar
   121     8     6   ar
   122     6     5    1
   123     5     2    1
   124     3     4    2
   125     3     2    1
   126     1     2    1
