@<TRIPOS>MOLECULE
tmp/3i7bA00.pdb
 159 148 0 0 0
SMALL
GASTEIGER

@<TRIPOS>ATOM
      1  N         26.4670   17.5090   68.5050 N.3    12  LEU12      -0.1231
      2  CA        26.5140   17.1610   67.0870 C.3    12  LEU12       0.1693
      3  C         26.4510   18.4180   66.2210 C.2    12  LEU12       0.2593
      4  O         27.1550   18.5170   65.2130 O.2    12  LEU12      -0.2718
      5  CB        25.3770   16.2040   66.7200 C.3    12  LEU12       0.0284
      6  CG        25.4560   14.7980   67.3250 C.3    12  LEU12       0.0019
      7  CD1       24.2570   13.9680   66.8940 C.3    12  LEU12       0.0001
      8  CD2       26.7630   14.0860   66.9490 C.3    12  LEU12       0.0001
      9  N         25.6100   19.3720   66.6120 N.am   13  GLY13      -0.1942
     10  CA        25.5440   20.6600   65.9280 C.3    13  GLY13       0.2014
     11  C         24.2500   21.4170   66.1610 C.2    13  GLY13       0.2639
     12  O         23.4110   21.0130   66.9720 O.2    13  GLY13      -0.2714
     13  N         24.1040   22.5290   65.4450 N.am   14  LYS14      -0.1963
     14  CA        22.8880   23.3300   65.4740 C.3    14  LYS14       0.1728
     15  C         22.0100   22.9200   64.2980 C.2    14  LYS14       0.2616
     16  O         22.4690   22.8910   63.1580 O.2    14  LYS14      -0.2715
     17  CB        23.2250   24.8210   65.3810 C.3    14  LYS14       0.0311
     18  CG        22.0200   25.7650   65.4470 C.3    14  LYS14       0.0038
     19  CD        21.2680   25.6490   66.7700 C.3    14  LYS14       0.0206
     20  CE        20.2130   26.7420   66.9230 C.3    14  LYS14       0.1093
     21  NZ        19.1820   26.7020   65.8420 N.3    14  LYS14      -0.1314
     22  N         20.7550   22.5950   64.5850 N.am   15  GLY15      -0.1955
     23  CA        19.7820   22.2470   63.5560 C.3    15  GLY15       0.1869
     24  C         18.5860   23.1680   63.6250 C.2    15  GLY15       0.2309
     25  O         18.5490   24.0850   64.4440 O.2    15  GLY15      -0.2863
     26  N         21.4510   19.9320   68.6190 N.3    20  VAL20      -0.1245
     27  CA        21.3900   18.4860   68.5750 C.3    20  VAL20       0.1561
     28  C         22.5880   17.9330   69.3400 C.2    20  VAL20       0.2260
     29  O         23.7340   18.2620   69.0300 O.2    20  VAL20      -0.2867
     30  CB        21.4050   17.9820   67.1240 C.3    20  VAL20       0.0252
     31  CG1       21.3890   16.4570   67.0880 C.3    20  VAL20       0.0019
     32  CG2       20.2090   18.5490   66.3620 C.3    20  VAL20       0.0019
     33  N         20.3970   10.6210   69.2180 N.3    33  ALA33      -0.1231
     34  CA        20.5510   12.0520   69.0090 C.3    33  ALA33       0.1694
     35  C         19.3210   12.7140   69.6100 C.2    33  ALA33       0.2592
     36  O         18.2020   12.2190   69.4460 O.2    33  ALA33      -0.2718
     37  CB        20.6820   12.3740   67.5310 C.3    33  ALA33       0.0304
     38  N         19.5290   13.8080   70.3320 N.am   34  VAL34      -0.1966
     39  CA        18.4140   14.5550   70.9090 C.3    34  VAL34       0.1727
     40  C         18.4320   15.9950   70.4210 C.2    34  VAL34       0.2616
     41  O         19.4710   16.6540   70.4520 O.2    34  VAL34      -0.2715
     42  CB        18.4500   14.5310   72.4480 C.3    34  VAL34       0.0290
     43  CG1       17.3020   15.3540   73.0300 C.3    34  VAL34       0.0023
     44  CG2       18.3740   13.1020   72.9380 C.3    34  VAL34       0.0023
     45  N         17.2730   16.4620   69.9680 N.am   35  LYS35      -0.1977
     46  CA        17.0770   17.8530   69.5920 C.3    35  LYS35       0.1596
     47  C         16.3520   18.5550   70.7340 C.2    35  LYS35       0.2287
     48  O         15.2500   18.1540   71.1260 O.2    35  LYS35      -0.2864
     49  CB        16.2730   17.9510   68.2930 C.3    35  LYS35       0.0298
     50  CG        16.0360   19.3800   67.8050 C.3    35  LYS35       0.0038
     51  CD        15.5060   19.4180   66.3670 C.3    35  LYS35       0.0206
     52  CE        16.6200   19.2660   65.3480 C.3    35  LYS35       0.1093
     53  NZ        16.2060   19.6920   63.9710 N.3    35  LYS35      -0.1314
     54  N         14.2140    9.7030   59.2220 N.3    67  MET67      -0.1245
     55  CA        14.8110    9.5910   60.5460 C.3    67  MET67       0.1570
     56  C         13.8310    8.9490   61.5200 C.2    67  MET67       0.2261
     57  O         12.6620    9.3320   61.5800 O.2    67  MET67      -0.2867
     58  CB        15.2290   10.9470   61.0980 C.3    67  MET67       0.0387
     59  CG        15.6800   10.8600   62.5480 C.3    67  MET67       0.0595
     60  SD        16.1300   12.4310   63.2550 S.3    67  MET67      -0.1393
     61  CE        16.3330   11.9340   64.9630 C.3    67  MET67       0.0692
     62  N         12.2130    8.4410   65.0200 N.3    69  LEU69      -0.1245
     63  CA        11.9860    9.1100   66.2980 C.3    69  LEU69       0.1561
     64  C         11.6530    8.0480   67.3490 C.2    69  LEU69       0.2260
     65  O         10.8300    7.1610   67.1060 O.2    69  LEU69      -0.2867
     66  CB        10.8360   10.1070   66.1940 C.3    69  LEU69       0.0270
     67  CG        10.5920   10.9830   67.4360 C.3    69  LEU69       0.0019
     68  CD1       11.7300   11.9840   67.6230 C.3    69  LEU69       0.0001
     69  CD2        9.2620   11.6990   67.3360 C.3    69  LEU69       0.0001
     70  N         13.3520   16.0000   71.7660 N.3    81  LEU81      -0.1245
     71  CA        12.9870   14.9870   70.7890 C.3    81  LEU81       0.1561
     72  C         14.1670   14.0430   70.6270 C.2    81  LEU81       0.2260
     73  O         15.2430   14.4680   70.2000 O.2    81  LEU81      -0.2867
     74  CB        12.6440   15.6300   69.4460 C.3    81  LEU81       0.0270
     75  CG        11.4370   16.5700   69.4310 C.3    81  LEU81       0.0019
     76  CD1       11.3900   17.3720   68.1370 C.3    81  LEU81       0.0001
     77  CD2       10.1460   15.7880   69.6190 C.3    81  LEU81       0.0001
     78  N         15.8860   10.6500   68.9390 N.3    83  GLY83      -0.1210
     79  CA        15.8460    9.7800   67.7660 C.3    83  GLY83       0.1956
     80  C         17.1860    9.1560   67.4050 C.2    83  GLY83       0.2612
     81  O         18.1760    9.3130   68.1210 O.2    83  GLY83      -0.2717
     82  N         17.1990    8.4380   66.2860 N.am   84  GLU84      -0.1965
     83  CA        18.3760    7.7110   65.8260 C.3    84  GLU84       0.1733
     84  C         19.4370    8.6940   65.3400 C.2    84  GLU84       0.2616
     85  O         19.1130    9.7060   64.7060 O.2    84  GLU84      -0.2715
     86  CB        17.9850    6.7400   64.7010 C.3    84  GLU84       0.0429
     87  CG        19.0800    5.7660   64.2820 C.3    84  GLU84       0.1163
     88  CD        18.5850    4.6800   63.3340 C.2    84  GLU84       0.3649
     89  OE1       17.5890    4.8980   62.6140 O.co2  84  GLU84      -0.2457
     90  OE2       19.2090    3.6040   63.3040 O.co2  84  GLU84      -0.2457
     91  N         20.6970    8.4070   65.6590 N.am   85  VAL85      -0.1963
     92  CA        21.8090    9.2430   65.2150 C.3    85  VAL85       0.1727
     93  C         22.3550    8.6820   63.9060 C.2    85  VAL85       0.2616
     94  O         22.4370    7.4680   63.7220 O.2    85  VAL85      -0.2715
     95  CB        22.9300    9.3570   66.2950 C.3    85  VAL85       0.0290
     96  CG1       23.5960    8.0190   66.5480 C.3    85  VAL85       0.0023
     97  CG2       23.9680   10.4120   65.8910 C.3    85  VAL85       0.0023
     98  N         22.6820    9.5780   62.9830 N.am   86  TYR86      -0.1974
     99  CA        23.3230    9.2040   61.7280 C.3    86  TYR86       0.1639
    100  C         24.6580    9.9200   61.6430 C.2    86  TYR86       0.2290
    101  O         24.7690   11.0850   62.0200 O.2    86  TYR86      -0.2864
    102  CB        22.4080    9.5280   60.5480 C.3    86  TYR86       0.0560
    103  CG        21.0370    8.9100   60.7290 C.ar   86  TYR86      -0.0198
    104  CD1       20.8820    7.5270   60.8090 C.ar   86  TYR86      -0.0009
    105  CD2       19.9050    9.7020   60.8670 C.ar   86  TYR86      -0.0009
    106  CE1       19.6260    6.9530   60.9990 C.ar   86  TYR86       0.0417
    107  CE2       18.6510    9.1380   61.0540 C.ar   86  TYR86       0.0417
    108  CZ        18.5160    7.7670   61.1230 C.ar   86  TYR86       0.1957
    109  OH        17.2670    7.2200   61.3080 O.3    86  TYR86      -0.2866
    110  N         25.9540   15.4030   55.8860 N.3    90  GLU90      -0.1245
    111  CA        24.9910   15.9070   54.9150 C.3    90  GLU90       0.1567
    112  C         25.3330   15.4210   53.5060 C.2    90  GLU90       0.2260
    113  O         26.5130   15.3370   53.1400 O.2    90  GLU90      -0.2867
    114  CB        24.9410   17.4380   54.9720 C.3    90  GLU90       0.0388
    115  CG        24.3900   17.9870   56.2940 C.3    90  GLU90       0.1160
    116  CD        24.5800   19.4920   56.4490 C.2    90  GLU90       0.3649
    117  OE1       24.7620   20.1890   55.4300 O.co2  90  GLU90      -0.2457
    118  OE2       24.5410   19.9830   57.5970 O.co2  90  GLU90      -0.2457
    119  N         20.3850   20.2730   53.4800 N.3   133  GLU133     -0.1245
    120  CA        20.7510   20.1480   54.9030 C.3   133  GLU133      0.1567
    121  C         19.9320   19.1040   55.6570 C.2   133  GLU133      0.2260
    122  O         20.3900   18.5920   56.6750 O.2   133  GLU133     -0.2867
    123  CB        20.5810   21.4860   55.6400 C.3   133  GLU133      0.0388
    124  CG        21.8210   22.3560   55.6980 C.3   133  GLU133      0.1160
    125  CD        21.6790   23.4910   56.7050 C.2   133  GLU133      0.3649
    126  OE1       20.5270   23.8920   56.9940 O.co2 133  GLU133     -0.2457
    127  OE2       22.7170   23.9740   57.2120 O.co2 133  GLU133     -0.2457
    128  N         20.5540   13.5790   55.4770 N.3   136  LEU136     -0.1245
    129  CA        21.7410   13.0060   56.1120 C.3   136  LEU136      0.1561
    130  C         22.0420   11.6120   55.5650 C.2   136  LEU136      0.2260
    131  O         21.1460   10.9000   55.1150 O.2   136  LEU136     -0.2867
    132  CB        21.5620   12.9260   57.6340 C.3   136  LEU136      0.0270
    133  CG        21.2930   14.2360   58.3830 C.3   136  LEU136      0.0019
    134  CD1       21.2780   13.9920   59.8920 C.3   136  LEU136      0.0001
    135  CD2       22.3290   15.2990   58.0230 C.3   136  LEU136      0.0001
    136  N         15.6170   14.3020   57.7130 N.3   149  ILE149     -0.1231
    137  CA        15.3630   14.7970   59.0650 C.3   149  ILE149      0.1692
    138  C         14.3560   15.9540   59.0440 C.2   149  ILE149      0.2592
    139  O         14.2360   16.6700   58.0400 O.2   149  ILE149     -0.2718
    140  CB        16.6730   15.2380   59.7880 C.3   149  ILE149      0.0266
    141  CG1       17.3770   16.3940   59.0540 C.3   149  ILE149      0.0019
    142  CG2       17.6360   14.0630   59.9230 C.3   149  ILE149      0.0020
    143  CD1       18.5540   16.9800   59.8230 C.3   149  ILE149      0.0001
    144  N         13.6290   16.0980   60.1490 N.am  150  ASP150     -0.1974
    145  CA        12.7330   17.2390   60.4260 C.3   150  ASP150      0.1709
    146  C         11.3080   17.1680   59.8350 C.2   150  ASP150      0.2293
    147  O         10.5900   18.1690   59.8690 O.2   150  ASP150     -0.2864
    148  CB        13.3810   18.5870   60.0430 C.3   150  ASP150      0.1436
    149  CG        14.5300   18.9890   60.9630 C.2   150  ASP150      0.3671
    150  OD1       14.7000   18.4080   62.0620 O.co2 150  ASP150     -0.2456
    151  OD2       15.2630   19.9200   60.5750 O.co2 150  ASP150     -0.2456
    152  N          8.0210   18.9790   61.8430 N.3   153  LEU153     -0.1245
    153  CA         8.3670   20.0460   62.7910 C.3   153  LEU153      0.1561
    154  C          7.7390   21.4060   62.4680 C.2   153  LEU153      0.2260
    155  O          7.3000   22.1120   63.3780 O.2   153  LEU153     -0.2867
    156  CB         9.8870   20.1950   62.9310 C.3   153  LEU153      0.0270
    157  CG        10.6120   19.0940   63.7140 C.3   153  LEU153      0.0019
    158  CD1       12.0530   19.5120   63.9940 C.3   153  LEU153      0.0001
    159  CD2        9.8960   18.7720   65.0150 C.3   153  LEU153      0.0001
@<TRIPOS>BOND
     1   113   112    2
     2   119   120    1
     3   112   111    1
     4   120   123    1
     5   120   121    1
     6   111   114    1
     7   111   110    1
     8   114   115    1
     9   131   130    2
    10   117   116   ar
    11   128   129    1
    12   130   129    1
    13   123   124    1
    14   121   122    2
    15   124   125    1
    16   129   132    1
    17   115   116    1
    18   116   118   ar
    19   125   126   ar
    20   125   127   ar
    21   132   133    1
    22   136   137    1
    23   135   133    1
    24   139   138    2
    25   133   134    1
    26   138   137    1
    27   138   144   am
    28   141   140    1
    29   141   143    1
    30   137   140    1
    31    54    55    1
    32   140   142    1
    33   146   147    2
    34   146   145    1
    35   148   145    1
    36   148   149    1
    37   144   145    1
    38    55    58    1
    39    55    56    1
    40   102   103    1
    41   102    99    1
    42   151   149   ar
    43   103   104   ar
    44   103   105   ar
    45   104   106   ar
    46   105   107   ar
    47   149   150   ar
    48   106   108   ar
    49   107   108   ar
    50    58    59    1
    51   108   109    1
    52    56    57    2
    53   100    99    1
    54   100   101    2
    55    99    98    1
    56   152   153    1
    57   154   153    1
    58   154   155    2
    59    59    60    1
    60    89    88   ar
    61   153   156    1
    62   156   157    1
    63    98    93   am
    64    16    15    2
    65    60    61    1
    66    90    88   ar
    67    88    87    1
    68    23    24    1
    69    23    22    1
    70    24    25    2
    71   157   158    1
    72   157   159    1
    73    94    93    2
    74    93    92    1
    75    53    52    1
    76    87    86    1
    77    15    22   am
    78    15    14    1
    79    86    83    1
    80    85    84    2
    81    62    63    1
    82     4     3    2
    83    92    91    1
    84    92    95    1
    85    84    91   am
    86    84    83    1
    87    52    51    1
    88    17    18    1
    89    17    14    1
    90    13    14    1
    91    13    11   am
    92    18    19    1
    93    83    82    1
    94    21    20    1
    95    97    95    1
    96    10    11    1
    97    10     9    1
    98    11    12    2
    99    66    63    1
   100    66    67    1
   101     3     9   am
   102     3     2    1
   103    82    80   am
   104    95    96    1
   105    63    64    1
   106    32    30    1
   107    51    50    1
   108     5     2    1
   109     5     6    1
   110    19    20    1
   111     7     6    1
   112     8     6    1
   113     2     1    1
   114    31    30    1
   115    65    64    2
   116    30    27    1
   117    69    67    1
   118    80    79    1
   119    80    81    2
   120    67    68    1
   121    37    34    1
   122    79    78    1
   123    50    49    1
   124    76    75    1
   125    49    46    1
   126    27    26    1
   127    27    28    1
   128    34    33    1
   129    34    35    1
   130    29    28    2
   131    75    74    1
   132    75    77    1
   133    36    35    2
   134    74    71    1
   135    46    45    1
   136    46    47    1
   137    35    38   am
   138    45    40   am
   139    73    72    2
   140    38    39    1
   141    40    41    2
   142    40    39    1
   143    72    71    1
   144    47    48    2
   145    71    70    1
   146    39    42    1
   147    42    44    1
   148    42    43    1
