@<TRIPOS>MOLECULE
tmp/3i7cA00.pdb
 148 137 0 0 0
SMALL
GASTEIGER

@<TRIPOS>ATOM
      1  N         21.4450   16.8700   67.5070 N.3    15  LEU15      -0.1231
      2  CA        21.4990   16.4250   66.1080 C.3    15  LEU15       0.1693
      3  C         21.3570   17.5870   65.1360 C.2    15  LEU15       0.2593
      4  O         21.9820   17.5970   64.0720 O.2    15  LEU15      -0.2718
      5  CB        20.4230   15.3840   65.8190 C.3    15  LEU15       0.0284
      6  CG        20.6390   14.0490   66.5230 C.3    15  LEU15       0.0019
      7  CD1       19.4320   13.1580   66.3450 C.3    15  LEU15       0.0001
      8  CD2       21.9070   13.3610   66.0130 C.3    15  LEU15       0.0001
      9  N         20.5300   18.5610   65.4980 N.am   16  GLY16      -0.1942
     10  CA        20.3480   19.7430   64.6690 C.3    16  GLY16       0.2014
     11  C         19.0550   20.4830   64.9440 C.2    16  GLY16       0.2639
     12  O         18.4530   20.3520   66.0020 O.2    16  GLY16      -0.2714
     13  N         18.6340   21.2660   63.9640 N.am   17  LYS17      -0.1963
     14  CA        17.5210   22.1800   64.1270 C.3    17  LYS17       0.1728
     15  C         16.5720   21.9520   62.9750 C.2    17  LYS17       0.2616
     16  O         16.9960   21.8740   61.8240 O.2    17  LYS17      -0.2715
     17  CB        18.0330   23.6300   64.1270 C.3    17  LYS17       0.0311
     18  CG        16.9480   24.7090   64.2820 C.3    17  LYS17       0.0038
     19  CD        16.1990   24.5820   65.6130 C.3    17  LYS17       0.0206
     20  CE        15.1100   25.6440   65.7770 C.3    17  LYS17       0.1093
     21  NZ        14.0160   25.5300   64.7690 N.3    17  LYS17      -0.1314
     22  N         15.2930   21.8080   63.2870 N.am   18  GLY18      -0.1955
     23  CA        14.2690   21.7060   62.2580 C.3    18  GLY18       0.1869
     24  C         13.0820   22.5630   62.6270 C.2    18  GLY18       0.2309
     25  O         13.1280   23.3300   63.5920 O.2    18  GLY18      -0.2863
     26  N         16.5370   19.2420   67.7430 N.3    23  VAL23      -0.1245
     27  CA        16.4110   17.8060   67.7470 C.3    23  VAL23       0.1561
     28  C         17.6500   17.2470   68.4100 C.2    23  VAL23       0.2260
     29  O         18.7650   17.5160   67.9740 O.2    23  VAL23      -0.2867
     30  CB        16.2800   17.2490   66.3220 C.3    23  VAL23       0.0252
     31  CG1       16.1660   15.7350   66.3640 C.3    23  VAL23       0.0019
     32  CG2       15.0720   17.8590   65.6370 C.3    23  VAL23       0.0019
     33  N         15.4810   10.1650   68.4030 N.3    36  ALA36      -0.1245
     34  CA        15.6320   11.5750   68.0700 C.3    36  ALA36       0.1562
     35  C         14.4400   12.2960   68.6770 C.2    36  ALA36       0.2260
     36  O         13.2890   11.9260   68.4270 O.2    36  ALA36      -0.2867
     37  CB        15.6790   11.7650   66.5630 C.3    36  ALA36       0.0290
     38  N         12.4760   15.7900   69.1270 N.3    38  LYS38      -0.1245
     39  CA        12.2180   17.1870   68.7970 C.3    38  LYS38       0.1561
     40  C         11.6900   17.8640   70.0490 C.2    38  LYS38       0.2260
     41  O         10.7100   17.4140   70.6430 O.2    38  LYS38      -0.2867
     42  CB        11.2210   17.3270   67.6490 C.3    38  LYS38       0.0271
     43  CG        10.9520   18.7870   67.2440 C.3    38  LYS38       0.0035
     44  CD        10.4270   18.9060   65.8220 C.3    38  LYS38       0.0206
     45  CE        11.5450   18.9500   64.8060 C.3    38  LYS38       0.1093
     46  NZ        11.0640   19.3150   63.4490 N.3    38  LYS38      -0.1314
     47  N          7.0870    7.7440   65.0800 N.3    71  LEU71      -0.1245
     48  CA         6.9550    8.4490   66.3410 C.3    71  LEU71       0.1561
     49  C          6.6830    7.4070   67.4180 C.2    71  LEU71       0.2260
     50  O          5.8200    6.5490   67.2320 O.2    71  LEU71      -0.2867
     51  CB         5.7860    9.4310   66.2780 C.3    71  LEU71       0.0270
     52  CG         5.5410   10.2640   67.5420 C.3    71  LEU71       0.0019
     53  CD1        6.6350   11.3020   67.6980 C.3    71  LEU71       0.0001
     54  CD2        4.1630   10.9340   67.5020 C.3    71  LEU71       0.0001
     55  N          8.8050   15.3640   71.4890 N.3    83  LEU83      -0.1245
     56  CA         8.3410   14.3600   70.5400 C.3    83  LEU83       0.1561
     57  C          9.4950   13.3880   70.2800 C.2    83  LEU83       0.2260
     58  O         10.5440   13.7800   69.7800 O.2    83  LEU83      -0.2867
     59  CB         7.8720   15.0220   69.2380 C.3    83  LEU83       0.0270
     60  CG         6.7240   16.0450   69.3540 C.3    83  LEU83       0.0019
     61  CD1        7.1500   17.2810   70.1060 C.3    83  LEU83       0.0001
     62  CD2        6.1970   16.4550   67.9740 C.3    83  LEU83       0.0001
     63  N         11.0350   10.2450   68.4260 N.3    85  GLY85      -0.1210
     64  CA        10.9120    9.4450   67.2190 C.3    85  GLY85       0.1956
     65  C         12.1800    8.6880   66.9040 C.2    85  GLY85       0.2612
     66  O         13.1610    8.7660   67.6360 O.2    85  GLY85      -0.2717
     67  N         12.1410    7.9430   65.8030 N.am   86  GLU86      -0.1965
     68  CA        13.2470    7.1000   65.3900 C.3    86  GLU86       0.1733
     69  C         14.3620    7.9710   64.8050 C.2    86  GLU86       0.2616
     70  O         14.0810    8.9190   64.0660 O.2    86  GLU86      -0.2715
     71  CB        12.7420    6.0840   64.3600 C.3    86  GLU86       0.0429
     72  CG        13.7340    5.0180   63.9570 C.3    86  GLU86       0.1163
     73  CD        13.1640    4.0060   62.9640 C.2    86  GLU86       0.3649
     74  OE1       12.0290    4.1850   62.4470 O.co2  86  GLU86      -0.2457
     75  OE2       13.8770    3.0270   62.6780 O.co2  86  GLU86      -0.2457
     76  N         15.6110    7.6530   65.1530 N.am   87  VAL87      -0.1963
     77  CA        16.7810    8.3800   64.6460 C.3    87  VAL87       0.1727
     78  C         17.1660    7.8320   63.2880 C.2    87  VAL87       0.2616
     79  O         17.3000    6.6190   63.1310 O.2    87  VAL87      -0.2715
     80  CB        18.0460    8.1890   65.5310 C.3    87  VAL87       0.0290
     81  CG1       19.1680    9.1350   65.0690 C.3    87  VAL87       0.0023
     82  CG2       17.7420    8.4220   66.9730 C.3    87  VAL87       0.0023
     83  N         17.3600    8.7230   62.3220 N.am   88  TYR88      -0.1974
     84  CA        17.8890    8.3530   61.0160 C.3    88  TYR88       0.1639
     85  C         19.2530    8.9890   60.8320 C.2    88  TYR88       0.2290
     86  O         19.4810   10.1130   61.2630 O.2    88  TYR88      -0.2864
     87  CB        16.9110    8.7490   59.9060 C.3    88  TYR88       0.0560
     88  CG        15.5350    8.1790   60.1720 C.ar   88  TYR88      -0.0198
     89  CD1       15.3580    6.8160   60.3270 C.ar   88  TYR88      -0.0009
     90  CD2       14.4330    9.0020   60.3350 C.ar   88  TYR88      -0.0009
     91  CE1       14.1180    6.2840   60.5990 C.ar   88  TYR88       0.0417
     92  CE2       13.1850    8.4710   60.6120 C.ar   88  TYR88       0.0417
     93  CZ        13.0340    7.1090   60.7370 C.ar   88  TYR88       0.1957
     94  OH        11.8050    6.5630   61.0320 O.3    88  TYR88      -0.2866
     95  N         21.1340   11.4340   56.7470 N.3    91  GLY91      -0.1210
     96  CA        21.1740   12.8670   56.4720 C.3    91  GLY91       0.1956
     97  C         20.0860   13.3160   55.5170 C.2    91  GLY91       0.2611
     98  O         19.2530   12.5200   55.0910 O.2    91  GLY91      -0.2717
     99  N         20.1020   14.6000   55.1810 N.am   92  GLU92      -0.1979
    100  CA        19.1560   15.1700   54.2280 C.3    92  GLU92       0.1602
    101  C         19.4210   14.6700   52.8100 C.2    92  GLU92       0.2287
    102  O         20.5720   14.6000   52.3760 O.2    92  GLU92      -0.2864
    103  CB        19.2060   16.6990   54.2940 C.3    92  GLU92       0.0415
    104  CG        18.6010   17.2490   55.5810 C.3    92  GLU92       0.1163
    105  CD        18.8470   18.7400   55.7960 C.2    92  GLU92       0.3649
    106  OE1       19.1090   19.4780   54.8130 O.co2  92  GLU92      -0.2457
    107  OE2       18.7470   19.1760   56.9650 O.co2  92  GLU92      -0.2457
    108  N         14.5870   19.4830   53.0050 N.3   134  GLU134     -0.1245
    109  CA        15.1360   19.2120   54.3460 C.3   134  GLU134      0.1567
    110  C         14.2280   18.3320   55.2230 C.2   134  GLU134      0.2260
    111  O         14.6800   17.8190   56.2280 O.2   134  GLU134     -0.2867
    112  CB        15.5280   20.5120   55.0680 C.3   134  GLU134      0.0388
    113  CG        14.3920   21.3200   55.6820 C.3   134  GLU134      0.1160
    114  CD        14.8860   22.6060   56.3490 C.2   134  GLU134      0.3649
    115  OE1       15.8210   23.2500   55.8050 O.co2 134  GLU134     -0.2457
    116  OE2       14.3430   22.9710   57.4190 O.co2 134  GLU134     -0.2457
    117  N         14.7130   12.7910   54.8710 N.3   137  LEU137     -0.1245
    118  CA        15.9310   12.2250   55.4250 C.3   137  LEU137      0.1561
    119  C         16.1440   10.8520   54.8320 C.2   137  LEU137      0.2260
    120  O         15.1950   10.1960   54.4210 O.2   137  LEU137     -0.2867
    121  CB        15.8340   12.1140   56.9420 C.3   137  LEU137      0.0270
    122  CG        15.6000   13.4000   57.7280 C.3   137  LEU137      0.0019
    123  CD1       15.6680   13.0810   59.2230 C.3   137  LEU137      0.0001
    124  CD2       16.6060   14.4950   57.3490 C.3   137  LEU137      0.0001
    125  N          9.9580   13.6520   57.5130 N.3   150  ILE150     -0.1231
    126  CA         9.7820   14.1610   58.8710 C.3   150  ILE150      0.1692
    127  C          8.7960   15.3210   58.8940 C.2   150  ILE150      0.2592
    128  O          8.6290   16.0220   57.8890 O.2   150  ILE150     -0.2718
    129  CB        11.1240   14.6150   59.4970 C.3   150  ILE150      0.0266
    130  CG1       11.8530   15.6340   58.6140 C.3   150  ILE150      0.0019
    131  CG2       12.0510   13.4140   59.7250 C.3   150  ILE150      0.0020
    132  CD1       13.1180   16.2100   59.2380 C.3   150  ILE150      0.0001
    133  N          8.1710   15.5070   60.0570 N.am  151  ASP151     -0.1974
    134  CA         7.3060   16.6520   60.3880 C.3   151  ASP151      0.1709
    135  C          5.8630   16.5490   59.8800 C.2   151  ASP151      0.2293
    136  O          5.1200   17.5260   59.9510 O.2   151  ASP151     -0.2864
    137  CB         7.9170   17.9970   59.9500 C.3   151  ASP151      0.1436
    138  CG         9.0490   18.4640   60.8550 C.2   151  ASP151      0.3671
    139  OD1        9.1320   18.0350   62.0300 O.co2 151  ASP151     -0.2456
    140  OD2        9.8510   19.2960   60.3800 O.co2 151  ASP151     -0.2456
    141  N          2.7150   18.1970   62.0610 N.3   154  LEU154     -0.1245
    142  CA         3.1110   19.2000   63.0460 C.3   154  LEU154      0.1561
    143  C          2.5480   20.5750   62.7270 C.2   154  LEU154      0.2260
    144  O          2.1930   21.3250   63.6380 O.2   154  LEU154     -0.2867
    145  CB         4.6330   19.3090   63.1470 C.3   154  LEU154      0.0270
    146  CG         5.3230   18.3270   64.0950 C.3   154  LEU154      0.0019
    147  CD1        4.9090   16.9070   63.8070 C.3   154  LEU154      0.0001
    148  CD2        6.8380   18.4960   63.9930 C.3   154  LEU154      0.0001
@<TRIPOS>BOND
     1   102   101    2
     2   101   100    1
     3   108   109    1
     4   100   103    1
     5   100    99    1
     6   103   104    1
     7   109   112    1
     8   109   110    1
     9   120   119    2
    10   106   105   ar
    11   119   118    1
    12   117   118    1
    13   112   113    1
    14    98    97    2
    15    99    97   am
    16   110   111    2
    17   118   121    1
    18    97    96    1
    19   104   105    1
    20   113   114    1
    21   105   107   ar
    22   115   114   ar
    23   114   116   ar
    24    96    95    1
    25   121   122    1
    26   124   122    1
    27   125   126    1
    28   122   123    1
    29   128   127    2
    30   130   132    1
    31   130   129    1
    32   126   127    1
    33   126   129    1
    34   127   133   am
    35   129   131    1
    36   135   136    2
    37   135   134    1
    38    87    88    1
    39    87    84    1
    40   137   134    1
    41   137   138    1
    42   133   134    1
    43    88    89   ar
    44    88    90   ar
    45    89    91   ar
    46    90    92   ar
    47   140   138   ar
    48    91    93   ar
    49    92    93   ar
    50    93    94    1
    51    85    84    1
    52    85    86    2
    53   138   139   ar
    54    84    83    1
    55    16    15    2
    56   141   142    1
    57    23    24    1
    58    23    22    1
    59    83    78   am
    60    74    73   ar
    61    24    25    2
    62    75    73   ar
    63   143   142    1
    64   143   144    2
    65    73    72    1
    66    15    22   am
    67    15    14    1
    68   142   145    1
    69    79    78    2
    70   145   146    1
    71    78    77    1
    72    46    45    1
    73   147   146    1
    74    72    71    1
    75    13    14    1
    76    13    11   am
    77   148   146    1
    78    70    69    2
    79     4     3    2
    80    17    14    1
    81    17    18    1
    82    18    19    1
    83    71    68    1
    84    77    76    1
    85    77    80    1
    86    10    11    1
    87    10     9    1
    88    21    20    1
    89    69    76   am
    90    69    68    1
    91    45    44    1
    92    11    12    2
    93    81    80    1
    94    47    48    1
    95     3     9   am
    96     3     2    1
    97    68    67    1
    98    80    82    1
    99    19    20    1
   100    32    30    1
   101    67    65   am
   102     5     2    1
   103     5     6    1
   104    44    43    1
   105     8     6    1
   106     2     1    1
   107    51    48    1
   108    51    52    1
   109    30    31    1
   110    30    27    1
   111    48    49    1
   112     7     6    1
   113    37    34    1
   114    65    64    1
   115    65    66    2
   116    64    63    1
   117    50    49    2
   118    43    42    1
   119    54    52    1
   120    52    53    1
   121    42    39    1
   122    26    27    1
   123    27    28    1
   124    62    60    1
   125    29    28    2
   126    34    33    1
   127    34    35    1
   128    36    35    2
   129    39    38    1
   130    39    40    1
   131    59    60    1
   132    59    56    1
   133    60    61    1
   134    58    57    2
   135    40    41    2
   136    57    56    1
   137    56    55    1
