@<TRIPOS>MOLECULE
tmp/3i7gA00.pdb
 139 138 0 0 0
SMALL
GASTEIGER

@<TRIPOS>ATOM
      1  N         -9.1950   32.5840   62.1780 N.3    80  GLY80      -0.1210
      2  CA        -7.7460   32.4670   62.1290 C.3    80  GLY80       0.1956
      3  C         -7.2790   31.2030   61.4270 C.2    80  GLY80       0.2612
      4  O         -7.6890   30.9210   60.3050 O.2    80  GLY80      -0.2717
      5  N         -6.3980   30.4430   62.0780 N.am   81  LEU81      -0.1965
      6  CA        -5.9500   29.1700   61.5160 C.3    81  LEU81       0.1728
      7  C         -7.1400   28.2300   61.3970 C.2    81  LEU81       0.2616
      8  O         -7.9010   28.0850   62.3590 O.2    81  LEU81      -0.2715
      9  CB        -4.9260   28.5220   62.4360 C.3    81  LEU81       0.0311
     10  CG        -3.7670   29.3880   62.9010 C.3    81  LEU81       0.0022
     11  CD1       -3.0260   28.6980   64.0480 C.3    81  LEU81       0.0001
     12  CD2       -2.8430   29.6710   61.7180 C.3    81  LEU81       0.0001
     13  N         -7.2980   27.6020   60.2330 N.am   82  LEU82      -0.1963
     14  CA        -8.4220   26.7080   59.9630 C.3    82  LEU82       0.1728
     15  C         -7.9910   25.2460   59.9780 C.2    82  LEU82       0.2616
     16  O         -8.7460   24.3610   60.3870 O.2    82  LEU82      -0.2715
     17  CB        -8.9800   26.9740   58.5640 C.3    82  LEU82       0.0311
     18  CG        -9.3890   28.3640   58.1050 C.3    82  LEU82       0.0022
     19  CD1       -9.9680   28.2210   56.6870 C.3    82  LEU82       0.0001
     20  CD2      -10.4260   28.9160   59.0710 C.3    82  LEU82       0.0001
     21  N         -6.7790   25.0050   59.5070 N.am   83  ALA83      -0.1977
     22  CA        -6.3120   23.6550   59.2470 C.3    83  ALA83       0.1597
     23  C         -4.8550   23.7250   58.8520 C.2    83  ALA83       0.2287
     24  O         -4.3780   24.7920   58.4480 O.2    83  ALA83      -0.2864
     25  CB        -7.1300   23.0130   58.0800 C.3    83  ALA83       0.0319
     26  N        -16.9210   27.0190   56.6740 N.3   111  TYR111     -0.1241
     27  CA       -15.8410   26.5920   55.7880 C.3   111  TYR111      0.1605
     28  C        -16.2150   25.2860   55.1430 C.2   111  TYR111      0.2264
     29  O        -16.5760   24.3150   55.8030 O.2   111  TYR111     -0.2867
     30  CB       -14.4820   26.5130   56.5170 C.3   111  TYR111      0.0534
     31  CG       -14.0010   27.8740   56.9360 C.ar  111  TYR111     -0.0201
     32  CD1      -14.1790   28.3300   58.2310 C.ar  111  TYR111     -0.0009
     33  CD2      -13.4160   28.7320   56.0090 C.ar  111  TYR111     -0.0009
     34  CE1      -13.7700   29.6100   58.6060 C.ar  111  TYR111      0.0417
     35  CE2      -13.0040   30.0060   56.3680 C.ar  111  TYR111      0.0417
     36  CZ       -13.1840   30.4390   57.6670 C.ar  111  TYR111      0.1957
     37  OH       -12.7680   31.7100   58.0090 O.3   111  TYR111     -0.2866
     38  N        -13.3410   21.8870   50.1200 N.3   115  LEU115     -0.1231
     39  CA       -12.3780   22.8250   49.5530 C.3   115  LEU115      0.1693
     40  C        -11.1470   22.9850   50.4560 C.2   115  LEU115      0.2591
     41  O        -10.0290   23.0000   49.9620 O.2   115  LEU115     -0.2718
     42  CB       -13.0320   24.1890   49.3110 C.3   115  LEU115      0.0284
     43  CG       -14.1080   24.2890   48.2030 C.3   115  LEU115      0.0019
     44  CD1      -14.7890   25.6840   48.2450 C.3   115  LEU115      0.0001
     45  CD2      -13.5450   24.0310   46.7890 C.3   115  LEU115      0.0001
     46  N        -11.3460   23.1310   51.7760 N.am  116  VAL116     -0.1980
     47  CA       -10.1910   23.1940   52.6820 C.3   116  VAL116      0.1595
     48  C         -9.3610   21.9210   52.6540 C.2   116  VAL116      0.2287
     49  O         -8.1290   21.9730   52.6280 O.2   116  VAL116     -0.2864
     50  CB       -10.6030   23.4850   54.1410 C.3   116  VAL116      0.0276
     51  CG1       -9.3740   23.4300   55.0580 C.3   116  VAL116      0.0022
     52  CG2      -11.3150   24.8600   54.2260 C.3   116  VAL116      0.0022
     53  N         -7.1540   21.5880   49.5090 N.3   119  HIS119     -0.1226
     54  CA        -5.9940   22.4430   49.7520 C.3   119  HIS119      0.1752
     55  C         -4.9960   21.7600   50.6790 C.2   119  HIS119      0.2595
     56  O         -3.8020   21.6570   50.3590 O.2   119  HIS119     -0.2718
     57  CB        -6.4450   23.7850   50.3800 C.3   119  HIS119      0.0759
     58  CG        -5.3070   24.6650   50.8060 C.ar  119  HIS119      0.0818
     59  ND1       -4.8730   25.7380   50.0540 N.ar  119  HIS119     -0.2268
     60  CD2       -4.5200   24.6350   51.9090 C.ar  119  HIS119      0.1154
     61  CE1       -3.8660   26.3330   50.6810 C.ar  119  HIS119      0.1986
     62  NE2       -3.6410   25.6890   51.8120 N.ar  119  HIS119     -0.2212
     63  N         -5.4590   21.3290   51.8510 N.am  120  GLU120     -0.1979
     64  CA        -4.5820   20.6060   52.7850 C.3   120  GLU120      0.1602
     65  C         -3.9030   19.3830   52.1710 C.2   120  GLU120      0.2287
     66  O         -2.7230   19.1440   52.4110 O.2   120  GLU120     -0.2864
     67  CB        -5.3370   20.1800   54.0550 C.3   120  GLU120      0.0415
     68  CG        -5.8500   21.3730   54.8680 C.3   120  GLU120      0.1163
     69  CD        -4.7680   22.4080   55.1440 C.2   120  GLU120      0.3649
     70  OE1       -3.6250   21.9950   55.4130 O.co2 120  GLU120     -0.2457
     71  OE2       -5.0390   23.6370   55.0810 O.co2 120  GLU120     -0.2457
     72  N          2.4690   26.8790   49.4530 N.3   129  HIS129     -0.1241
     73  CA         1.5310   27.8800   48.9810 C.3   129  HIS129      0.1621
     74  C          1.9390   28.4710   47.6330 C.2   129  HIS129      0.2264
     75  O          3.1240   28.5230   47.3130 O.2   129  HIS129     -0.2867
     76  CB         1.3570   28.9670   50.0420 C.3   129  HIS129      0.0745
     77  CG         0.6250   28.4870   51.2470 C.ar  129  HIS129      0.0817
     78  ND1        0.9480   28.8840   52.5270 N.ar  129  HIS129     -0.2268
     79  CD2       -0.4140   27.6260   51.3670 C.ar  129  HIS129      0.1154
     80  CE1        0.1160   28.3200   53.3840 C.ar  129  HIS129      0.1986
     81  NE2       -0.7060   27.5340   52.7080 N.ar  129  HIS129     -0.2212
     82  N         -5.1180   30.0820   42.4380 N.3   135  ALA135     -0.1231
     83  CA        -4.7240   28.6990   42.7460 C.3   135  ALA135      0.1694
     84  C         -5.4200   28.1170   43.9870 C.2   135  ALA135      0.2591
     85  O         -5.7060   28.8390   44.9460 O.2   135  ALA135     -0.2718
     86  CB        -3.2110   28.6300   42.9350 C.3   135  ALA135      0.0304
     87  N         -5.6380   26.7990   44.0040 N.am  136  LEU136     -0.1980
     88  CA        -6.2220   26.1540   45.1760 C.3   136  LEU136      0.1596
     89  C         -5.2380   26.2900   46.3320 C.2   136  LEU136      0.2287
     90  O         -5.6430   26.4050   47.4990 O.2   136  LEU136     -0.2864
     91  CB        -6.5120   24.6630   44.9000 C.3   136  LEU136      0.0297
     92  CG        -6.9260   23.7640   46.0750 C.3   136  LEU136      0.0022
     93  CD1       -8.2720   24.1280   46.5830 C.3   136  LEU136      0.0001
     94  CD2       -6.9480   22.2870   45.6970 C.3   136  LEU136      0.0001
     95  N         -3.3480   28.8120   46.9650 N.3   138  PHE138     -0.1228
     96  CA        -3.2690   30.1740   47.4980 C.3   138  PHE138      0.1721
     97  C         -3.6340   30.0880   48.9940 C.2   138  PHE138      0.2437
     98  O         -4.5390   29.3650   49.3860 O.2   138  PHE138     -0.2733
     99  CB        -4.2080   31.1060   46.7370 C.3   138  PHE138      0.0547
    100  CG        -4.0140   32.5750   47.0440 C.ar  138  PHE138     -0.0202
    101  CD1       -2.8840   33.2430   46.6110 C.ar  138  PHE138     -0.0042
    102  CD2       -4.9740   33.2790   47.7600 C.ar  138  PHE138     -0.0042
    103  CE1       -2.7070   34.5960   46.8840 C.ar  138  PHE138     -0.0003
    104  CE2       -4.8070   34.6320   48.0290 C.ar  138  PHE138     -0.0003
    105  CZ        -3.6780   35.2860   47.5870 C.ar  138  PHE138     -0.0000
    106  N         -2.9230   30.8240   49.8380 N.am  139  PRO139     -0.2718
    107  CA        -3.0630   30.5460   51.2720 C.3   139  PRO139      0.1535
    108  C         -4.3360   31.0990   51.9220 C.2   139  PRO139      0.2598
    109  O         -4.5370   30.8490   53.1060 O.2   139  PRO139     -0.2715
    110  CB        -1.8460   31.2340   51.8910 C.3   139  PRO139      0.0310
    111  CG        -1.0700   31.8470   50.7420 C.3   139  PRO139      0.0237
    112  CD        -1.9740   31.9080   49.5630 C.3   139  PRO139      0.0939
    113  N         -5.1910   31.7950   51.1860 N.am  140  ILE140     -0.1964
    114  CA        -6.3990   32.3740   51.8110 C.3   140  ILE140      0.1727
    115  C         -7.6810   31.7110   51.3090 C.2   140  ILE140      0.2616
    116  O         -7.8450   31.5230   50.1040 O.2   140  ILE140     -0.2715
    117  CB        -6.4640   33.9180   51.5910 C.3   140  ILE140      0.0290
    118  CG1       -5.2340   34.5850   52.2130 C.3   140  ILE140      0.0022
    119  CG2       -7.7180   34.5100   52.2170 C.3   140  ILE140      0.0023
    120  CD1       -5.2000   36.0810   52.0370 C.3   140  ILE140      0.0001
    121  N         -8.5860   31.3630   52.2280 N.am  141  TYR141     -0.1960
    122  CA        -9.8130   30.6490   51.8730 C.3   141  TYR141      0.1771
    123  C        -10.7700   31.4960   51.0520 C.2   141  TYR141      0.2620
    124  O        -11.0290   32.6430   51.3760 O.2   141  TYR141     -0.2715
    125  CB       -10.5540   30.1290   53.1170 C.3   141  TYR141      0.0574
    126  CG       -11.8910   29.4720   52.8050 C.ar  141  TYR141     -0.0198
    127  CD1      -11.9740   28.1040   52.5100 C.ar  141  TYR141     -0.0009
    128  CD2      -13.0760   30.2050   52.8440 C.ar  141  TYR141     -0.0009
    129  CE1      -13.2150   27.4990   52.2360 C.ar  141  TYR141      0.0417
    130  CE2      -14.3120   29.6160   52.5890 C.ar  141  TYR141      0.0417
    131  CZ       -14.3710   28.2600   52.2790 C.ar  141  TYR141      0.1957
    132  OH       -15.5960   27.6890   52.0370 O.3   141  TYR141     -0.2866
    133  N        -11.2910   30.9190   49.9810 N.am  142  THR142     -0.1951
    134  CA       -12.4200   31.5230   49.2830 C.3   142  THR142      0.1897
    135  C        -13.2900   30.3970   48.7420 C.2   142  THR142      0.2313
    136  O        -12.7790   29.3230   48.4010 O.2   142  THR142     -0.2863
    137  CB       -11.9300   32.5460   48.2000 C.3   142  THR142      0.1794
    138  OG1      -12.9360   33.5420   47.9720 O.3   142  THR142     -0.2208
    139  CG2      -11.5850   31.8660   46.9140 C.3   142  THR142      0.0378
@<TRIPOS>BOND
     1    82    83    1
     2    83    86    1
     3    83    84    1
     4    84    87   am
     5    84    85    2
     6    87    88    1
     7    91    88    1
     8    91    92    1
     9    88    89    1
    10    94    92    1
    11    92    93    1
    12    89    90    2
    13   101   103   ar
    14   101   100   ar
    15    99   100    1
    16    99    96    1
    17    45    43    1
    18   103   105   ar
    19   139   137    1
    20    95    96    1
    21   100   102   ar
    22    75    74    2
    23    96    97    1
    24   105   104   ar
    25    74    73    1
    26   102   104   ar
    27   138   137    1
    28   137   134    1
    29    43    44    1
    30    43    42    1
    31   136   135    2
    32   135   134    1
    33    73    72    1
    34    73    76    1
    35    97    98    2
    36    97   106   am
    37   134   133    1
    38    42    39    1
    39    53    54    1
    40    39    38    1
    41    39    40    1
    42   112   106    1
    43   112   111    1
    44    54    57    1
    45    54    55    1
    46   106   107    1
    47    41    40    2
    48   133   123   am
    49    76    77    1
    50    59    61   ar
    51    59    58   ar
    52   116   115    2
    53    56    55    2
    54    57    58    1
    55    40    46   am
    56    55    63   am
    57    61    62   ar
    58   111   110    1
    59    58    60   ar
    60   123   124    2
    61   123   122    1
    62   113   114    1
    63   113   108   am
    64    77    79   ar
    65    77    78   ar
    66   107   110    1
    67   107   108    1
    68   115   114    1
    69   115   121   am
    70    79    81   ar
    71   117   114    1
    72   117   118    1
    73   117   119    1
    74    46    47    1
    75    62    60   ar
    76    63    64    1
    77   122   121    1
    78   122   125    1
    79   108   109    2
    80   132   131    1
    81   120   118    1
    82    65    66    2
    83    65    64    1
    84   129   131   ar
    85   129   127   ar
    86   131   130   ar
    87   127   126   ar
    88    78    80   ar
    89   130   128   ar
    90    49    48    2
    91    48    47    1
    92    47    50    1
    93    81    80   ar
    94    64    67    1
    95   126   128   ar
    96   126   125    1
    97    67    68    1
    98    50    52    1
    99    50    51    1
   100    68    69    1
   101    71    69   ar
   102    28    27    1
   103    28    29    2
   104    69    70   ar
   105    27    30    1
   106    27    26    1
   107    33    35   ar
   108    33    31   ar
   109    35    36   ar
   110    30    31    1
   111    19    18    1
   112    31    32   ar
   113    36    37    1
   114    36    34   ar
   115    25    22    1
   116    18    17    1
   117    18    20    1
   118    32    34   ar
   119    24    23    2
   120    17    14    1
   121    23    22    1
   122    22    21    1
   123    21    15   am
   124    14    15    1
   125    14    13    1
   126    15    16    2
   127    13     7   am
   128     4     3    2
   129     7     6    1
   130     7     8    2
   131     3     5   am
   132     3     2    1
   133     6     5    1
   134     6     9    1
   135    12    10    1
   136     2     1    1
   137     9    10    1
   138    10    11    1
