@<TRIPOS>MOLECULE
tmp/3i7iA00.pdb
 182 180 0 0 0
SMALL
GASTEIGER

@<TRIPOS>ATOM
      1  N        -12.1460   30.3560   63.6380 N.3    79  SER79      -0.1202
      2  CA       -11.5140   31.2810   62.7000 C.3    79  SER79       0.2020
      3  C        -10.0060   31.3320   62.8880 C.2    79  SER79       0.2619
      4  O         -9.4900   30.9220   63.9190 O.2    79  SER79      -0.2717
      5  CB       -12.1020   32.6890   62.8290 C.3    79  SER79       0.2103
      6  OG       -11.6080   33.5380   61.8020 O.3    79  SER79      -0.2182
      7  N         -9.3020   31.8600   61.8950 N.am   80  GLY80      -0.1942
      8  CA        -7.8560   31.8430   61.9170 C.3    80  GLY80       0.2014
      9  C         -7.3940   30.6400   61.1310 C.2    80  GLY80       0.2639
     10  O         -7.8170   30.4500   59.9980 O.2    80  GLY80      -0.2714
     11  N         -6.5380   29.8200   61.7260 N.am   81  LEU81      -0.1963
     12  CA        -6.0810   28.6100   61.0540 C.3    81  LEU81       0.1728
     13  C         -7.2670   27.6680   60.9460 C.2    81  LEU81       0.2616
     14  O         -7.9590   27.4500   61.9260 O.2    81  LEU81      -0.2715
     15  CB        -4.9600   27.9400   61.8560 C.3    81  LEU81       0.0311
     16  CG        -4.0010   28.8750   62.6020 C.3    81  LEU81       0.0022
     17  CD1       -3.0360   28.0870   63.4740 C.3    81  LEU81       0.0001
     18  CD2       -3.2540   29.7710   61.6280 C.3    81  LEU81       0.0001
     19  N         -7.5080   27.1130   59.7620 N.am   82  LEU82      -0.1963
     20  CA        -8.6430   26.2090   59.5680 C.3    82  LEU82       0.1728
     21  C         -8.2330   24.7420   59.6780 C.2    82  LEU82       0.2616
     22  O         -9.0430   23.8860   60.0330 O.2    82  LEU82      -0.2715
     23  CB        -9.2930   26.4430   58.1980 C.3    82  LEU82       0.0311
     24  CG        -9.6010   27.8750   57.7510 C.3    82  LEU82       0.0022
     25  CD1      -10.1140   27.8630   56.3180 C.3    82  LEU82       0.0001
     26  CD2      -10.5980   28.5690   58.6820 C.3    82  LEU82       0.0001
     27  N         -6.9710   24.4700   59.3620 N.am   83  ALA83      -0.1977
     28  CA        -6.4910   23.1120   59.1570 C.3    83  ALA83       0.1597
     29  C         -5.0610   23.1470   58.6470 C.2    83  ALA83       0.2287
     30  O         -4.5760   24.1890   58.2180 O.2    83  ALA83      -0.2864
     31  CB        -7.3770   22.3860   58.1500 C.3    83  ALA83       0.0319
     32  N        -17.5340   26.5060   56.4940 N.3   111  TYR111     -0.1241
     33  CA       -16.3840   26.1630   55.6610 C.3   111  TYR111      0.1605
     34  C        -16.6470   24.8710   54.9140 C.2   111  TYR111      0.2264
     35  O        -17.0780   23.8890   55.5130 O.2   111  TYR111     -0.2867
     36  CB       -15.1230   26.0050   56.5080 C.3   111  TYR111      0.0534
     37  CG       -14.4800   27.3180   56.8680 C.ar  111  TYR111     -0.0201
     38  CD1      -14.6410   27.8730   58.1290 C.ar  111  TYR111     -0.0009
     39  CD2      -13.7290   28.0130   55.9390 C.ar  111  TYR111     -0.0009
     40  CE1      -14.0590   29.0860   58.4580 C.ar  111  TYR111      0.0417
     41  CE2      -13.1420   29.2230   56.2560 C.ar  111  TYR111      0.0417
     42  CZ       -13.3100   29.7560   57.5160 C.ar  111  TYR111      0.1957
     43  OH       -12.7200   30.9640   57.8270 O.3   111  TYR111     -0.2866
     44  N        -13.4610   21.5020   49.9010 N.3   115  LEU115     -0.1231
     45  CA       -12.5100   22.4870   49.3870 C.3   115  LEU115      0.1693
     46  C        -11.2660   22.6110   50.2720 C.2   115  LEU115      0.2591
     47  O        -10.1490   22.6570   49.7690 O.2   115  LEU115     -0.2718
     48  CB       -13.1680   23.8640   49.2240 C.3   115  LEU115      0.0284
     49  CG       -14.3410   24.1000   48.2550 C.3   115  LEU115      0.0019
     50  CD1      -14.6400   25.5920   48.1630 C.3   115  LEU115      0.0001
     51  CD2      -14.0840   23.5320   46.8610 C.3   115  LEU115      0.0001
     52  N        -11.4550   22.6690   51.5880 N.am  116  VAL116     -0.1980
     53  CA       -10.3240   22.7740   52.5060 C.3   116  VAL116      0.1595
     54  C         -9.4740   21.5190   52.4350 C.2   116  VAL116      0.2287
     55  O         -8.2550   21.5910   52.3320 O.2   116  VAL116     -0.2864
     56  CB       -10.7870   22.9750   53.9610 C.3   116  VAL116      0.0276
     57  CG1       -9.5950   23.0320   54.8740 C.3   116  VAL116      0.0022
     58  CG2      -11.6350   24.2350   54.0800 C.3   116  VAL116      0.0022
     59  N         -7.3260   21.2270   49.3410 N.3   119  HIS119     -0.1226
     60  CA        -6.1650   22.0820   49.5330 C.3   119  HIS119      0.1752
     61  C         -5.1490   21.4290   50.4530 C.2   119  HIS119      0.2595
     62  O         -3.9570   21.4040   50.1490 O.2   119  HIS119     -0.2718
     63  CB        -6.5870   23.4290   50.1340 C.3   119  HIS119      0.0759
     64  CG        -5.4340   24.3140   50.4930 C.ar  119  HIS119      0.0818
     65  ND1       -5.0270   25.3650   49.7000 N.ar  119  HIS119     -0.2268
     66  CD2       -4.5780   24.2830   51.5410 C.ar  119  HIS119      0.1154
     67  CE1       -3.9740   25.9450   50.2470 C.ar  119  HIS119      0.1986
     68  NE2       -3.6820   25.3080   51.3650 N.ar  119  HIS119     -0.2212
     69  N         -5.6230   20.9260   51.5930 N.am  120  GLU120     -0.1979
     70  CA        -4.7490   20.2820   52.5580 C.3   120  GLU120      0.1602
     71  C         -4.0620   19.0610   51.9650 C.2   120  GLU120      0.2287
     72  O         -2.8590   18.8860   52.1320 O.2   120  GLU120     -0.2864
     73  CB        -5.5100   19.9110   53.8300 C.3   120  GLU120      0.0415
     74  CG        -5.9480   21.1200   54.6460 C.3   120  GLU120      0.1163
     75  CD        -4.7940   22.0400   54.9810 C.2   120  GLU120      0.3649
     76  OE1       -3.6830   21.5350   55.2410 O.co2 120  GLU120     -0.2457
     77  OE2       -4.9920   23.2670   54.9890 O.co2 120  GLU120     -0.2457
     78  N          2.3630   26.3890   49.1460 N.3   129  HIS129     -0.1241
     79  CA         1.4160   27.4080   48.7020 C.3   129  HIS129      0.1621
     80  C          1.7810   28.0530   47.3690 C.2   129  HIS129      0.2264
     81  O          2.9500   28.3300   47.0820 O.2   129  HIS129     -0.2867
     82  CB         1.2370   28.4930   49.7600 C.3   129  HIS129      0.0745
     83  CG         0.5840   28.0040   51.0100 C.ar  129  HIS129      0.0817
     84  ND1        0.9660   28.4250   52.2650 N.ar  129  HIS129     -0.2268
     85  CD2       -0.4140   27.1130   51.2000 C.ar  129  HIS129      0.1154
     86  CE1        0.2190   27.8270   53.1740 C.ar  129  HIS129      0.1986
     87  NE2       -0.6220   27.0200   52.5530 N.ar  129  HIS129     -0.2212
     88  N         -5.9130   32.2370   42.3030 N.3   134  GLY134     -0.1210
     89  CA        -6.9180   31.3250   41.7960 C.3   134  GLY134      0.1956
     90  C         -6.4120   29.8940   41.7900 C.2   134  GLY134      0.2612
     91  O         -7.0150   29.0130   41.1870 O.2   134  GLY134     -0.2717
     92  N         -5.2870   29.6680   42.4520 N.am  135  ALA135     -0.1965
     93  CA        -4.7640   28.3220   42.6180 C.3   135  ALA135      0.1728
     94  C         -5.3920   27.6940   43.8600 C.2   135  ALA135      0.2616
     95  O         -5.5500   28.3680   44.8810 O.2   135  ALA135     -0.2715
     96  CB        -3.2530   28.3560   42.7390 C.3   135  ALA135      0.0334
     97  N         -5.7630   26.4160   43.7670 N.am  136  LEU136     -0.1977
     98  CA        -6.3620   25.7140   44.8980 C.3   136  LEU136      0.1596
     99  C         -5.4260   25.7970   46.1000 C.2   136  LEU136      0.2287
    100  O         -5.8680   25.9050   47.2380 O.2   136  LEU136     -0.2864
    101  CB        -6.6540   24.2550   44.5420 C.3   136  LEU136      0.0297
    102  CG        -7.1100   23.3450   45.6860 C.3   136  LEU136      0.0022
    103  CD1       -8.2920   23.9540   46.4200 C.3   136  LEU136      0.0001
    104  CD2       -7.4470   21.9520   45.1760 C.3   136  LEU136      0.0001
    105  N         -3.6020   28.2270   46.8620 N.3   138  PHE138     -0.1228
    106  CA        -3.5580   29.5750   47.4150 C.3   138  PHE138      0.1721
    107  C         -3.9830   29.5040   48.8770 C.2   138  PHE138      0.2437
    108  O         -5.0270   28.9530   49.1920 O.2   138  PHE138     -0.2733
    109  CB        -4.4620   30.5200   46.6250 C.3   138  PHE138      0.0547
    110  CG        -4.1880   31.9650   46.8810 C.ar  138  PHE138     -0.0202
    111  CD1       -2.9370   32.4990   46.6220 C.ar  138  PHE138     -0.0042
    112  CD2       -5.1740   32.7930   47.3860 C.ar  138  PHE138     -0.0042
    113  CE1       -2.6720   33.8350   46.8610 C.ar  138  PHE138     -0.0003
    114  CE2       -4.9150   34.1290   47.6290 C.ar  138  PHE138     -0.0003
    115  CZ        -3.6590   34.6470   47.3670 C.ar  138  PHE138     -0.0000
    116  N         -3.1650   30.0650   49.7750 N.am  139  PRO139     -0.2718
    117  CA        -3.3110   29.9100   51.2300 C.3   139  PRO139      0.1535
    118  C         -4.6720   30.3150   51.8000 C.2   139  PRO139      0.2598
    119  O         -5.0280   29.8490   52.8760 O.2   139  PRO139     -0.2715
    120  CB        -2.2390   30.8460   51.7970 C.3   139  PRO139      0.0310
    121  CG        -1.2730   31.0800   50.6810 C.3   139  PRO139      0.0237
    122  CD        -2.0600   30.9700   49.4130 C.3   139  PRO139      0.0939
    123  N         -5.4110   31.1710   51.1010 N.am  140  ILE140     -0.1964
    124  CA        -6.5970   31.8060   51.6820 C.3   140  ILE140      0.1727
    125  C         -7.9070   31.2100   51.1770 C.2   140  ILE140      0.2616
    126  O         -8.0850   31.0200   49.9810 O.2   140  ILE140     -0.2715
    127  CB        -6.5730   33.3230   51.4350 C.3   140  ILE140      0.0290
    128  CG1       -5.2480   33.9030   51.9420 C.3   140  ILE140      0.0022
    129  CG2       -7.7520   33.9900   52.1080 C.3   140  ILE140      0.0023
    130  CD1       -5.0650   35.3690   51.6880 C.3   140  ILE140      0.0001
    131  N         -8.8220   30.9210   52.0990 N.am  141  TYR141     -0.1960
    132  CA       -10.0570   30.2220   51.7540 C.3   141  TYR141      0.1771
    133  C        -11.0050   31.0550   50.8950 C.2   141  TYR141      0.2620
    134  O        -11.2310   32.2320   51.1660 O.2   141  TYR141     -0.2715
    135  CB       -10.7840   29.7270   53.0130 C.3   141  TYR141      0.0574
    136  CG       -12.1380   29.1040   52.7270 C.ar  141  TYR141     -0.0198
    137  CD1      -12.2390   27.7890   52.2980 C.ar  141  TYR141     -0.0009
    138  CD2      -13.3110   29.8360   52.8780 C.ar  141  TYR141     -0.0009
    139  CE1      -13.4600   27.2190   52.0250 C.ar  141  TYR141      0.0417
    140  CE2      -14.5410   29.2730   52.6150 C.ar  141  TYR141      0.0417
    141  CZ       -14.6110   27.9590   52.1850 C.ar  141  TYR141      0.1957
    142  OH       -15.8330   27.3780   51.9220 O.3   141  TYR141     -0.2866
    143  N        -11.5550   30.4270   49.8580 N.am  142  THR142     -0.1951
    144  CA       -12.5830   31.0410   49.0230 C.3   142  THR142      0.1897
    145  C        -13.5680   29.9740   48.5640 C.2   142  THR142      0.2313
    146  O        -13.1650   28.8730   48.1960 O.2   142  THR142     -0.2863
    147  CB       -11.9900   31.7130   47.7690 C.3   142  THR142      0.1794
    148  OG1      -10.9430   32.6190   48.1440 O.3   142  THR142     -0.2208
    149  CG2      -13.0740   32.4690   47.0260 C.3   142  THR142      0.0378
    150  N        -16.6630   28.2880   46.1450 N.3   144  THR144     -0.1218
    151  CA       -17.0470   28.2170   44.7420 C.3   144  THR144      0.1862
    152  C        -18.2780   27.3370   44.5500 C.2   144  THR144      0.2287
    153  O        -19.4050   27.8290   44.5120 O.2   144  THR144     -0.2866
    154  CB       -15.9120   27.6300   43.9080 C.3   144  THR144      0.1770
    155  OG1      -15.8360   26.2170   44.1390 O.3   144  THR144     -0.2211
    156  CG2      -14.5960   28.2760   44.3050 C.3   144  THR144      0.0375
    157  N        -16.5680   22.7800   40.4610 N.3   145  PHE145     -0.1227
    158  CA       -15.1370   22.8480   40.7680 C.3   145  PHE145      0.1736
    159  C        -14.2540   22.1000   39.7780 C.2   145  PHE145      0.2595
    160  O        -14.4070   20.8950   39.5820 O.2   145  PHE145     -0.2718
    161  CB       -14.8370   22.3150   42.1750 C.3   145  PHE145      0.0547
    162  CG       -13.3580   22.2150   42.4830 C.ar  145  PHE145     -0.0202
    163  CD1      -12.6700   23.3000   43.0050 C.ar  145  PHE145     -0.0042
    164  CD2      -12.6570   21.0410   42.2370 C.ar  145  PHE145     -0.0042
    165  CE1      -11.3130   23.2190   43.2820 C.ar  145  PHE145     -0.0003
    166  CE2      -11.2980   20.9530   42.5120 C.ar  145  PHE145     -0.0003
    167  CZ       -10.6290   22.0520   43.0370 C.ar  145  PHE145     -0.0000
    168  N        -13.3100   22.8150   39.1770 N.am  146  MET146     -0.1979
    169  CA       -12.2960   22.1800   38.3610 C.3   146  MET146      0.1605
    170  C        -10.9250   22.5750   38.8960 C.2   146  MET146      0.2287
    171  O        -10.6660   23.7570   39.1230 O.2   146  MET146     -0.2864
    172  CB       -12.4440   22.6070   36.9060 C.3   146  MET146      0.0413
    173  CG       -11.6860   21.7240   35.9290 C.3   146  MET146      0.0598
    174  SD       -11.6520   22.3840   34.2480 S.3   146  MET146     -0.1393
    175  CE       -10.6340   23.8460   34.4680 C.3   146  MET146      0.0692
    176  N         -7.6160   24.0060   39.3130 N.3   148  PRO148     -0.2116
    177  CA        -6.8460   24.9980   38.5540 C.3   148  PRO148      0.1372
    178  C         -5.5150   24.4600   38.0160 C.2   148  PRO148      0.2244
    179  O         -4.8960   23.5620   38.6100 O.2   148  PRO148     -0.2868
    180  CB        -6.6190   26.1110   39.5740 C.3   148  PRO148      0.0268
    181  CG        -7.8130   26.0360   40.4420 C.3   148  PRO148      0.0207
    182  CD        -8.1620   24.5700   40.5570 C.3   148  PRO148      0.0892
@<TRIPOS>BOND
     1   174   175    1
     2   174   173    1
     3   173   172    1
     4   172   169    1
     5   178   177    1
     6   178   179    2
     7   169   170    1
     8   169   168    1
     9   177   176    1
    10   177   180    1
    11   170   171    2
    12   168   159   am
    13   176   182    1
    14   180   181    1
    15   160   159    2
    16   159   158    1
    17   181   182    1
    18   157   158    1
    19   158   161    1
    20    91    90    2
    21    90    89    1
    22    90    92   am
    23    89    88    1
    24   161   162    1
    25   164   162   ar
    26   164   166   ar
    27    92    93    1
    28   162   163   ar
    29   166   167   ar
    30    93    96    1
    31    93    94    1
    32   163   165   ar
    33   167   165   ar
    34    97    94   am
    35    97    98    1
    36    94    95    2
    37   154   155    1
    38   154   156    1
    39   154   151    1
    40   153   152    2
    41   101    98    1
    42   101   102    1
    43   152   151    1
    44   151   150    1
    45    98    99    1
    46   104   102    1
    47   102   103    1
    48    99   100    2
    49   111   113   ar
    50   111   110   ar
    51   109   110    1
    52   109   106    1
    53    51    49    1
    54   113   115   ar
    55   105   106    1
    56   110   112   ar
    57   149   147    1
    58    81    80    2
    59   115   114   ar
    60    80    79    1
    61   112   114   ar
    62   106   107    1
    63   147   148    1
    64   147   144    1
    65    50    49    1
    66   146   145    2
    67    49    48    1
    68   145   144    1
    69    79    78    1
    70    79    82    1
    71   107   108    2
    72   107   116   am
    73   144   143    1
    74    48    45    1
    75    59    60    1
    76    45    44    1
    77    45    46    1
    78   122   116    1
    79   122   121    1
    80    60    63    1
    81    60    61    1
    82    65    67   ar
    83    65    64   ar
    84    82    83    1
    85    47    46    2
    86   116   117    1
    87   143   133   am
    88   126   125    2
    89    63    64    1
    90    62    61    2
    91    67    68   ar
    92    46    52   am
    93    61    69   am
    94    64    66   ar
    95   121   120    1
    96   133   134    2
    97   133   132    1
    98    83    85   ar
    99    83    84   ar
   100   123   124    1
   101   123   118   am
   102   125   124    1
   103   125   131   am
   104    85    87   ar
   105   117   120    1
   106   117   118    1
   107    68    66   ar
   108   127   124    1
   109   127   128    1
   110   127   129    1
   111    52    53    1
   112    69    70    1
   113   130   128    1
   114   132   131    1
   115   132   135    1
   116   118   119    2
   117   142   141    1
   118    71    72    2
   119    71    70    1
   120   139   141   ar
   121   139   137   ar
   122   141   140   ar
   123    84    86   ar
   124   137   136   ar
   125    55    54    2
   126    54    53    1
   127    53    56    1
   128    87    86   ar
   129    70    73    1
   130   140   138   ar
   131   136   138   ar
   132   136   135    1
   133    73    74    1
   134    56    58    1
   135    56    57    1
   136    74    75    1
   137    34    35    2
   138    34    33    1
   139    75    77   ar
   140    75    76   ar
   141    33    32    1
   142    33    36    1
   143    39    41   ar
   144    39    37   ar
   145    41    42   ar
   146    25    24    1
   147    36    37    1
   148    37    38   ar
   149    42    43    1
   150    42    40   ar
   151    24    23    1
   152    24    26    1
   153    38    40   ar
   154    31    28    1
   155    23    20    1
   156    30    29    2
   157    29    28    1
   158    28    27    1
   159    27    21   am
   160    20    21    1
   161    20    19    1
   162    21    22    2
   163    19    13   am
   164    10     9    2
   165    13    12    1
   166    13    14    2
   167    12    11    1
   168    12    15    1
   169     9    11   am
   170     9     8    1
   171    18    16    1
   172     6     5    1
   173    15    16    1
   174     7     8    1
   175     7     3   am
   176    16    17    1
   177     2     5    1
   178     2     3    1
   179     2     1    1
   180     3     4    2
