@<TRIPOS>MOLECULE
tmp/3i7uD04.pdb
 94 89 0 0 0
SMALL
GASTEIGER

@<TRIPOS>ATOM
      1  N        132.9440   18.3290   80.4960 N.3    22  THR22      -0.1218
      2  CA       131.9850   17.5420   81.2600 C.3    22  THR22       0.1862
      3  C        132.3310   17.5080   82.7410 C.2    22  THR22       0.2287
      4  O        133.4350   17.8740   83.1380 O.2    22  THR22      -0.2866
      5  CB       131.9400   16.0860   80.7690 C.3    22  THR22       0.1770
      6  OG1      133.1820   15.4450   81.0800 O.3    22  THR22      -0.2211
      7  CG2      131.7130   16.0400   79.2650 C.3    22  THR22       0.0375
      8  N        134.2890   17.8060   75.4560 N.3    28  SER28      -0.1217
      9  CA       133.3890   17.1050   74.5510 C.3    28  SER28       0.1889
     10  C        132.4840   18.1150   73.8370 C.2    28  SER28       0.2288
     11  O        132.7050   19.3210   73.9260 O.2    28  SER28      -0.2866
     12  CB       132.5510   16.1150   75.3650 C.3    28  SER28       0.2089
     13  OG       131.7220   15.3170   74.5440 O.3    28  SER28      -0.2183
     14  N        125.4570   19.2270   73.9320 N.3    31  LYS31      -0.1245
     15  CA       124.3070   18.4420   73.5070 C.3    31  LYS31       0.1561
     16  C        123.3240   18.3320   74.6590 C.2    31  LYS31       0.2260
     17  O        123.6750   18.6210   75.7940 O.2    31  LYS31      -0.2867
     18  CB       124.7810   17.0480   73.1160 C.3    31  LYS31       0.0271
     19  CG       125.5390   16.3670   74.2490 C.3    31  LYS31       0.0035
     20  CD       126.2760   15.1340   73.7830 C.3    31  LYS31       0.0206
     21  CE       127.2430   14.6510   74.8530 C.3    31  LYS31       0.1093
     22  NZ       128.3800   15.6120   75.0800 N.3    31  LYS31      -0.1314
     23  N        125.7340    8.7950   67.7800 N.3    65  ILE65      -0.1245
     24  CA       126.4730    7.9280   68.6840 C.3    65  ILE65       0.1561
     25  C        125.3910    7.3360   69.5790 C.2    65  ILE65       0.2260
     26  O        124.4610    8.0340   69.9820 O.2    65  ILE65      -0.2867
     27  CB       127.4730    8.7230   69.5610 C.3    65  ILE65       0.0252
     28  CG1      128.6150    9.2690   68.6920 C.3    65  ILE65       0.0019
     29  CG2      128.0360    7.8220   70.6710 C.3    65  ILE65       0.0019
     30  CD1      129.5630   10.1870   69.4380 C.3    65  ILE65       0.0001
     31  N        124.5170    4.2170   72.8040 N.3    67  TYR67      -0.1241
     32  CA       125.0690    3.3180   73.8050 C.3    67  TYR67       0.1605
     33  C        124.0680    3.0780   74.9110 C.2    67  TYR67       0.2264
     34  O        123.0890    3.8060   75.0530 O.2    67  TYR67      -0.2867
     35  CB       126.3450    3.9160   74.4050 C.3    67  TYR67       0.0534
     36  CG       126.1720    5.3110   74.9800 C.ar   67  TYR67      -0.0201
     37  CD1      125.5820    5.5120   76.2330 C.ar   67  TYR67      -0.0009
     38  CD2      126.5890    6.4330   74.2620 C.ar   67  TYR67      -0.0009
     39  CE1      125.4160    6.8020   76.7540 C.ar   67  TYR67       0.0417
     40  CE2      126.4260    7.7190   74.7680 C.ar   67  TYR67       0.0417
     41  CZ       125.8420    7.8990   76.0110 C.ar   67  TYR67       0.1957
     42  OH       125.6960    9.1760   76.5070 O.3    67  TYR67      -0.2866
     43  N        122.4150    9.8950   70.4350 N.3    80  VAL80      -0.1245
     44  CA       122.7360   11.3130   70.3260 C.3    80  VAL80       0.1561
     45  C        123.0410   11.6280   68.8650 C.2    80  VAL80       0.2260
     46  O        123.9670   11.0670   68.2770 O.2    80  VAL80      -0.2867
     47  CB       123.9710   11.6940   71.1750 C.3    80  VAL80       0.0252
     48  CG1      124.1100   13.2180   71.2310 C.3    80  VAL80       0.0019
     49  CG2      123.8440   11.1120   72.5790 C.3    80  VAL80       0.0019
     50  N        124.2060   14.3440   65.9980 N.3    82  TYR82      -0.1241
     51  CA       125.0680   15.5230   65.8940 C.3    82  TYR82       0.1605
     52  C        124.9250   16.2680   64.5760 C.2    82  TYR82       0.2264
     53  O        124.8040   15.6600   63.5170 O.2    82  TYR82      -0.2867
     54  CB       126.5290   15.1050   66.0730 C.3    82  TYR82       0.0534
     55  CG       126.8570   14.6430   67.4690 C.ar   82  TYR82      -0.0201
     56  CD1      127.1740   15.5590   68.4730 C.ar   82  TYR82      -0.0009
     57  CD2      126.8270   13.2860   67.7970 C.ar   82  TYR82      -0.0009
     58  CE1      127.4560   15.1310   69.7730 C.ar   82  TYR82       0.0417
     59  CE2      127.1030   12.8530   69.0850 C.ar   82  TYR82       0.0417
     60  CZ       127.4160   13.7740   70.0660 C.ar   82  TYR82       0.1957
     61  OH       127.6860   13.3280   71.3390 O.3    82  TYR82      -0.2866
     62  N        136.8450   10.7600   74.1210 N.3   115  TYR115     -0.1227
     63  CA       135.9100    9.6880   73.8230 C.3   115  TYR115      0.1736
     64  C        136.0230    9.3480   72.3440 C.2   115  TYR115      0.2595
     65  O        136.1040   10.2320   71.4890 O.2   115  TYR115     -0.2718
     66  CB       134.4850   10.1130   74.1750 C.3   115  TYR115      0.0548
     67  CG       134.2780   10.3030   75.6620 C.ar  115  TYR115     -0.0200
     68  CD1      134.4950    9.2530   76.5540 C.ar  115  TYR115     -0.0009
     69  CD2      133.8930   11.5380   76.1830 C.ar  115  TYR115     -0.0009
     70  CE1      134.3370    9.4300   77.9280 C.ar  115  TYR115      0.0417
     71  CE2      133.7300   11.7270   77.5530 C.ar  115  TYR115      0.0417
     72  CZ       133.9560   10.6680   78.4190 C.ar  115  TYR115      0.1957
     73  OH       133.8140   10.8490   79.7730 O.3   115  TYR115     -0.2866
     74  N        136.0350    8.0530   72.0480 N.am  116  LYS116     -0.1966
     75  CA       136.1500    7.5920   70.6740 C.3   116  LYS116      0.1728
     76  C        135.0350    8.1340   69.7890 C.2   116  LYS116      0.2617
     77  O        135.2800    8.5380   68.6530 O.2   116  LYS116     -0.2715
     78  CB       136.1480    6.0600   70.6280 C.3   116  LYS116      0.0311
     79  CG       136.2690    5.4900   69.2210 C.3   116  LYS116      0.0038
     80  CD       137.4780    6.0640   68.4900 C.3   116  LYS116      0.0206
     81  CE       137.5260    5.5850   67.0460 C.3   116  LYS116      0.1093
     82  NZ       138.6150    6.2360   66.2650 N.3   116  LYS116     -0.1314
     83  N        133.8120    8.1370   70.3070 N.am  117  GLY117     -0.1940
     84  CA       132.6910    8.6350   69.5300 C.3   117  GLY117      0.2014
     85  C        132.8800   10.0870   69.1310 C.2   117  GLY117      0.2638
     86  O        132.6100   10.4650   67.9900 O.2   117  GLY117     -0.2714
     87  N        133.3310   10.9030   70.0790 N.am  118  ASP118     -0.1971
     88  CA       133.5590   12.3230   69.8180 C.3   118  ASP118      0.1709
     89  C        134.5990   12.5100   68.7250 C.2   118  ASP118      0.2293
     90  O        134.4390   13.3510   67.8420 O.2   118  ASP118     -0.2864
     91  CB       134.0280   13.0400   71.0920 C.3   118  ASP118      0.1436
     92  CG       132.9040   13.2340   72.1080 C.2   118  ASP118      0.3671
     93  OD1      131.7300   13.1180   71.7150 O.co2 118  ASP118     -0.2456
     94  OD2      133.1970   13.5160   73.2890 O.co2 118  ASP118     -0.2456
@<TRIPOS>BOND
     1    53    52    2
     2    52    51    1
     3    51    50    1
     4    51    54    1
     5    54    55    1
     6    82    81    1
     7    81    80    1
     8    55    57   ar
     9    55    56   ar
    10    23    24    1
    11    57    59   ar
    12    90    89    2
    13    86    85    2
    14    46    45    2
    15    56    58   ar
    16    80    79    1
    17    77    76    2
    18    24    27    1
    19    24    25    1
    20    28    30    1
    21    28    27    1
    22    89    88    1
    23    45    44    1
    24    59    60   ar
    25    85    84    1
    26    85    87   am
    27    79    78    1
    28    84    83    1
    29    27    29    1
    30    25    26    2
    31    58    60   ar
    32    76    83   am
    33    76    75    1
    34    88    87    1
    35    88    91    1
    36    60    61    1
    37    44    43    1
    38    44    47    1
    39    78    75    1
    40    75    74    1
    41    91    92    1
    42    47    48    1
    43    47    49    1
    44    65    64    2
    45    93    92   ar
    46    74    64   am
    47    92    94   ar
    48    64    63    1
    49    31    32    1
    50    18    15    1
    51    18    19    1
    52    15    14    1
    53    15    16    1
    54    20    19    1
    55    20    21    1
    56    32    35    1
    57    32    33    1
    58    63    62    1
    59    63    66    1
    60    10    11    2
    61    10     9    1
    62    66    67    1
    63    38    40   ar
    64    38    36   ar
    65    35    36    1
    66    13    12    1
    67     9    12    1
    68     9     8    1
    69    16    17    2
    70    40    41   ar
    71    21    22    1
    72    33    34    2
    73    36    37   ar
    74    67    69   ar
    75    67    68   ar
    76    41    42    1
    77    41    39   ar
    78    69    71   ar
    79    37    39   ar
    80    68    70   ar
    81    71    72   ar
    82    70    72   ar
    83    72    73    1
    84     7     5    1
    85     1     2    1
    86     5     6    1
    87     5     2    1
    88     2     3    1
    89     3     4    2
