@<TRIPOS>MOLECULE
tmp/3i7vB00.pdb
 103 98 0 0 0
SMALL
GASTEIGER

@<TRIPOS>ATOM
      1  N         15.0540   17.4410   35.1730 N.3     1  MET1       -0.1230
      2  CA        14.2860   16.2890   34.6260 C.3     1  MET1        0.1702
      3  C         15.2390   15.2660   34.0280 C.2     1  MET1        0.2592
      4  O         16.2260   15.6330   33.3910 O.2     1  MET1       -0.2718
      5  CB        13.3190   16.7700   33.5430 C.3     1  MET1        0.0401
      6  CG        12.4360   15.6720   32.9790 C.3     1  MET1        0.0596
      7  SD        11.4070   16.2530   31.6210 S.3     1  MET1       -0.1393
      8  CE        10.8190   14.7450   30.9850 C.3     1  MET1        0.0692
      9  N         14.9460   13.9860   34.2330 N.am    2  LYS2       -0.1966
     10  CA        15.7940   12.9300   33.6950 C.3     2  LYS2        0.1728
     11  C         15.7690   12.9410   32.1820 C.2     2  LYS2        0.2616
     12  O         14.7250   13.1700   31.5650 O.2     2  LYS2       -0.2715
     13  CB        15.3350   11.5540   34.1710 C.3     2  LYS2        0.0311
     14  CG        15.5030   11.3180   35.6430 C.3     2  LYS2        0.0038
     15  CD        15.2980    9.8530   35.9910 C.3     2  LYS2        0.0206
     16  CE        15.5680    9.6100   37.4680 C.3     2  LYS2        0.1093
     17  NZ        15.2850    8.2110   37.8520 N.3     2  LYS2       -0.1314
     18  N         16.9250   12.6820   31.5870 N.am    3  LYS3       -0.1977
     19  CA        17.0330   12.6450   30.1400 C.3     3  LYS3        0.1596
     20  C         17.6990   11.3550   29.7060 C.2     3  LYS3        0.2287
     21  O         18.6350   10.8810   30.3570 O.2     3  LYS3       -0.2864
     22  CB        17.8370   13.8400   29.6350 C.3     3  LYS3        0.0298
     23  CG        17.2080   15.1720   29.9880 C.3     3  LYS3        0.0038
     24  CD        17.9430   16.3290   29.3430 C.3     3  LYS3        0.0206
     25  CE        17.3560   17.6590   29.8010 C.3     3  LYS3        0.1093
     26  NZ        15.8860   17.7270   29.5590 N.3     3  LYS3       -0.1314
     27  N         19.1850    9.1040   26.2010 N.3     5  PHE5       -0.1241
     28  CA        19.6800    9.2430   24.8450 C.3     5  PHE5        0.1605
     29  C         19.8900    7.8780   24.2040 C.2     5  PHE5        0.2264
     30  O         20.7150    7.0810   24.6580 O.2     5  PHE5       -0.2867
     31  CB        20.9860   10.0280   24.8740 C.3     5  PHE5        0.0534
     32  CG        20.8700   11.3460   25.5790 C.ar    5  PHE5       -0.0203
     33  CD1       20.2760   12.4360   24.9520 C.ar    5  PHE5       -0.0042
     34  CD2       21.3190   11.4900   26.8870 C.ar    5  PHE5       -0.0042
     35  CE1       20.1320   13.6540   25.6220 C.ar    5  PHE5       -0.0003
     36  CE2       21.1790   12.7040   27.5660 C.ar    5  PHE5       -0.0003
     37  CZ        20.5860   13.7840   26.9320 C.ar    5  PHE5       -0.0000
     38  N         19.8440    2.4570   24.3200 N.3    33  ASN33      -0.1225
     39  CA        20.5820    3.5180   24.9850 C.3    33  ASN33       0.1785
     40  C         22.0360    3.5200   24.5470 C.2    33  ASN33       0.2597
     41  O         22.6460    2.4650   24.3870 O.2    33  ASN33      -0.2718
     42  CB        20.5270    3.3300   26.4990 C.3    33  ASN33       0.1169
     43  CG        21.1730    4.4740   27.2440 C.2    33  ASN33       0.2627
     44  OD1       20.7300    5.6160   27.1420 O.2    33  ASN33      -0.2716
     45  ND2       22.2300    4.1760   27.9990 N.am   33  ASN33      -0.0877
     46  N         22.5870    4.7110   24.3600 N.am   34  ILE34      -0.1966
     47  CA        23.9800    4.8460   23.9620 C.3    34  ILE34       0.1727
     48  C         24.8320    4.5710   25.1910 C.2    34  ILE34       0.2616
     49  O         24.7420    5.2830   26.1940 O.2    34  ILE34      -0.2715
     50  CB        24.2740    6.2600   23.4700 C.3    34  ILE34       0.0290
     51  CG1       23.3550    6.5890   22.2990 C.3    34  ILE34       0.0022
     52  CG2       25.7430    6.3800   23.0680 C.3    34  ILE34       0.0023
     53  CD1       23.2040    8.0740   22.0310 C.3    34  ILE34       0.0001
     54  N         25.6450    3.5260   25.1240 N.am   35  GLU35      -0.1964
     55  CA        26.5070    3.1900   26.2420 C.3    35  GLU35       0.1718
     56  C         27.6270    4.2210   26.3340 C.2    35  GLU35       0.2458
     57  O         27.9930    4.8350   25.3330 O.2    35  GLU35      -0.2730
     58  CB        27.0660    1.7780   26.0600 C.3    35  GLU35       0.0428
     59  CG        25.9720    0.7300   26.0400 C.3    35  GLU35       0.1163
     60  CD        24.9510    0.9490   27.1470 C.2    35  GLU35       0.3649
     61  OE1       25.3190    0.8270   28.3350 O.co2  35  GLU35      -0.2457
     62  OE2       23.7810    1.2570   26.8310 O.co2  35  GLU35      -0.2457
     63  N         28.1860    4.4200   27.5410 N.am   36  PRO36      -0.2727
     64  CA        29.2660    5.3780   27.8110 C.3    36  PRO36       0.1402
     65  C         30.3970    5.4370   26.7850 C.2    36  PRO36       0.2269
     66  O         30.8160    6.5240   26.3870 O.2    36  PRO36      -0.2865
     67  CB        29.7650    4.9560   29.1900 C.3    36  PRO36       0.0296
     68  CG        28.5500    4.4390   29.8390 C.3    36  PRO36       0.0237
     69  CD        27.8970    3.6190   28.7440 C.3    36  PRO36       0.0939
     70  N         16.8610   13.0510   14.2880 N.3    64  GLU64      -0.1245
     71  CA        16.5830   12.7330   15.6740 C.3    64  GLU64       0.1567
     72  C         15.1540   13.0970   16.0660 C.2    64  GLU64       0.2260
     73  O         14.6060   14.0910   15.5900 O.2    64  GLU64      -0.2867
     74  CB        17.5810   13.4930   16.5470 C.3    64  GLU64       0.0388
     75  CG        17.2570   13.5580   18.0170 C.3    64  GLU64       0.1160
     76  CD        18.1590   14.5400   18.7460 C.2    64  GLU64       0.3649
     77  OE1       19.3250   14.1970   19.0340 O.co2  64  GLU64      -0.2457
     78  OE2       17.7030   15.6690   19.0140 O.co2  64  GLU64      -0.2457
     79  N          7.6980    9.2600   37.4870 N.3    74  GLU74      -0.1245
     80  CA         8.7600   10.1630   37.0530 C.3    74  GLU74       0.1567
     81  C          8.6270   10.4930   35.5690 C.2    74  GLU74       0.2260
     82  O          8.3260    9.6220   34.7540 O.2    74  GLU74      -0.2867
     83  CB        10.1280    9.5320   37.3280 C.3    74  GLU74       0.0388
     84  CG        10.3250    9.1110   38.7810 C.3    74  GLU74       0.1160
     85  CD        10.4870   10.2920   39.7270 C.2    74  GLU74       0.3649
     86  OE1       10.3850   10.0840   40.9540 O.co2  74  GLU74      -0.2457
     87  OE2       10.7220   11.4230   39.2500 O.co2  74  GLU74      -0.2457
     88  N         15.6040   11.3430   23.6570 N.3    79  THR79      -0.1218
     89  CA        15.9270   11.6730   22.2720 C.3    79  THR79       0.1862
     90  C         16.4900   10.4090   21.6380 C.2    79  THR79       0.2287
     91  O         17.2080    9.6500   22.2870 O.2    79  THR79      -0.2866
     92  CB        17.0040   12.7690   22.1560 C.3    79  THR79       0.1770
     93  OG1       18.2520   12.2620   22.6490 O.3    79  THR79      -0.2211
     94  CG2       16.5990   14.0140   22.9360 C.3    79  THR79       0.0375
     95  N         18.4570    9.1280   18.0880 N.3    81  LYS81      -0.1245
     96  CA        19.1130    9.4430   16.8240 C.3    81  LYS81       0.1561
     97  C         19.0070    8.2110   15.9200 C.2    81  LYS81       0.2260
     98  O         19.3820    7.1080   16.3220 O.2    81  LYS81      -0.2867
     99  CB        20.5890    9.7870   17.0520 C.3    81  LYS81       0.0271
    100  CG        20.8290   11.1470   17.6880 C.3    81  LYS81       0.0035
    101  CD        22.3170   11.4760   17.7050 C.3    81  LYS81       0.0206
    102  CE        22.5720   12.9260   18.1020 C.3    81  LYS81       0.1093
    103  NZ        22.0580   13.2230   19.4650 N.3    81  LYS81      -0.1314
@<TRIPOS>BOND
     1    70    71    1
     2    73    72    2
     3    71    72    1
     4    71    74    1
     5    97    98    2
     6    97    96    1
     7    74    75    1
     8    96    99    1
     9    96    95    1
    10    99   100    1
    11   100   101    1
    12   101   102    1
    13    75    76    1
    14   102   103    1
    15    76    78   ar
    16    76    77   ar
    17    90    89    1
    18    90    91    2
    19    53    51    1
    20    92    89    1
    21    92    93    1
    22    92    94    1
    23    89    88    1
    24    51    50    1
    25    52    50    1
    26    50    47    1
    27    47    46    1
    28    47    48    1
    29    29    30    2
    30    29    28    1
    31    38    39    1
    32    46    40   am
    33    41    40    2
    34    40    39    1
    35    28    31    1
    36    28    27    1
    37    31    32    1
    38    33    32   ar
    39    33    35   ar
    40    39    42    1
    41    54    48   am
    42    54    55    1
    43    48    49    2
    44    57    56    2
    45    32    34   ar
    46    35    37   ar
    47    59    58    1
    48    59    60    1
    49    58    55    1
    50    55    56    1
    51    56    63   am
    52    66    65    2
    53    42    43    1
    54    65    64    1
    55    62    60   ar
    56    34    36   ar
    57    37    36   ar
    58    44    43    2
    59    60    61   ar
    60    43    45   am
    61    63    64    1
    62    63    69    1
    63    64    67    1
    64    69    68    1
    65    67    68    1
    66    24    25    1
    67    24    23    1
    68    26    25    1
    69    22    23    1
    70    22    19    1
    71    20    19    1
    72    20    21    2
    73    19    18    1
    74     8     7    1
    75    12    11    2
    76    18    11   am
    77     7     6    1
    78    11    10    1
    79     6     5    1
    80     4     3    2
    81     5     2    1
    82    10    13    1
    83    10     9    1
    84     3     9   am
    85     3     2    1
    86    13    14    1
    87     2     1    1
    88    82    81    2
    89    81    80    1
    90    14    15    1
    91    15    16    1
    92    80    83    1
    93    80    79    1
    94    83    84    1
    95    16    17    1
    96    84    85    1
    97    87    85   ar
    98    85    86   ar
