@<TRIPOS>MOLECULE
tmp/3i7vB01.pdb
 171 165 0 0 0
SMALL
GASTEIGER

@<TRIPOS>ATOM
      1  N         17.1950   10.7780   28.6200 N.3     4  GLU4       -0.1245
      2  CA        17.7490    9.5460   28.0730 C.3     4  GLU4        0.1567
      3  C         18.1180    9.7680   26.6240 C.2     4  GLU4        0.2260
      4  O         17.4480   10.5140   25.9040 O.2     4  GLU4       -0.2867
      5  CB        16.7570    8.3940   28.1730 C.3     4  GLU4        0.0388
      6  CG        16.6330    7.8030   29.5570 C.3     4  GLU4        0.1160
      7  CD        15.9120    6.4770   29.5370 C.2     4  GLU4        0.3649
      8  OE1       14.8140    6.4210   28.9540 O.co2   4  GLU4       -0.2457
      9  OE2       16.4410    5.4930   30.0980 O.co2   4  GLU4       -0.2457
     10  N         19.1200    7.6180   23.1520 N.3     6  SER6       -0.1217
     11  CA        19.2010    6.3640   22.4250 C.3     6  SER6        0.1889
     12  C         19.5540    6.6080   20.9630 C.2     6  SER6        0.2288
     13  O         19.5730    7.7480   20.4890 O.2     6  SER6       -0.2866
     14  CB        17.8690    5.6150   22.5140 C.3     6  SER6        0.2089
     15  OG        17.6990    5.0370   23.7950 O.3     6  SER6       -0.2183
     16  N          7.6530   -4.3500   20.0110 N.3    22  THR22      -0.1218
     17  CA         7.9940   -4.1160   21.4080 C.3    22  THR22       0.1862
     18  C          7.1090   -4.9030   22.3700 C.2    22  THR22       0.2287
     19  O          6.0550   -5.4090   21.9930 O.2    22  THR22      -0.2866
     20  CB         7.8620   -2.6190   21.7480 C.3    22  THR22       0.1770
     21  OG1        6.4780   -2.2410   21.7080 O.3    22  THR22      -0.2211
     22  CG2        8.6460   -1.7800   20.7410 C.3    22  THR22       0.0375
     23  N          5.2480   -3.8660   24.3820 N.3    24  SER24      -0.1217
     24  CA         3.9890   -3.1430   24.4750 C.3    24  SER24       0.1889
     25  C          3.1300   -3.3760   23.2390 C.2    24  SER24       0.2288
     26  O          2.0840   -2.7540   23.0770 O.2    24  SER24      -0.2866
     27  CB         4.2620   -1.6510   24.6470 C.3    24  SER24       0.2089
     28  OG         5.0360   -1.1570   23.5690 O.3    24  SER24      -0.2183
     29  N          8.0040   -0.9320   15.7810 N.3    28  SER28      -0.1217
     30  CA         8.8950    0.2190   15.7310 C.3    28  SER28       0.1889
     31  C         10.2510   -0.2260   15.1830 C.2    28  SER28       0.2288
     32  O         10.3840   -1.3530   14.6830 O.2    28  SER28      -0.2866
     33  CB         9.0430    0.8230   17.1340 C.3    28  SER28       0.2089
     34  OG         9.7340    2.0650   17.1000 O.3    28  SER28      -0.2183
     35  N         16.3350   -0.0060   18.5510 N.3    31  LYS31      -0.1231
     36  CA        17.1180    1.0840   19.1130 C.3    31  LYS31       0.1693
     37  C         17.5490    0.7320   20.5260 C.2    31  LYS31       0.2593
     38  O         17.1080   -0.2640   21.0860 O.2    31  LYS31      -0.2718
     39  CB        16.2890    2.3720   19.1360 C.3    31  LYS31       0.0285
     40  CG        15.1330    2.3260   20.1140 C.3    31  LYS31       0.0035
     41  CD        14.4240    3.6570   20.2220 C.3    31  LYS31       0.0206
     42  CE        13.6950    3.7580   21.5500 C.3    31  LYS31       0.1093
     43  NZ        12.6860    2.6820   21.7220 N.3    31  LYS31      -0.1314
     44  N         18.4090    1.5560   21.1040 N.am   32  GLY32      -0.1942
     45  CA        18.8600    1.2950   22.4550 C.3    32  GLY32       0.2014
     46  C         19.6480    2.4570   23.0070 C.2    32  GLY32       0.2638
     47  O         20.0740    3.3360   22.2590 O.2    32  GLY32      -0.2714
     48  N         19.8440    2.4570   24.3200 N.am   33  ASN33      -0.1972
     49  CA        20.5820    3.5180   24.9850 C.3    33  ASN33       0.1688
     50  C         22.0360    3.5200   24.5470 C.2    33  ASN33       0.2292
     51  O         22.6460    2.4650   24.3870 O.2    33  ASN33      -0.2864
     52  CB        20.5270    3.3300   26.4990 C.3    33  ASN33       0.1181
     53  CG        21.1730    4.4740   27.2440 C.2    33  ASN33       0.2629
     54  OD1       20.7300    5.6160   27.1420 O.2    33  ASN33      -0.2716
     55  ND2       22.2300    4.1760   27.9990 N.am   33  ASN33      -0.0877
     56  N         18.9990   -7.0220   18.7610 N.3    51  GLU51      -0.1245
     57  CA        17.5630   -7.2820   18.7520 C.3    51  GLU51       0.1567
     58  C         17.0230   -8.0940   17.5830 C.2    51  GLU51       0.2260
     59  O         15.9290   -8.6500   17.6840 O.2    51  GLU51      -0.2867
     60  CB        16.7810   -5.9650   18.8150 C.3    51  GLU51       0.0388
     61  CG        17.0920   -5.0890   20.0170 C.3    51  GLU51       0.1160
     62  CD        15.9940   -4.0690   20.2850 C.2    51  GLU51       0.3649
     63  OE1       15.5690   -3.3760   19.3340 O.co2  51  GLU51      -0.2457
     64  OE2       15.5550   -3.9620   21.4520 O.co2  51  GLU51      -0.2457
     65  N         14.5490   12.2740   16.9160 N.3    65  ILE65      -0.1245
     66  CA        13.2030   12.5450   17.4050 C.3    65  ILE65       0.1561
     67  C         13.2640   12.5580   18.9180 C.2    65  ILE65       0.2260
     68  O         14.2190   12.0530   19.5130 O.2    65  ILE65      -0.2867
     69  CB        12.1780   11.4740   16.9730 C.3    65  ILE65       0.0252
     70  CG1       12.6390   10.0880   17.4310 C.3    65  ILE65       0.0019
     71  CG2       11.9690   11.5420   15.4780 C.3    65  ILE65       0.0019
     72  CD1       11.6270    8.9850   17.1860 C.3    65  ILE65       0.0001
     73  N         10.6560   12.5980   22.7220 N.3    67  TYR67      -0.1227
     74  CA         9.3570   12.3590   23.3220 C.3    67  TYR67       0.1736
     75  C          9.5000   12.2690   24.8250 C.2    67  TYR67       0.2595
     76  O         10.5860   12.0020   25.3440 O.2    67  TYR67      -0.2718
     77  CB         8.7230   11.0670   22.7910 C.3    67  TYR67       0.0548
     78  CG         9.5850    9.8200   22.8730 C.ar   67  TYR67      -0.0200
     79  CD1       10.4680    9.4890   21.8410 C.ar   67  TYR67      -0.0009
     80  CD2        9.4890    8.9520   23.9610 C.ar   67  TYR67      -0.0009
     81  CE1       11.2290    8.3160   21.8880 C.ar   67  TYR67       0.0417
     82  CE2       10.2480    7.7740   24.0230 C.ar   67  TYR67       0.0417
     83  CZ        11.1090    7.4650   22.9810 C.ar   67  TYR67       0.1957
     84  OH        11.8270    6.2990   23.0240 O.3    67  TYR67      -0.2866
     85  N          8.4010   12.5290   25.5180 N.am   68  TRP68      -0.1962
     86  CA         8.3690   12.4500   26.9700 C.3    68  TRP68       0.1771
     87  C          7.5930   11.1980   27.3240 C.2    68  TRP68       0.2620
     88  O          6.6680   10.8170   26.6090 O.2    68  TRP68      -0.2715
     89  CB         7.6100   13.6290   27.5770 C.3    68  TRP68       0.0590
     90  CG         8.2670   14.9570   27.4610 C.ar   68  TRP68       0.0006
     91  CD1        9.1210   15.5310   28.3570 C.ar   68  TRP68       0.0946
     92  CD2        8.0870   15.9090   26.4080 C.ar   68  TRP68       0.0152
     93  NE1        9.4800   16.7880   27.9310 N.ar   68  TRP68      -0.2442
     94  CE2        8.8590   17.0450   26.7360 C.ar   68  TRP68       0.0810
     95  CE3        7.3470   15.9140   25.2180 C.ar   68  TRP68       0.0012
     96  CZ2        8.9130   18.1780   25.9160 C.ar   68  TRP68       0.0191
     97  CZ3        7.4010   17.0420   24.4010 C.ar   68  TRP68       0.0001
     98  CH2        8.1790   18.1570   24.7570 C.ar   68  TRP68       0.0015
     99  N          7.9670   10.5640   28.4270 N.am   69  TYR69      -0.1960
    100  CA         7.2380    9.4000   28.8970 C.3    69  TYR69       0.1771
    101  C          7.3880    9.3810   30.4060 C.2    69  TYR69       0.2620
    102  O          8.3140    9.9910   30.9490 O.2    69  TYR69      -0.2715
    103  CB         7.7780    8.1150   28.2510 C.3    69  TYR69       0.0574
    104  CG         9.0970    7.5850   28.7830 C.ar   69  TYR69      -0.0198
    105  CD1        9.1310    6.7050   29.8670 C.ar   69  TYR69      -0.0009
    106  CD2       10.3070    7.9050   28.1540 C.ar   69  TYR69      -0.0009
    107  CE1       10.3340    6.1480   30.3100 C.ar   69  TYR69       0.0417
    108  CE2       11.5190    7.3550   28.5900 C.ar   69  TYR69       0.0417
    109  CZ        11.5230    6.4760   29.6650 C.ar   69  TYR69       0.1957
    110  OH        12.7020    5.9140   30.0900 O.3    69  TYR69      -0.2866
    111  N          6.4590    8.7290   31.0920 N.am   70  THR70      -0.1951
    112  CA         6.5460    8.6310   32.5400 C.3    70  THR70       0.1897
    113  C          6.7740    7.1770   32.9360 C.2    70  THR70       0.2313
    114  O          6.3860    6.2580   32.2110 O.2    70  THR70      -0.2863
    115  CB         5.2540    9.1330   33.2470 C.3    70  THR70       0.1794
    116  OG1        4.1440    8.2980   32.8880 O.3    70  THR70      -0.2208
    117  CG2        4.9640   10.5830   32.8680 C.3    70  THR70       0.0378
    118  N         13.2980   11.9290   26.3670 N.3    78  LYS78      -0.1245
    119  CA        14.1960   11.0790   25.5950 C.3    78  LYS78       0.1561
    120  C         14.3800   11.5110   24.1520 C.2    78  LYS78       0.2260
    121  O         13.4410   11.9820   23.5040 O.2    78  LYS78      -0.2867
    122  CB        13.6750    9.6370   25.6360 C.3    78  LYS78       0.0271
    123  CG        14.5720    8.5760   24.9830 C.3    78  LYS78       0.0035
    124  CD        14.0590    7.1890   25.3650 C.3    78  LYS78       0.0206
    125  CE        14.9130    6.0510   24.8270 C.3    78  LYS78       0.1093
    126  NZ        14.4820    4.7690   25.4790 N.3    78  LYS78      -0.1314
    127  N         18.4900    8.4010   14.7070 N.3    82  TYR82      -0.1241
    128  CA        18.3240    7.2990   13.7610 C.3    82  TYR82       0.1605
    129  C         19.2600    7.3660   12.5600 C.2    82  TYR82       0.2264
    130  O         19.5280    8.4410   12.0170 O.2    82  TYR82      -0.2867
    131  CB        16.8710    7.2450   13.2840 C.3    82  TYR82       0.0534
    132  CG        15.9370    6.6650   14.3160 C.ar   82  TYR82      -0.0201
    133  CD1       15.8540    5.2850   14.5090 C.ar   82  TYR82      -0.0009
    134  CD2       15.1560    7.4920   15.1220 C.ar   82  TYR82      -0.0009
    135  CE1       15.0170    4.7440   15.4790 C.ar   82  TYR82       0.0417
    136  CE2       14.3170    6.9600   16.0910 C.ar   82  TYR82       0.0417
    137  CZ        14.2550    5.5860   16.2660 C.ar   82  TYR82       0.1957
    138  OH        13.4540    5.0600   17.2500 O.3    82  TYR82      -0.2866
    139  N          3.9190    5.2700   16.6550 N.3   115  TYR115     -0.1227
    140  CA         4.4670    6.4980   17.2170 C.3   115  TYR115      0.1736
    141  C          4.6600    7.5390   16.1220 C.2   115  TYR115      0.2595
    142  O          5.1750    7.2320   15.0470 O.2   115  TYR115     -0.2718
    143  CB         5.7970    6.1970   17.9070 C.3   115  TYR115      0.0548
    144  CG         5.6530    5.2660   19.0950 C.ar  115  TYR115     -0.0200
    145  CD1        6.4300    4.1150   19.2040 C.ar  115  TYR115     -0.0009
    146  CD2        4.7590    5.5580   20.1270 C.ar  115  TYR115     -0.0009
    147  CE1        6.3230    3.2760   20.3170 C.ar  115  TYR115      0.0417
    148  CE2        4.6470    4.7340   21.2370 C.ar  115  TYR115      0.0417
    149  CZ         5.4330    3.5960   21.3260 C.ar  115  TYR115      0.1957
    150  OH         5.3340    2.7970   22.4360 O.3   115  TYR115     -0.2866
    151  N          4.2330    8.7690   16.3990 N.am  116  LYS116     -0.1966
    152  CA         4.3590    9.8580   15.4380 C.3   116  LYS116      0.1728
    153  C          5.8230   10.0660   15.0630 C.2   116  LYS116      0.2617
    154  O          6.1390   10.3320   13.9090 O.2   116  LYS116     -0.2715
    155  CB         3.7730   11.1480   16.0280 C.3   116  LYS116      0.0311
    156  CG         3.6740   12.3010   15.0430 C.3   116  LYS116      0.0038
    157  CD         3.0030   13.5120   15.6800 C.3   116  LYS116      0.0206
    158  CE         3.7120   13.9260   16.9630 C.3   116  LYS116      0.1093
    159  NZ         5.1540   14.2430   16.7420 N.3   116  LYS116     -0.1314
    160  N          6.7140    9.9500   16.0440 N.am  117  GLY117     -0.1940
    161  CA         8.1330   10.1090   15.7710 C.3   117  GLY117      0.2014
    162  C          8.5820    9.0820   14.7430 C.2   117  GLY117      0.2638
    163  O          9.3290    9.4010   13.8150 O.2   117  GLY117     -0.2714
    164  N          8.1300    7.8410   14.9130 N.am  118  ASP118     -0.1971
    165  CA         8.4730    6.7620   13.9890 C.3   118  ASP118      0.1709
    166  C          8.0080    7.0360   12.5620 C.2   118  ASP118      0.2293
    167  O          8.7220    6.7380   11.6030 O.2   118  ASP118     -0.2864
    168  CB         7.8740    5.4290   14.4650 C.3   118  ASP118      0.1436
    169  CG         8.6680    4.8020   15.5910 C.2   118  ASP118      0.3671
    170  OD1        9.8330    5.2150   15.7890 O.co2 118  ASP118     -0.2456
    171  OD2        8.1460    3.8890   16.2680 O.co2 118  ASP118     -0.2456
@<TRIPOS>BOND
     1   167   166    2
     2   130   129    2
     3   129   128    1
     4   166   165    1
     5   131   128    1
     6   131   132    1
     7   128   127    1
     8   163   162    2
     9   154   153    2
    10   165   168    1
    11   165   164    1
    12   132   133   ar
    13   132   134   ar
    14   168   169    1
    15   133   135   ar
    16    32    31    2
    17   162   164   am
    18   162   161    1
    19   156   157    1
    20   156   155    1
    21   142   141    2
    22   153   152    1
    23   153   160   am
    24   134   136   ar
    25    31    30    1
    26   152   155    1
    27   152   151    1
    28    71    69    1
    29   135   137   ar
    30   169   170   ar
    31   169   171   ar
    32   157   158    1
    33    30    29    1
    34    30    33    1
    35   161   160    1
    36   136   137   ar
    37   141   151   am
    38   141   140    1
    39   137   138    1
    40   139   140    1
    41   159   158    1
    42    65    66    1
    43    69    66    1
    44    69    70    1
    45    34    33    1
    46    72    70    1
    47   140   143    1
    48    66    67    1
    49    58    59    2
    50    58    57    1
    51   143   144    1
    52    35    36    1
    53    57    56    1
    54    57    60    1
    55    60    61    1
    56    67    68    2
    57   144   145   ar
    58   144   146   ar
    59    36    39    1
    60    36    37    1
    61    39    40    1
    62   145   147   ar
    63    63    62   ar
    64    16    17    1
    65    61    62    1
    66    40    41    1
    67   146   148   ar
    68    41    42    1
    69    62    64   ar
    70   147   149   ar
    71    13    12    2
    72    37    38    2
    73    37    44   am
    74    22    20    1
    75    12    11    1
    76    44    45    1
    77   148   149   ar
    78   149   150    1
    79    17    20    1
    80    17    18    1
    81    42    43    1
    82    21    20    1
    83    79    81   ar
    84    79    78   ar
    85    81    83   ar
    86    19    18    2
    87    47    46    2
    88    11    14    1
    89    11    10    1
    90    45    46    1
    91    14    15    1
    92    73    74    1
    93    77    78    1
    94    77    74    1
    95    78    80   ar
    96    83    84    1
    97    83    82   ar
    98    46    48   am
    99    26    25    2
   100    25    24    1
   101    74    75    1
   102   121   120    2
   103    28    27    1
   104    80    82   ar
   105   120   119    1
   106    48    49    1
   107    23    24    1
   108    51    50    2
   109    97    98   ar
   110    97    95   ar
   111    24    27    1
   112    50    49    1
   113    98    96   ar
   114    75    76    2
   115    75    85   am
   116   125   124    1
   117   125   126    1
   118   123   124    1
   119   123   122    1
   120    49    52    1
   121    95    92   ar
   122    85    86    1
   123   119   122    1
   124   119   118    1
   125     4     3    2
   126    96    94   ar
   127    92    94   ar
   128    92    90   ar
   129    52    53    1
   130    88    87    2
   131     3     2    1
   132    94    93   ar
   133    86    87    1
   134    86    89    1
   135    54    53    2
   136    53    55   am
   137    87    99   am
   138    90    89    1
   139    90    91   ar
   140    93    91   ar
   141     2     5    1
   142     2     1    1
   143   106   108   ar
   144   106   104   ar
   145     5     6    1
   146   103   104    1
   147   103   100    1
   148    99   100    1
   149   108   109   ar
   150   104   105   ar
   151   100   101    1
   152     8     7   ar
   153     7     6    1
   154     7     9   ar
   155   109   110    1
   156   109   107   ar
   157   105   107   ar
   158   101   102    2
   159   101   111   am
   160   111   112    1
   161   114   113    2
   162   112   113    1
   163   112   115    1
   164   117   115    1
   165   116   115    1
