@<TRIPOS>MOLECULE
tmp/3i7zA00.pdb
 154 148 0 0 0
SMALL
GASTEIGER

@<TRIPOS>ATOM
      1  N        -19.8410  -23.8170   -7.0840 N.3    23  ARG23      -0.1245
      2  CA       -19.9030  -25.1470   -6.4720 C.3    23  ARG23       0.1563
      3  C        -21.3290  -25.6810   -6.3520 C.2    23  ARG23       0.2260
      4  O        -21.5770  -26.8810   -6.5140 O.2    23  ARG23      -0.2867
      5  CB       -19.2520  -25.1270   -5.0940 C.3    23  ARG23       0.0307
      6  CG       -17.7590  -24.9160   -5.1380 C.3    23  ARG23       0.0489
      7  CD       -17.1560  -24.7710   -3.7440 C.3    23  ARG23       0.2205
      8  NE       -17.4850  -25.9050   -2.8890 N.pl3  23  ARG23      -0.0865
      9  CZ       -16.5830  -26.6590   -2.2530 C.cat  23  ARG23       0.5346
     10  NH1      -15.2560  -26.3950   -2.3550 N.pl3  23  ARG23       0.1354
     11  NH2      -17.0160  -27.6820   -1.5030 N.pl3  23  ARG23       0.1354
     12  N        -10.6140  -49.9110   -6.4360 N.3    40  LYS40      -0.1245
     13  CA       -10.2590  -49.1530   -5.2510 C.3    40  LYS40       0.1561
     14  C         -8.8280  -48.6720   -5.3740 C.2    40  LYS40       0.2260
     15  O         -8.5550  -47.4780   -5.2620 O.2    40  LYS40      -0.2867
     16  CB       -10.4050  -50.0170   -4.0030 C.3    40  LYS40       0.0271
     17  CG       -10.0800  -49.2930   -2.7030 C.3    40  LYS40       0.0035
     18  CD       -11.3350  -48.9200   -1.9380 C.3    40  LYS40       0.0206
     19  CE       -12.0840  -50.1700   -1.4930 C.3    40  LYS40       0.1093
     20  NZ       -13.2510  -49.8690   -0.6110 N.3    40  LYS40      -0.1314
     21  N         -7.3000  -45.5610   -7.5520 N.3    43  ASN43      -0.1225
     22  CA        -7.6310  -44.1820   -7.2100 C.3    43  ASN43       0.1785
     23  C         -6.8120  -43.6710   -6.0500 C.2    43  ASN43       0.2597
     24  O         -6.7780  -44.3000   -4.9920 O.2    43  ASN43      -0.2718
     25  CB        -9.1260  -44.0440   -6.8340 C.3    43  ASN43       0.1169
     26  CG       -10.0320  -44.2290   -8.0160 C.2    43  ASN43       0.2627
     27  OD1       -9.9540  -43.4800   -8.9890 O.2    43  ASN43      -0.2716
     28  ND2      -10.8790  -45.2460   -7.9580 N.am   43  ASN43      -0.0877
     29  N         -6.1930  -42.5110   -6.2370 N.am   44  ARG44      -0.1966
     30  CA        -5.3830  -41.8980   -5.2030 C.3    44  ARG44       0.1729
     31  C         -6.3220  -41.3120   -4.1660 C.2    44  ARG44       0.2616
     32  O         -6.0840  -41.4230   -2.9680 O.2    44  ARG44      -0.2715
     33  CB        -4.4790  -40.8160   -5.8090 C.3    44  ARG44       0.0348
     34  CG        -3.6980  -39.9890   -4.7910 C.3    44  ARG44       0.0492
     35  CD        -2.7430  -39.0320   -5.4780 C.3    44  ARG44       0.2205
     36  NE        -1.6910  -39.7330   -6.2210 N.pl3  44  ARG44      -0.0865
     37  CZ        -0.6360  -40.3250   -5.6550 C.cat  44  ARG44       0.5346
     38  NH1       -0.4690  -40.3190   -4.3300 N.pl3  44  ARG44       0.1354
     39  NH2        0.2460  -40.9400   -6.4090 N.pl3  44  ARG44       0.1354
     40  N         -7.3970  -40.6960   -4.6390 N.am   45  TYR45      -0.1960
     41  CA        -8.4160  -40.1490   -3.7540 C.3    45  TYR45       0.1771
     42  C         -9.7830  -40.7310   -4.0430 C.2    45  TYR45       0.2619
     43  O        -10.2980  -40.6340   -5.1570 O.2    45  TYR45      -0.2715
     44  CB        -8.4840  -38.6430   -3.8830 C.3    45  TYR45       0.0574
     45  CG        -7.1760  -37.9820   -3.6160 C.ar   45  TYR45      -0.0198
     46  CD1       -6.6420  -37.9720   -2.3480 C.ar   45  TYR45      -0.0009
     47  CD2       -6.4680  -37.3740   -4.6320 C.ar   45  TYR45      -0.0009
     48  CE1       -5.4440  -37.3650   -2.0890 C.ar   45  TYR45       0.0417
     49  CE2       -5.2630  -36.7670   -4.3910 C.ar   45  TYR45       0.0417
     50  CZ        -4.7580  -36.7590   -3.1120 C.ar   45  TYR45       0.1957
     51  OH        -3.5460  -36.1540   -2.8520 O.3    45  TYR45      -0.2866
     52  N        -10.3720  -41.3330   -3.0210 N.am   46  ARG46      -0.1963
     53  CA       -11.7160  -41.9070   -3.1400 C.3    46  ARG46       0.1729
     54  C        -12.8350  -40.8670   -3.2590 C.2    46  ARG46       0.2616
     55  O        -13.9680  -41.2290   -3.5420 O.2    46  ARG46      -0.2715
     56  CB       -12.0130  -42.8940   -2.0100 C.3    46  ARG46       0.0348
     57  CG       -12.2340  -42.2620   -0.6650 C.3    46  ARG46       0.0492
     58  CD       -12.6370  -43.3320    0.3270 C.3    46  ARG46       0.2205
     59  NE       -12.4600  -42.9090    1.7110 N.pl3  46  ARG46      -0.0865
     60  CZ       -12.5730  -43.7230    2.7550 C.cat  46  ARG46       0.5346
     61  NH1      -12.3950  -43.2580    3.9850 N.pl3  46  ARG46       0.1354
     62  NH2      -12.8630  -45.0050    2.5670 N.pl3  46  ARG46       0.1354
     63  N        -12.5090  -39.5890   -3.0760 N.am   47  ASP47      -0.1957
     64  CA       -13.4790  -38.5110   -3.2620 C.3    47  ASP47       0.1840
     65  C        -13.1610  -37.6100   -4.4540 C.2    47  ASP47       0.2621
     66  O        -13.7250  -36.5260   -4.5910 O.2    47  ASP47      -0.2715
     67  CB       -13.5730  -37.6590   -2.0060 C.3    47  ASP47       0.1450
     68  CG       -12.2520  -37.0170   -1.6470 C.2    47  ASP47       0.3671
     69  OD1      -12.2580  -35.8190   -1.2770 O.co2  47  ASP47      -0.2456
     70  OD2      -11.2080  -37.7070   -1.7530 O.co2  47  ASP47      -0.2456
     71  N        -12.2300  -38.0370   -5.2980 N.am   48  VAL48      -0.1977
     72  CA       -12.0250  -37.4070   -6.5910 C.3    48  VAL48       0.1596
     73  C        -12.0600  -38.5200   -7.6270 C.2    48  VAL48       0.2287
     74  O        -11.1150  -39.2870   -7.7390 O.2    48  VAL48      -0.2864
     75  CB       -10.6830  -36.6620   -6.6810 C.3    48  VAL48       0.0276
     76  CG1      -10.4980  -36.1020   -8.0840 C.3    48  VAL48       0.0022
     77  CG2      -10.6170  -35.5420   -5.6350 C.3    48  VAL48       0.0022
     78  N          2.5940  -37.0410   -2.9640 N.3   119  LYS119     -0.1245
     79  CA         1.4970  -36.5000   -3.7640 C.3   119  LYS119      0.1561
     80  C          1.3400  -37.1730   -5.1190 C.2   119  LYS119      0.2260
     81  O          0.2720  -37.0640   -5.7480 O.2   119  LYS119     -0.2867
     82  CB         1.6750  -34.9900   -3.9710 C.3   119  LYS119      0.0271
     83  CG         1.5290  -34.1590   -2.7100 C.3   119  LYS119      0.0035
     84  CD         0.2230  -34.4650   -2.0100 C.3   119  LYS119      0.0206
     85  CE        -0.2450  -33.2690   -1.2250 C.3   119  LYS119      0.1093
     86  NZ        -0.3140  -32.0760   -2.0980 N.3   119  LYS119     -0.1314
     87  N         -0.0700  -27.0900   -3.5500 N.3   180  ASP180     -0.1225
     88  CA        -1.3950  -27.6790   -3.5220 C.3   180  ASP180      0.1805
     89  C         -2.3520  -26.7090   -2.8270 C.2   180  ASP180      0.2597
     90  O         -2.0620  -26.2170   -1.7450 O.2   180  ASP180     -0.2718
     91  CB        -1.3820  -29.0420   -2.8220 C.3   180  ASP180      0.1424
     92  CG        -2.5860  -29.8850   -3.1820 C.2   180  ASP180      0.3668
     93  OD1       -3.4410  -29.3580   -3.9180 O.co2 180  ASP180     -0.2456
     94  OD2       -2.6900  -31.0640   -2.7540 O.co2 180  ASP180     -0.2456
     95  N         -3.4760  -26.4220   -3.4780 N.am  181  PHE181     -0.1976
     96  CA        -4.5050  -25.5170   -2.9440 C.3   181  PHE181      0.1639
     97  C         -4.0040  -24.0830   -2.8960 C.2   181  PHE181      0.2290
     98  O         -4.5480  -23.2420   -2.1920 O.2   181  PHE181     -0.2864
     99  CB        -4.9920  -25.9750   -1.5610 C.3   181  PHE181      0.0560
    100  CG        -6.0130  -27.0960   -1.6080 C.ar  181  PHE181     -0.0200
    101  CD1       -5.6150  -28.4130   -1.6700 C.ar  181  PHE181     -0.0042
    102  CD2       -7.3620  -26.8250   -1.5640 C.ar  181  PHE181     -0.0042
    103  CE1       -6.5400  -29.4410   -1.7170 C.ar  181  PHE181     -0.0003
    104  CE2       -8.2920  -27.8510   -1.5980 C.ar  181  PHE181     -0.0003
    105  CZ        -7.8660  -29.1620   -1.6930 C.ar  181  PHE181     -0.0000
    106  N         -2.1930  -32.8520  -11.4600 N.3   214  CYS214     -0.1221
    107  CA        -1.4880  -32.3940  -10.2850 C.3   214  CYS214      0.1808
    108  C         -1.5620  -33.6230   -9.3850 C.2   214  CYS214      0.2602
    109  O         -1.3510  -34.7250   -9.8690 O.2   214  CYS214     -0.2717
    110  CB        -2.1210  -31.1350   -9.6760 C.3   214  CYS214      0.0970
    111  SG        -3.9480  -31.0650   -9.6030 S.3   214  CYS214     -0.0800
    112  N         -1.8320  -33.4950   -8.0980 N.am  215  SER215     -0.1938
    113  CA        -1.9870  -34.7090   -7.2970 C.3   215  SER215      0.2055
    114  C         -3.3810  -35.3610   -7.5380 C.2   215  SER215      0.2642
    115  O         -3.4820  -36.5650   -7.8410 O.2   215  SER215     -0.2714
    116  CB        -1.7120  -34.4260   -5.8180 C.3   215  SER215      0.2130
    117  OG        -1.9250  -35.5830   -5.0270 O.3   215  SER215     -0.2179
    118  N         -4.4420  -34.5590   -7.4340 N.am  216  ALA216     -0.1977
    119  CA        -5.8010  -35.0300   -7.6430 C.3   216  ALA216      0.1597
    120  C         -6.2970  -34.7610   -9.0580 C.2   216  ALA216      0.2287
    121  O         -7.2300  -35.4170   -9.5250 O.2   216  ALA216     -0.2864
    122  CB        -6.7450  -34.3900   -6.6460 C.3   216  ALA216      0.0319
    123  N         -7.6310  -31.8210  -10.2760 N.3   218  ILE218     -0.1231
    124  CA        -8.7950  -30.9300  -10.3390 C.3   218  ILE218      0.1692
    125  C         -8.4730  -29.4640  -10.0410 C.2   218  ILE218      0.2593
    126  O         -8.9210  -28.5770  -10.7490 O.2   218  ILE218     -0.2718
    127  CB        -9.8860  -31.4270   -9.3710 C.3   218  ILE218      0.0266
    128  CG1       -9.2830  -31.7250   -7.9970 C.3   218  ILE218      0.0019
    129  CG2      -10.5300  -32.6980   -9.9020 C.3   218  ILE218      0.0020
    130  CD1      -10.2950  -32.1930   -6.9750 C.3   218  ILE218      0.0001
    131  N         -7.6760  -29.2160   -9.0040 N.am  219  GLY219     -0.1942
    132  CA        -7.4020  -27.8590   -8.5590 C.3   219  GLY219      0.2014
    133  C         -6.5190  -27.0000   -9.4200 C.2   219  GLY219      0.2638
    134  O         -6.9820  -26.0480  -10.0600 O.2   219  GLY219     -0.2714
    135  N         -5.2240  -27.3300   -9.4250 N.am  220  ARG220     -0.1977
    136  CA        -4.2750  -26.5990  -10.2230 C.3   220  ARG220      0.1597
    137  C         -4.5200  -26.9910  -11.6680 C.2   220  ARG220      0.2287
    138  O         -4.4320  -26.1480  -12.5790 O.2   220  ARG220     -0.2864
    139  CB        -2.8340  -26.8900   -9.7980 C.3   220  ARG220      0.0334
    140  CG        -2.4950  -26.4220   -8.3930 C.3   220  ARG220      0.0492
    141  CD        -1.2200  -27.0760   -7.8860 C.3   220  ARG220      0.2205
    142  NE        -1.4600  -28.4250   -7.3790 N.pl3 220  ARG220     -0.0865
    143  CZ        -0.5930  -29.1100   -6.6420 C.cat 220  ARG220      0.5346
    144  NH1        0.5760  -28.5740   -6.3210 N.pl3 220  ARG220      0.1354
    145  NH2       -0.8980  -30.3320   -6.2270 N.pl3 220  ARG220      0.1354
    146  N        -10.2120  -25.7100   -6.9140 N.3   261  GLN261     -0.1245
    147  CA       -10.5440  -26.1110   -5.5680 C.3   261  GLN261      0.1566
    148  C        -10.6380  -24.9880   -4.5360 C.2   261  GLN261      0.2260
    149  O        -10.9790  -25.2570   -3.4240 O.2   261  GLN261     -0.2867
    150  CB        -9.4980  -27.0970   -5.0730 C.3   261  GLN261      0.0367
    151  CG        -9.6200  -28.5060   -5.5250 C.3   261  GLN261      0.0905
    152  CD       -10.8780  -29.1680   -5.0270 C.2   261  GLN261      0.2608
    153  OE1      -10.9030  -29.7800   -3.9690 O.2   261  GLN261     -0.2717
    154  NE2      -11.9380  -29.0480   -5.7970 N.am  261  GLN261     -0.0878
@<TRIPOS>BOND
     1   138   137    2
     2   137   136    1
     3   106   107    1
     4   126   125    2
     5   124   123    1
     6   124   125    1
     7   124   127    1
     8   107   110    1
     9   107   108    1
    10   136   139    1
    11   136   135    1
    12   134   133    2
    13   125   131   am
    14   129   127    1
    15   109   108    2
    16   139   140    1
    17   110   111    1
    18   121   120    2
    19   135   133   am
    20   133   132    1
    21   108   112   am
    22   127   128    1
    23   120   119    1
    24   131   132    1
    25    27    26    2
    26   140   141    1
    27   112   113    1
    28    76    75    1
    29    26    28   am
    30    26    25    1
    31   128   130    1
    32   141   142    1
    33   115   114    2
    34    74    73    2
    35   119   118    1
    36   119   122    1
    37    73    72    1
    38    21    22    1
    39   114   118   am
    40   114   113    1
    41   142   143    2
    42   113   116    1
    43    22    25    1
    44    22    23    1
    45     1     2    1
    46   146   147    1
    47    75    72    1
    48    75    77    1
    49   143   144    1
    50   143   145    1
    51    72    71    1
    52     4     3    2
    53     2     3    1
    54     2     5    1
    55    12    13    1
    56    39    37    1
    57    29    23   am
    58    29    30    1
    59    36    37    2
    60    36    35    1
    61    23    24    2
    62   116   117    1
    63    33    30    1
    64    33    34    1
    65   154   152   am
    66    81    80    2
    67    37    38    1
    68   147   150    1
    69   147   148    1
    70   151   150    1
    71   151   152    1
    72    35    34    1
    73    14    15    2
    74    14    13    1
    75    71    65   am
    76    13    16    1
    77    30    31    1
    78    43    42    2
    79     6     5    1
    80     6     7    1
    81    80    79    1
    82   152   153    2
    83    40    31   am
    84    40    41    1
    85    47    49   ar
    86    47    45   ar
    87    66    65    2
    88   148   149    2
    89    65    64    1
    90    49    50   ar
    91    31    32    2
    92    42    41    1
    93    42    52   am
    94    16    17    1
    95    82    79    1
    96    82    83    1
    97    93    92   ar
    98    44    41    1
    99    44    45    1
   100    79    78    1
   101     7     8    1
   102    45    46   ar
   103    87    88    1
   104    55    54    2
   105    88    89    1
   106    88    91    1
   107    95    96    1
   108    95    89   am
   109    64    63    1
   110    64    67    1
   111    54    53    1
   112    54    63   am
   113    92    91    1
   114    92    94   ar
   115    53    52    1
   116    53    56    1
   117    50    51    1
   118    50    48   ar
   119    96    97    1
   120    96    99    1
   121    97    98    2
   122     8     9    2
   123    89    90    2
   124    83    84    1
   125    17    18    1
   126    10     9    1
   127    46    48   ar
   128     9    11    1
   129    86    85    1
   130    84    85    1
   131    56    57    1
   132    67    68    1
   133    18    19    1
   134    70    68   ar
   135   103   105   ar
   136   103   101   ar
   137   105   104   ar
   138   101   100   ar
   139    68    69   ar
   140   100   102   ar
   141   100    99    1
   142   104   102   ar
   143    19    20    1
   144    57    58    1
   145    58    59    1
   146    59    60    2
   147    62    60    1
   148    60    61    1
