@<TRIPOS>MOLECULE
tmp/3i81A00.pdb
 185 175 0 0 0
SMALL
GASTEIGER

@<TRIPOS>ATOM
      1  N        -20.5340    6.3040    5.8620 N.3    21  LEU21      -0.1231
      2  CA       -19.4330    6.5010    6.8040 C.3    21  LEU21       0.1693
      3  C        -18.1140    6.3420    6.0560 C.2    21  LEU21       0.2593
      4  O        -17.1910    7.1300    6.2600 O.2    21  LEU21      -0.2718
      5  CB       -19.5030    5.5180    7.9910 C.3    21  LEU21       0.0284
      6  CG       -20.5100    5.8310    9.1000 C.3    21  LEU21       0.0019
      7  CD1      -20.6670    4.6470   10.0290 C.3    21  LEU21       0.0001
      8  CD2      -20.1040    7.0630    9.9070 C.3    21  LEU21       0.0001
      9  N        -18.0570    5.3390    5.1810 N.am   22  GLY22      -0.1942
     10  CA       -16.8880    5.0230    4.3700 C.3    22  GLY22       0.2014
     11  C        -16.8830    3.5970    3.8610 C.2    22  GLY22       0.2638
     12  O        -17.6620    2.7600    4.3250 O.2    22  GLY22      -0.2714
     13  N        -16.0010    3.3170    2.8930 N.am   23  GLN23      -0.1977
     14  CA       -15.8500    2.0060    2.2710 C.3    23  GLN23       0.1601
     15  C        -15.1900    1.0110    3.2280 C.2    23  GLN23       0.2287
     16  O        -14.1520    1.3100    3.8210 O.2    23  GLN23      -0.2864
     17  CB       -15.0480    2.1310    0.9560 C.3    23  GLN23       0.0394
     18  CG       -14.8360    0.8230    0.1770 C.3    23  GLN23       0.0908
     19  CD       -16.0910    0.2610   -0.4510 C.2    23  GLN23       0.2608
     20  OE1      -16.9030    0.9780   -1.0490 O.2    23  GLN23      -0.2717
     21  NE2      -16.2540   -1.0500   -0.3660 N.am   23  GLN23      -0.0878
     22  N        -20.0960    1.0870    4.2500 N.3    29  VAL29      -0.1245
     23  CA       -20.5400    1.1480    5.6410 C.3    29  VAL29       0.1561
     24  C        -21.3500    2.4290    5.8090 C.2    29  VAL29       0.2260
     25  O        -20.8990    3.5090    5.4190 O.2    29  VAL29      -0.2867
     26  CB       -19.3810    1.0080    6.6650 C.3    29  VAL29       0.0252
     27  CG1      -19.8880    1.0800    8.1070 C.3    29  VAL29       0.0019
     28  CG2      -18.6110   -0.2890    6.4390 C.3    29  VAL29       0.0019
     29  N        -23.8230    1.9070   13.3230 N.3    47  ALA47      -0.1245
     30  CA       -22.9980    1.8130   12.1260 C.3    47  ALA47       0.1562
     31  C        -23.3970    0.4810   11.4810 C.2    47  ALA47       0.2260
     32  O        -23.5020   -0.5330   12.1780 O.2    47  ALA47      -0.2867
     33  CB       -21.5250    1.8150   12.4930 C.3    47  ALA47       0.0290
     34  N        -22.5730   -2.2340    8.4870 N.3    49  LYS49      -0.1245
     35  CA       -21.6340   -2.7730    7.5050 C.3    49  LYS49       0.1561
     36  C        -22.4320   -3.5780    6.4910 C.2    49  LYS49       0.2260
     37  O        -23.2800   -4.3820    6.8820 O.2    49  LYS49      -0.2867
     38  CB       -20.5830   -3.6740    8.1690 C.3    49  LYS49       0.0271
     39  CG       -19.6640   -2.9740    9.1680 C.3    49  LYS49       0.0035
     40  CD       -18.3870   -3.7740    9.4320 C.3    49  LYS49       0.0206
     41  CE       -18.6030   -5.0800   10.1630 C.3    49  LYS49       0.1093
     42  NZ       -17.3410   -5.8560   10.2640 N.3    49  LYS49      -0.1314
     43  N        -15.1030   -1.5490   20.4740 N.3    79  VAL79      -0.1245
     44  CA       -16.2820   -1.2910   19.6250 C.3    79  VAL79       0.1561
     45  C        -17.1610   -2.5520   19.6020 C.2    79  VAL79       0.2260
     46  O        -16.6720   -3.6360   19.2840 O.2    79  VAL79      -0.2867
     47  CB       -15.9070   -0.7780   18.2030 C.3    79  VAL79       0.0252
     48  CG1      -17.1370   -0.6690   17.2990 C.3    79  VAL79       0.0019
     49  CG2      -15.1830    0.5630   18.2790 C.3    79  VAL79       0.0019
     50  N        -23.1080   -2.5010   14.0890 N.3    95  MET95      -0.1230
     51  CA       -22.0240   -2.1460   14.9970 C.3    95  MET95       0.1702
     52  C        -22.3320   -0.8790   15.7840 C.2    95  MET95       0.2592
     53  O        -23.1990   -0.0920   15.3940 O.2    95  MET95      -0.2718
     54  CB       -20.7190   -1.9450   14.2020 C.3    95  MET95       0.0401
     55  CG       -20.1160   -3.2230   13.6690 C.3    95  MET95       0.0596
     56  SD       -19.1850   -4.1160   14.9280 S.3    95  MET95      -0.1393
     57  CE       -18.7320   -5.5150   14.0310 C.3    95  MET95       0.0692
     58  N        -21.5890   -0.6800   16.8850 N.am   96  GLU96      -0.1966
     59  CA       -21.6480    0.5020   17.7390 C.3    96  GLU96       0.1733
     60  C        -21.1110    1.6840   16.9150 C.2    96  GLU96       0.2616
     61  O        -20.0980    1.5370   16.2260 O.2    96  GLU96      -0.2715
     62  CB       -20.7690    0.2710   18.9790 C.3    96  GLU96       0.0429
     63  CG       -20.8530    1.3700   20.0230 C.3    96  GLU96       0.1163
     64  CD       -19.7810    1.3410   21.0960 C.2    96  GLU96       0.3649
     65  OE1      -19.1990    0.2600   21.3430 O.co2  96  GLU96      -0.2457
     66  OE2      -19.5410    2.4040   21.7100 O.co2  96  GLU96      -0.2457
     67  N        -21.8040    2.8340   16.9630 N.am   97  LEU97      -0.1963
     68  CA       -21.4080    4.0180   16.2060 C.3    97  LEU97       0.1728
     69  C        -20.3510    4.8590   16.9200 C.2    97  LEU97       0.2616
     70  O        -20.5100    5.2060   18.0910 O.2    97  LEU97      -0.2715
     71  CB       -22.6330    4.8680   15.8010 C.3    97  LEU97       0.0311
     72  CG       -22.3830    6.1110   14.9250 C.3    97  LEU97       0.0022
     73  CD1      -21.8520    5.7370   13.5410 C.3    97  LEU97       0.0001
     74  CD2      -23.6470    6.9350   14.7840 C.3    97  LEU97       0.0001
     75  N        -19.2700    5.1790   16.1910 N.am   98  MET98      -0.1963
     76  CA       -18.1490    6.0010   16.6510 C.3    98  MET98       0.1736
     77  C        -18.0800    7.1850   15.6860 C.2    98  MET98       0.2617
     78  O        -17.4510    7.0910   14.6340 O.2    98  MET98      -0.2715
     79  CB       -16.8360    5.1840   16.6620 C.3    98  MET98       0.0427
     80  CG       -16.9220    3.8860   17.4690 C.3    98  MET98       0.0599
     81  SD       -17.1420    4.1260   19.2520 S.3    98  MET98      -0.1393
     82  CE       -15.4710    4.5370   19.7190 C.3    98  MET98       0.0692
     83  N        -18.8000    8.2740   16.0220 N.am   99  THR99      -0.1937
     84  CA       -18.9610    9.4830   15.1950 C.3    99  THR99       0.2028
     85  C        -17.6860   10.2460   14.8190 C.2    99  THR99       0.2642
     86  O        -17.6970   10.9650   13.8190 O.2    99  THR99      -0.2714
     87  CB       -19.9980   10.4360   15.8080 C.3    99  THR99       0.1808
     88  OG1      -19.5430   10.8450   17.0940 O.3    99  THR99      -0.2208
     89  CG2      -21.3920    9.8260   15.9010 C.3    99  THR99       0.0379
     90  N        -16.6060   10.1200   15.6130 N.am  100  ARG100     -0.1963
     91  CA       -15.3590   10.8500   15.3590 C.3   100  ARG100      0.1729
     92  C        -14.2850   10.0840   14.5660 C.2   100  ARG100      0.2617
     93  O        -13.1620   10.5760   14.4090 O.2   100  ARG100     -0.2715
     94  CB       -14.8240   11.5080   16.6450 C.3   100  ARG100      0.0348
     95  CG       -15.8190   12.4990   17.2380 C.3   100  ARG100      0.0492
     96  CD       -15.2950   13.2210   18.4600 C.3   100  ARG100      0.2205
     97  NE       -16.3560   13.9840   19.1250 N.pl3 100  ARG100     -0.0865
     98  CZ       -16.7290   15.2160   18.7870 C.cat 100  ARG100      0.5346
     99  NH1      -16.1220   15.8530   17.7910 N.pl3 100  ARG100      0.1354
    100  NH2      -17.7010   15.8260   19.4510 N.pl3 100  ARG100      0.1354
    101  N        -14.6630    8.9220   14.0310 N.am  101  GLY101     -0.1940
    102  CA       -13.8010    8.0800   13.2050 C.3   101  GLY101      0.2014
    103  C        -12.6140    7.4740   13.9200 C.2   101  GLY101      0.2638
    104  O        -12.6250    7.3410   15.1470 O.2   101  GLY101     -0.2714
    105  N        -11.5840    7.0830   13.1470 N.am  102  ASP102     -0.1971
    106  CA       -10.3780    6.4780   13.7070 C.3   102  ASP102      0.1709
    107  C         -9.4860    7.4840   14.4240 C.2   102  ASP102      0.2293
    108  O         -9.5180    8.6710   14.0940 O.2   102  ASP102     -0.2864
    109  CB        -9.6190    5.6230   12.6760 C.3   102  ASP102      0.1436
    110  CG        -8.9920    6.4010   11.5420 C.2   102  ASP102      0.3671
    111  OD1       -7.8640    6.8980   11.7200 O.co2 102  ASP102     -0.2456
    112  OD2       -9.6120    6.4760   10.4620 O.co2 102  ASP102     -0.2456
    113  N         -4.8060    4.1470   13.8630 N.3   154  ARG154     -0.1231
    114  CA        -5.7320    3.9100   12.7460 C.3   154  ARG154      0.1694
    115  C         -6.7310    2.7730   13.0410 C.2   154  ARG154      0.2592
    116  O         -7.7740    2.6990   12.3910 O.2   154  ARG154     -0.2718
    117  CB        -4.9570    3.6550   11.4360 C.3   154  ARG154      0.0321
    118  CG        -4.2200    2.3210   11.4170 C.3   154  ARG154      0.0489
    119  CD        -3.3400    2.1110   10.2090 C.3   154  ARG154      0.2205
    120  NE        -2.5870    0.8680   10.3690 N.pl3 154  ARG154     -0.0865
    121  CZ        -1.3830    0.7920   10.9240 C.cat 154  ARG154      0.5346
    122  NH1       -0.7590    1.8910   11.3260 N.pl3 154  ARG154      0.1354
    123  NH2       -0.7880   -0.3810   11.0700 N.pl3 154  ARG154      0.1354
    124  N         -6.4020    1.8920   14.0130 N.am  155  ASN155     -0.1974
    125  CA        -7.2320    0.7580   14.4280 C.3   155  ASN155      0.1688
    126  C         -7.9480    0.9810   15.7620 C.2   155  ASN155      0.2292
    127  O         -8.5150    0.0510   16.3450 O.2   155  ASN155     -0.2864
    128  CB        -6.4290   -0.5440   14.3920 C.3   155  ASN155      0.1181
    129  CG        -6.1380   -0.9870   12.9830 C.2   155  ASN155      0.2629
    130  OD1       -6.9900   -0.9170   12.0970 O.2   155  ASN155     -0.2716
    131  ND2       -4.9270   -1.4410   12.7390 N.am  155  ASN155     -0.0877
    132  N        -10.8460    3.7190   17.6020 N.3   157  MET157     -0.1245
    133  CA       -11.9560    4.5890   17.2120 C.3   157  MET157      0.1570
    134  C        -12.2830    5.6050   18.2940 C.2   157  MET157      0.2261
    135  O        -12.0700    5.3270   19.4760 O.2   157  MET157     -0.2867
    136  CB       -13.2030    3.7650   16.8430 C.3   157  MET157      0.0387
    137  CG       -13.0240    2.8790   15.6220 C.3   157  MET157      0.0595
    138  SD       -12.6570    3.7740   14.0960 S.3   157  MET157     -0.1393
    139  CE       -14.2920    4.3110   13.6370 C.3   157  MET157      0.0692
    140  N        -10.9780   -0.4670   17.8300 N.3   167  GLY167     -0.1210
    141  CA       -11.8360   -0.5030   16.6520 C.3   167  GLY167      0.1956
    142  C        -12.1660   -1.8790   16.1220 C.2   167  GLY167      0.2611
    143  O        -11.6480   -2.8900   16.6100 O.2   167  GLY167     -0.2717
    144  N        -13.0450   -1.9150   15.1070 N.am  168  ASP168     -0.1973
    145  CA       -13.4630   -3.1480   14.4490 C.3   168  ASP168      0.1709
    146  C        -12.3030   -3.6890   13.6160 C.2   168  ASP168      0.2293
    147  O        -11.5420   -2.9120   13.0390 O.2   168  ASP168     -0.2864
    148  CB       -14.7110   -2.9100   13.5860 C.3   168  ASP168      0.1436
    149  CG       -15.4010   -4.1680   13.0910 C.2   168  ASP168      0.3671
    150  OD1      -15.2250   -5.2350   13.7210 O.co2 168  ASP168     -0.2456
    151  OD2      -16.1550   -4.0760   12.1060 O.co2 168  ASP168     -0.2456
    152  N        -11.1010   -3.3190    9.3190 N.3   171  MET171     -0.1230
    153  CA       -11.8180   -2.1320    8.8400 C.3   171  MET171      0.1702
    154  C        -10.8680   -0.9490    8.6420 C.2   171  MET171      0.2593
    155  O        -11.3090    0.1780    8.3970 O.2   171  MET171     -0.2718
    156  CB       -12.9540   -1.7650    9.8120 C.3   171  MET171      0.0401
    157  CG       -14.0530   -2.8130    9.8980 C.3   171  MET171      0.0596
    158  SD       -14.7860   -3.2980    8.3160 S.3   171  MET171     -0.1393
    159  CE       -15.5790   -1.7960    7.8590 C.3   171  MET171      0.0692
    160  N         -9.5580   -1.2340    8.7180 N.am  172  THR172     -0.1939
    161  CA        -8.4340   -0.3060    8.5940 C.3   172  THR172      0.2028
    162  C         -8.4390    0.4830    7.2790 C.2   172  THR172      0.2645
    163  O         -8.9640    0.0080    6.2690 O.2   172  THR172     -0.2714
    164  CB        -7.1120   -1.0930    8.7250 C.3   172  THR172      0.1808
    165  OG1       -7.2440   -2.1200    9.7100 O.3   172  THR172     -0.2208
    166  CG2       -5.9310   -0.2050    9.0650 C.3   172  THR172      0.0379
    167  N         -7.8220    1.6840    7.3090 N.am  173  ARG173     -0.1917
    168  CA        -7.6040    2.5750    6.1730 C.3   173  ARG173      0.1945
    169  C         -8.9210    3.0780    5.4830 C.2   173  ARG173      0.2658
    170  O         -9.7990    3.4930    6.2390 O.2   173  ARG173     -0.2711
    171  CB        -6.5040    1.9930    5.2640 C.2   173  ARG173      0.0033
    172  CG        -5.3830    1.2050    5.8850 C.2   173  ARG173      0.0179
    173  CD        -4.4870    0.4410    4.8960 C.3   173  ARG173      0.2464
    174  NE        -5.1500   -0.4590    3.9460 N.pl3 173  ARG173     -0.0815
    175  CZ        -5.8950   -1.5030    4.2900 C.cat 173  ARG173      0.5349
    176  NH1       -6.1520   -1.8330    5.5350 N.pl3 173  ARG173      0.1354
    177  NH2       -6.4280   -2.2500    3.3630 N.pl3 173  ARG173      0.1354
    178  N         -9.1100    3.1070    4.1250 N.am  174  ASP174     -0.1969
    179  CA        -8.2570    2.6810    3.0050 C.3   174  ASP174      0.1709
    180  C         -7.1990    3.7250    2.5870 C.2   174  ASP174      0.2293
    181  O         -6.4720    3.5000    1.6180 O.2   174  ASP174     -0.2864
    182  CB        -9.1230    2.2540    1.8070 C.3   174  ASP174      0.1436
    183  CG        -9.9040    1.0130    2.0190 C.2   174  ASP174      0.3671
    184  OD1       -9.5580    0.1940    2.9240 O.co2 174  ASP174     -0.2456
    185  OD2      -10.8680    0.7670    1.2200 O.co2 174  ASP174     -0.2456
@<TRIPOS>BOND
     1    20    19    2
     2    19    21   am
     3    19    18    1
     4    18    17    1
     5    17    14    1
     6   185   183   ar
     7   181   180    2
     8   182   183    1
     9   182   179    1
    10   183   184   ar
    11    14    13    1
    12    14    15    1
    13   180   179    1
    14    13    11   am
    15   179   178    1
    16    15    16    2
    17   177   175    1
    18    11    12    2
    19    11    10    1
    20   174   175    2
    21   174   173    1
    22   178   169   am
    23    22    23    1
    24   175   176    1
    25    10     9    1
    26   173   172    1
    27     9     3   am
    28   171   172    2
    29   171   168    1
    30    25    24    2
    31   169   168    1
    32   169   170    2
    33    23    24    1
    34    23    26    1
    35     1     2    1
    36     3     4    2
    37     3     2    1
    38   168   167    1
    39   163   162    2
    40    28    26    1
    41    36    37    2
    42    36    35    1
    43    26    27    1
    44     2     5    1
    45   162   167   am
    46   162   161    1
    47    35    38    1
    48    35    34    1
    49   159   158    1
    50     5     6    1
    51    38    39    1
    52   158   157    1
    53   155   154    2
    54   161   160    1
    55   161   164    1
    56   154   160   am
    57   154   153    1
    58   164   166    1
    59   164   165    1
    60   153   152    1
    61   153   156    1
    62     6     8    1
    63     6     7    1
    64    39    40    1
    65    40    41    1
    66   156   157    1
    67    41    42    1
    68   119   120    1
    69   119   118    1
    70   120   121    2
    71   112   110   ar
    72   121   123    1
    73   121   122    1
    74   118   117    1
    75   117   114    1
    76    31    30    1
    77    31    32    2
    78   110   111   ar
    79   110   109    1
    80   130   129    2
    81   151   149   ar
    82    30    33    1
    83    30    29    1
    84   116   115    2
    85   109   106    1
    86   131   129   am
    87   114   115    1
    88   114   113    1
    89   129   128    1
    90   147   146    2
    91   115   124   am
    92   149   148    1
    93   149   150   ar
    94   105   106    1
    95   105   103   am
    96   102   103    1
    97   102   101    1
    98    73    72    1
    99   148   145    1
   100   146   145    1
   101   139   138    1
   102    55    54    1
   103    55    56    1
   104   106   107    1
   105    86    85    2
   106   103   104    2
   107   124   125    1
   108   101    92   am
   109    57    56    1
   110    50    51    1
   111   108   107    2
   112   138   137    1
   113    54    51    1
   114   128   125    1
   115    93    92    2
   116   125   126    1
   117   145   144    1
   118    92    91    1
   119    78    77    2
   120    74    72    1
   121    85    84    1
   122    85    90   am
   123    72    71    1
   124    51    52    1
   125   144   142   am
   126    84    87    1
   127    84    83    1
   128    91    90    1
   129    91    94    1
   130    53    52    2
   131   137   136    1
   132    77    83   am
   133    77    76    1
   134   126   127    2
   135    52    58   am
   136    71    68    1
   137    87    89    1
   138    87    88    1
   139   142   143    2
   140   142   141    1
   141    75    76    1
   142    75    69   am
   143    68    69    1
   144    68    67    1
   145    61    60    2
   146    94    95    1
   147    76    79    1
   148   141   140    1
   149    79    80    1
   150   136   133    1
   151    58    59    1
   152    60    67   am
   153    60    59    1
   154    69    70    2
   155   133   132    1
   156   133   134    1
   157    95    96    1
   158    48    47    1
   159    80    81    1
   160    59    62    1
   161    99    98    1
   162    47    49    1
   163    47    44    1
   164   134   135    2
   165    96    97    1
   166    98    97    2
   167    98   100    1
   168    62    63    1
   169    81    82    1
   170    46    45    2
   171    45    44    1
   172    44    43    1
   173    63    64    1
   174    64    65   ar
   175    64    66   ar
