@<TRIPOS>MOLECULE
tmp/3i8rA01.pdb
 112 107 0 0 0
SMALL
GASTEIGER

@<TRIPOS>ATOM
      1  N         21.0410  -10.0700    7.3010 N.3    14  HIS14      -0.1241
      2  CA        21.1960  -10.2190    5.8510 C.3    14  HIS14       0.1621
      3  C         20.2620  -11.3520    5.3190 C.2    14  HIS14       0.2264
      4  O         19.5020  -11.1410    4.3720 O.2    14  HIS14      -0.2867
      5  CB        22.6250  -10.5030    5.4620 C.3    14  HIS14       0.0745
      6  CG        22.8630  -10.4780    3.9920 C.ar   14  HIS14       0.0817
      7  ND1       22.5270  -11.5360    3.1390 N.ar   14  HIS14      -0.2268
      8  CD2       23.3260   -9.4860    3.2000 C.ar   14  HIS14       0.1154
      9  CE1       22.8420  -11.1690    1.8950 C.ar   14  HIS14       0.1986
     10  NE2       23.3550   -9.9390    1.9030 N.ar   14  HIS14      -0.2212
     11  N         11.6220   -7.7420   -1.9400 N.3    23  MET23      -0.1245
     12  CA        12.8670   -8.0370   -2.6400 C.3    23  MET23       0.1570
     13  C         12.8340   -9.4870   -3.1570 C.2    23  MET23       0.2261
     14  O         13.3290   -9.7600   -4.2770 O.2    23  MET23      -0.2867
     15  CB        14.1620   -7.7510   -1.7310 C.3    23  MET23       0.0387
     16  CG        15.4540   -7.6870   -2.6070 C.3    23  MET23       0.0595
     17  SD        15.3420   -6.3420   -3.7880 S.3    23  MET23      -0.1393
     18  CE        17.0340   -6.3560   -4.4000 C.3    23  MET23       0.0692
     19  N         12.4870    1.0610   -6.4920 N.3    39  LEU39      -0.1245
     20  CA        13.6160    0.8420   -5.5790 C.3    39  LEU39       0.1561
     21  C         14.7560    1.7510   -5.8690 C.2    39  LEU39       0.2260
     22  O         15.3350    2.3160   -4.9170 O.2    39  LEU39      -0.2867
     23  CB        14.0330   -0.6940   -5.6970 C.3    39  LEU39       0.0270
     24  CG        15.3800   -1.0110   -4.9790 C.3    39  LEU39       0.0019
     25  CD1       15.1830   -0.9170   -3.4570 C.3    39  LEU39       0.0001
     26  CD2       15.7500   -2.4940   -5.4000 C.3    39  LEU39       0.0001
     27  N         27.7510   -1.3930    4.9150 N.3   125  VAL125     -0.1231
     28  CA        26.4420   -2.0670    4.6350 C.3   125  VAL125      0.1692
     29  C         26.0300   -1.8310    3.2120 C.2   125  VAL125      0.2591
     30  O         25.5120   -2.7630    2.5440 O.2   125  VAL125     -0.2718
     31  CB        25.4060   -1.6300    5.6500 C.3   125  VAL125      0.0266
     32  CG1       23.9770   -2.1530    5.2590 C.3   125  VAL125      0.0020
     33  CG2       25.8030   -2.2480    7.0360 C.3   125  VAL125      0.0020
     34  N         26.1740   -0.6090    2.6920 N.am  126  ARG126     -0.1980
     35  CA        25.7460   -0.3660    1.3210 C.3   126  ARG126      0.1597
     36  C         26.8320   -0.7820    0.3340 C.2   126  ARG126      0.2287
     37  O         26.4940   -1.6170   -0.5730 O.2   126  ARG126     -0.2864
     38  CB        25.3940    1.1460    1.0740 C.3   126  ARG126      0.0334
     39  CG        23.9980    1.5080    1.6970 C.3   126  ARG126      0.0492
     40  CD        22.8480    0.4710    1.3200 C.3   126  ARG126      0.2205
     41  NE        22.8840    0.1790   -0.0860 N.pl3 126  ARG126     -0.0865
     42  CZ        21.9360   -0.5500   -0.6720 C.cat 126  ARG126      0.5346
     43  NH1       20.8360   -0.9600   -0.0520 N.pl3 126  ARG126      0.1354
     44  NH2       22.1170   -0.9700   -1.9430 N.pl3 126  ARG126      0.1354
     45  N         27.9730   -4.4600   -0.0020 N.3   129  GLY129     -0.1210
     46  CA        26.8440   -5.2760   -0.5520 C.3   129  GLY129      0.1956
     47  C         26.7780   -5.0300   -2.0110 C.2   129  GLY129      0.2611
     48  O         26.7310   -6.0110   -2.8590 O.2   129  GLY129     -0.2717
     49  N         26.8260   -3.8000   -2.5050 N.am  130  ASP130     -0.1973
     50  CA        26.7140   -3.5350   -3.9300 C.3   130  ASP130      0.1709
     51  C         27.8410   -4.2620   -4.6820 C.2   130  ASP130      0.2293
     52  O         27.5840   -4.8270   -5.7610 O.2   130  ASP130     -0.2864
     53  CB        26.8980   -2.0200   -4.2260 C.3   130  ASP130      0.1436
     54  CG        25.7920   -1.1570   -3.5370 C.2   130  ASP130      0.3671
     55  OD1       26.1690    0.0170   -3.3600 O.co2 130  ASP130     -0.2456
     56  OD2       24.6890   -1.6360   -3.3180 O.co2 130  ASP130     -0.2456
     57  N         29.4940   -6.8620   -3.8140 N.3   132  SER132     -0.1202
     58  CA        29.3980   -8.3400   -3.5200 C.3   132  SER132      0.2020
     59  C         28.2040   -9.0910   -4.0300 C.2   132  SER132      0.2619
     60  O         28.4680  -10.2010   -4.6010 O.2   132  SER132     -0.2717
     61  CB        29.4160   -8.6120   -2.0130 C.3   132  SER132      0.2103
     62  OG        30.6380   -8.1120   -1.5220 O.3   132  SER132     -0.2182
     63  N         26.9590   -8.7530   -3.6740 N.am  133  GLY133     -0.1942
     64  CA        25.7570   -9.3450   -4.2770 C.3   133  GLY133      0.2014
     65  C         25.2560   -8.5780   -5.5100 C.2   133  GLY133      0.2639
     66  O         24.2640   -9.0130   -6.1300 O.2   133  GLY133     -0.2714
     67  N         25.9850   -7.5400   -5.9790 N.am  134  GLY134     -0.1954
     68  CA        25.3490   -6.6440   -6.9990 C.3   134  GLY134      0.1869
     69  C         25.2130   -7.2790   -8.3150 C.2   134  GLY134      0.2309
     70  O         24.2560   -6.9730   -9.0020 O.2   134  GLY134     -0.2863
     71  N         22.0400   -9.1760   -8.4420 N.3   137  ILE137     -0.1245
     72  CA        20.8980   -8.3550   -8.6930 C.3   137  ILE137      0.1561
     73  C         20.8580   -7.8480  -10.1540 C.2   137  ILE137      0.2260
     74  O         19.8210   -7.9610  -10.8010 O.2   137  ILE137     -0.2867
     75  CB        20.9380   -7.1030   -7.7950 C.3   137  ILE137      0.0252
     76  CG1       21.2070   -7.5090   -6.3280 C.3   137  ILE137      0.0019
     77  CG2       19.5480   -6.3640   -7.9410 C.3   137  ILE137      0.0019
     78  CD1       20.1440   -8.3950   -5.7440 C.3   137  ILE137      0.0001
     79  N         24.6240    1.4870  -11.9310 N.3   154  PHE154     -0.1227
     80  CA        24.7980    1.4070  -10.4600 C.3   154  PHE154      0.1736
     81  C         25.6270    0.2000  -10.0310 C.2   154  PHE154      0.2595
     82  O         26.4450    0.2820   -9.1950 O.2   154  PHE154     -0.2718
     83  CB        23.4250    1.3460   -9.8100 C.3   154  PHE154      0.0547
     84  CG        23.4200    1.0830   -8.3280 C.ar  154  PHE154     -0.0202
     85  CD1       23.5520    2.1520   -7.4050 C.ar  154  PHE154     -0.0042
     86  CD2       23.3470   -0.1610   -7.8760 C.ar  154  PHE154     -0.0042
     87  CE1       23.4510    1.9540   -6.0120 C.ar  154  PHE154     -0.0003
     88  CE2       23.3500   -0.4060   -6.4320 C.ar  154  PHE154     -0.0003
     89  CZ        23.4180    0.7040   -5.5260 C.ar  154  PHE154     -0.0000
     90  N         25.3690   -0.9400  -10.7150 N.am  155  TYR155     -0.1976
     91  CA        26.0730   -2.2140  -10.3880 C.3   155  TYR155      0.1639
     92  C         27.4210   -2.3960  -11.0820 C.2   155  TYR155      0.2290
     93  O         28.1820   -3.3080  -10.6590 O.2   155  TYR155     -0.2864
     94  CB        25.2020   -3.4100  -10.7200 C.3   155  TYR155      0.0560
     95  CG        23.8640   -3.3220   -9.9770 C.ar  155  TYR155     -0.0198
     96  CD1       22.7300   -2.7930  -10.6100 C.ar  155  TYR155     -0.0009
     97  CD2       23.7950   -3.6920   -8.6570 C.ar  155  TYR155     -0.0009
     98  CE1       21.4820   -2.6820   -9.9120 C.ar  155  TYR155      0.0417
     99  CE2       22.5720   -3.5830   -7.9330 C.ar  155  TYR155      0.0417
    100  CZ        21.4600   -3.1110   -8.5510 C.ar  155  TYR155      0.1957
    101  OH        20.2750   -2.9010   -7.8770 O.3   155  TYR155     -0.2866
    102  N         12.5050   -1.8630    1.9120 N.3   202  PHE202     -0.1241
    103  CA        11.8160   -2.8950    1.1290 C.3   202  PHE202      0.1605
    104  C         10.3970   -3.0740    1.6500 C.2   202  PHE202      0.2264
    105  O          9.5080   -3.2730    0.8370 O.2   202  PHE202     -0.2867
    106  CB        12.5080   -4.2580    1.2860 C.3   202  PHE202      0.0534
    107  CG        13.8930   -4.3450    0.7430 C.ar  202  PHE202     -0.0203
    108  CD1       14.3750   -3.5190   -0.2210 C.ar  202  PHE202     -0.0042
    109  CD2       14.7140   -5.3620    1.2440 C.ar  202  PHE202     -0.0042
    110  CE1       15.6860   -3.7220   -0.7600 C.ar  202  PHE202     -0.0003
    111  CE2       15.9950   -5.6180    0.7350 C.ar  202  PHE202     -0.0003
    112  CZ        16.4990   -4.7460   -0.2490 C.ar  202  PHE202     -0.0000
@<TRIPOS>BOND
     1    79    80    1
     2    92    93    2
     3    92    91    1
     4    74    73    2
     5    94    91    1
     6    94    95    1
     7    90    91    1
     8    90    81   am
     9    96    95   ar
    10    96    98   ar
    11    80    81    1
    12    80    83    1
    13    73    72    1
    14    81    82    2
    15    95    97   ar
    16    98   100   ar
    17    83    84    1
    18    70    69    2
    19    72    71    1
    20    72    75    1
    21    97    99   ar
    22   100    99   ar
    23   100   101    1
    24    84    86   ar
    25    84    85   ar
    26    69    68    1
    27    77    75    1
    28    86    88   ar
    29    75    76    1
    30    85    87   ar
    31    68    67    1
    32    19    20    1
    33    88    89   ar
    34    76    78    1
    35    66    65    2
    36    87    89   ar
    37    67    65   am
    38    21    20    1
    39    21    22    2
    40    52    51    2
    41    23    20    1
    42    23    24    1
    43    65    64    1
    44    26    24    1
    45    24    25    1
    46    51    50    1
    47    60    59    2
    48    18    17    1
    49    14    13    2
    50    64    63    1
    51    53    50    1
    52    53    54    1
    53    59    63   am
    54    59    58    1
    55    50    49    1
    56    57    58    1
    57    17    16    1
    58    54    55   ar
    59    54    56   ar
    60    58    61    1
    61    13    12    1
    62    48    47    2
    63    12    11    1
    64    12    15    1
    65    16    15    1
    66    49    47   am
    67    61    62    1
    68    47    46    1
    69    44    42    1
    70   110   112   ar
    71   110   108   ar
    72    42    41    2
    73    42    43    1
    74    37    36    2
    75    46    45    1
    76   112   111   ar
    77   108   107   ar
    78    41    40    1
    79    36    35    1
    80   111   109   ar
    81   107   109   ar
    82   107   106    1
    83   105   104    2
    84    38    35    1
    85    38    39    1
    86   103   106    1
    87   103   104    1
    88   103   102    1
    89    40    39    1
    90    35    34    1
    91     9    10   ar
    92     9     7   ar
    93    10     8   ar
    94    30    29    2
    95    34    29   am
    96     7     6   ar
    97     8     6   ar
    98    29    28    1
    99     6     5    1
   100     4     3    2
   101    28    27    1
   102    28    31    1
   103    32    31    1
   104     3     2    1
   105     5     2    1
   106    31    33    1
   107     2     1    1
