@<TRIPOS>MOLECULE
tmp/3i8tA01.pdb
 108 102 0 0 0
SMALL
GASTEIGER

@<TRIPOS>ATOM
      1  N          7.0480   73.8700    3.6610 N.3     8  LYS8       -0.1245
      2  CA         5.8020   73.1710    3.3930 C.3     8  LYS8        0.1561
      3  C          5.9060   72.5330    2.0080 C.2     8  LYS8        0.2260
      4  O          6.0540   73.2440    1.0340 O.2     8  LYS8       -0.2867
      5  CB         4.6140   74.1250    3.4140 C.3     8  LYS8        0.0271
      6  CG         3.2530   73.3970    3.5180 C.3     8  LYS8        0.0035
      7  CD         2.0860   74.2970    3.1090 C.3     8  LYS8        0.0206
      8  CE         2.0010   75.6240    3.9130 C.3     8  LYS8        0.1093
      9  NZ         1.2030   76.6890    3.1670 N.3     8  LYS8       -0.1314
     10  N          4.4470   69.0780   11.1840 N.3    37  ASN37      -0.1240
     11  CA         3.0570   68.7360   10.9630 C.3    37  ASN37       0.1653
     12  C          2.9070   67.8070    9.7580 C.2    37  ASN37       0.2266
     13  O          3.4420   68.0720    8.6960 O.2    37  ASN37      -0.2867
     14  CB         2.2280   70.0030   10.7030 C.3    37  ASN37       0.1155
     15  CG         2.0860   70.8590   11.9160 C.2    37  ASN37       0.2627
     16  OD1        2.2590   70.3840   13.0310 O.2    37  ASN37      -0.2716
     17  ND2        1.8100   72.1490   11.7160 N.am   37  ASN37      -0.0877
     18  N          0.2150   67.2420    7.4920 N.3    39  ALA39      -0.1245
     19  CA        -0.9270   68.0730    7.1750 C.3    39  ALA39       0.1562
     20  C         -1.8480   67.5190    6.1050 C.2    39  ALA39       0.2260
     21  O         -1.4320   66.8410    5.1990 O.2    39  ALA39      -0.2867
     22  CB        -0.4690   69.4490    6.7880 C.3    39  ALA39       0.0290
     23  N         -3.6130   68.6270    3.2300 N.3    41  GLY41      -0.1210
     24  CA        -3.6850   69.6900    2.2540 C.3    41  GLY41       0.1956
     25  C         -2.7010   70.8250    2.4420 C.2    41  GLY41       0.2612
     26  O         -2.0000   70.8840    3.4280 O.2    41  GLY41      -0.2717
     27  N         -2.6810   71.7350    1.4750 N.am   42  GLN42      -0.1965
     28  CA        -1.6540   72.7640    1.3500 C.3    42  GLN42       0.1733
     29  C         -1.9550   74.0750    2.0360 C.2    42  GLN42       0.2616
     30  O         -1.0690   74.8620    2.2750 O.2    42  GLN42      -0.2715
     31  CB        -1.3830   73.0420   -0.1230 C.3    42  GLN42       0.0408
     32  CG        -0.0460   73.6850   -0.3790 C.3    42  GLN42       0.0908
     33  CD        -0.0700   74.6680   -1.5300 C.2    42  GLN42       0.2608
     34  OE1       -0.7340   74.4440   -2.5460 O.2    42  GLN42      -0.2717
     35  NE2        0.6670   75.7610   -1.3820 N.am   42  GLN42      -0.0878
     36  N         -3.2120   74.3180    2.3330 N.am   43  ASP43      -0.1957
     37  CA        -3.6120   75.5640    2.9720 C.3    43  ASP43       0.1840
     38  C         -2.8990   75.7080    4.3040 C.2    43  ASP43       0.2622
     39  O         -2.3340   74.7460    4.8080 O.2    43  ASP43      -0.2715
     40  CB        -5.1230   75.6120    3.1780 C.3    43  ASP43       0.1450
     41  CG        -5.8930   75.6650    1.8740 C.2    43  ASP43       0.3671
     42  OD1       -5.2620   75.6560    0.8000 O.co2  43  ASP43      -0.2456
     43  OD2       -7.1390   75.7100    1.9250 O.co2  43  ASP43      -0.2456
     44  N         -2.9280   76.9040    4.8800 N.am   44  ASP44      -0.1957
     45  CA        -2.0290   77.2370    5.9810 C.3    44  ASP44       0.1840
     46  C         -2.6430   76.9770    7.3520 C.2    44  ASP44       0.2623
     47  O         -1.9270   76.8220    8.3340 O.2    44  ASP44      -0.2715
     48  CB        -1.5580   78.6900    5.8900 C.3    44  ASP44       0.1450
     49  CG        -0.2690   78.8420    5.1010 C.2    44  ASP44       0.3671
     50  OD1        0.4480   77.8370    4.9110 O.co2  44  ASP44      -0.2456
     51  OD2        0.0280   79.9710    4.6640 O.co2  44  ASP44      -0.2456
     52  N         -3.9670   76.9280    7.4150 N.am   45  GLY45      -0.1940
     53  CA        -4.6420   76.3760    8.5760 C.3    45  GLY45       0.2014
     54  C         -5.3260   75.0480    8.3140 C.2    45  GLY45       0.2638
     55  O         -6.3420   74.7350    8.9140 O.2    45  GLY45      -0.2714
     56  N         -4.7490   74.2720    7.4080 N.am   46  ALA46      -0.1977
     57  CA        -5.1420   72.8930    7.1890 C.3    46  ALA46       0.1597
     58  C         -5.1880   72.0760    8.4700 C.2    46  ALA46       0.2287
     59  O         -4.4470   72.3290    9.4050 O.2    46  ALA46      -0.2864
     60  CB        -4.2320   72.2570    6.1920 C.3    46  ALA46       0.0319
     61  N         -4.3190   68.8360   10.7330 N.3    48  VAL48      -0.1245
     62  CA        -3.0260   68.2390   10.9650 C.3    48  VAL48       0.1561
     63  C         -3.2610   66.8770   11.6150 C.2    48  VAL48       0.2260
     64  O         -3.7030   66.8230   12.7530 O.2    48  VAL48      -0.2867
     65  CB        -2.1810   69.1450   11.8810 C.3    48  VAL48       0.0252
     66  CG1       -0.9230   68.4390   12.2700 C.3    48  VAL48       0.0019
     67  CG2       -1.8750   70.5460   11.1740 C.3    48  VAL48       0.0019
     68  N         -5.0180   68.4600   14.8330 N.3    67  MET67      -0.1245
     69  CA        -5.9860   69.5190   14.6120 C.3    67  MET67       0.1570
     70  C         -7.0190   68.9860   13.6090 C.2    67  MET67       0.2261
     71  O         -6.6590   68.5470   12.4960 O.2    67  MET67      -0.2867
     72  CB        -5.3140   70.7540   14.0340 C.3    67  MET67       0.0387
     73  CG        -6.3460   71.7830   13.5460 C.3    67  MET67       0.0595
     74  SD        -5.6850   73.4380   13.3030 S.3    67  MET67      -0.1393
     75  CE        -5.5120   73.9150   14.9900 C.3    67  MET67       0.0692
     76  N         -7.6100   71.8600   17.8850 N.3    72  TRP72      -0.1241
     77  CA        -6.6590   70.9790   18.5540 C.3    72  TRP72       0.1605
     78  C         -7.3890   70.0020   19.4610 C.2    72  TRP72       0.2264
     79  O         -8.3150   70.3890   20.1940 O.2    72  TRP72      -0.2867
     80  CB        -5.6680   71.7820   19.4080 C.3    72  TRP72       0.0550
     81  CG        -4.7080   72.5420   18.5820 C.ar   72  TRP72       0.0003
     82  CD1       -4.6090   73.8910   18.4910 C.ar   72  TRP72       0.0946
     83  CD2       -3.7450   72.0000   17.6480 C.ar   72  TRP72       0.0152
     84  NE1       -3.6160   74.2390   17.5980 N.ar   72  TRP72      -0.2442
     85  CE2       -3.0610   73.1080   17.0730 C.ar   72  TRP72       0.0810
     86  CE3       -3.3460   70.7030   17.3040 C.ar   72  TRP72       0.0012
     87  CZ2       -2.0260   72.9550   16.1340 C.ar   72  TRP72       0.0191
     88  CZ3       -2.3240   70.5340   16.3690 C.ar   72  TRP72       0.0001
     89  CH2       -1.6820   71.6680   15.7770 C.ar   72  TRP72       0.0015
     90  N          0.7780   66.6820    2.9110 N.3   123  HIS123     -0.1241
     91  CA         1.8580   67.6890    2.9960 C.3   123  HIS123      0.1621
     92  C          2.5890   67.5860    4.2960 C.2   123  HIS123      0.2264
     93  O          2.0120   67.1720    5.3200 O.2   123  HIS123     -0.2867
     94  CB         1.3160   69.1260    2.8430 C.3   123  HIS123      0.0745
     95  CG         0.9450   69.4680    1.4530 C.ar  123  HIS123      0.0817
     96  ND1       -0.1710   68.9510    0.8360 N.ar  123  HIS123     -0.2268
     97  CD2        1.5550   70.2560    0.5410 C.ar  123  HIS123      0.1154
     98  CE1       -0.2200   69.3890   -0.4060 C.ar  123  HIS123      0.1986
     99  NE2        0.8020   70.2030   -0.6000 N.ar  123  HIS123     -0.2212
    100  N          4.7220   69.9660    6.9060 N.3   125  GLN125     -0.1245
    101  CA         5.0400   71.3530    7.2320 C.3   125  GLN125      0.1566
    102  C          6.0380   71.3200    8.4060 C.2   125  GLN125      0.2260
    103  O          5.8880   70.5240    9.3120 O.2   125  GLN125     -0.2867
    104  CB         3.7490   72.1080    7.5610 C.3   125  GLN125      0.0367
    105  CG         3.8140   73.6440    7.4450 C.3   125  GLN125      0.0905
    106  CD         4.0400   74.3610    8.7810 C.2   125  GLN125      0.2608
    107  OE1        4.0160   73.7430    9.8500 O.2   125  GLN125     -0.2717
    108  NE2        4.2560   75.6690    8.7220 N.am  125  GLN125     -0.0878
@<TRIPOS>BOND
     1    34    33    2
     2    33    35   am
     3    33    32    1
     4    99    98   ar
     5    99    97   ar
     6    98    96   ar
     7    32    31    1
     8    31    28    1
     9    97    95   ar
    10    42    41   ar
    11    96    95   ar
    12     4     3    2
    13    28    27    1
    14    28    29    1
    15    95    94    1
    16    27    25   am
    17    41    43   ar
    18    41    40    1
    19     3     2    1
    20    29    30    2
    21    29    36   am
    22    24    25    1
    23    24    23    1
    24    36    37    1
    25    25    26    2
    26    94    91    1
    27    90    91    1
    28    37    40    1
    29    37    38    1
    30    91    92    1
    31     7     6    1
    32     7     8    1
    33     9     8    1
    34     2     5    1
    35     2     1    1
    36     5     6    1
    37    92    93    2
    38    38    39    2
    39    38    44   am
    40    51    49   ar
    41    44    45    1
    42    50    49   ar
    43    49    48    1
    44    21    20    2
    45    48    45    1
    46    45    46    1
    47    20    19    1
    48    60    57    1
    49    22    19    1
    50   100   101    1
    51    19    18    1
    52    57    56    1
    53    57    58    1
    54   101   104    1
    55   101   102    1
    56    46    52   am
    57    46    47    2
    58    56    54   am
    59    52    53    1
    60   105   104    1
    61   105   106    1
    62    54    53    1
    63    54    55    2
    64   102   103    2
    65    58    59    2
    66    13    12    2
    67   108   106   am
    68   106   107    2
    69    12    11    1
    70    14    11    1
    71    14    15    1
    72    61    62    1
    73    11    10    1
    74    62    63    1
    75    62    65    1
    76    67    65    1
    77    63    64    2
    78    17    15   am
    79    65    66    1
    80    15    16    2
    81    71    70    2
    82    74    73    1
    83    74    75    1
    84    73    72    1
    85    70    69    1
    86    72    69    1
    87    69    68    1
    88    89    87   ar
    89    89    88   ar
    90    87    85   ar
    91    88    86   ar
    92    85    84   ar
    93    85    83   ar
    94    86    83   ar
    95    84    82   ar
    96    83    81   ar
    97    76    77    1
    98    82    81   ar
    99    77    80    1
   100    77    78    1
   101    81    80    1
   102    78    79    2
