@<TRIPOS>MOLECULE
tmp/3i8vA00.pdb
 174 168 0 0 0
SMALL
GASTEIGER

@<TRIPOS>ATOM
      1  N         33.7840   23.4770  -26.3350 N.3    83  TYR83      -0.1227
      2  CA        33.9500   22.0260  -26.2330 C.3    83  TYR83       0.1736
      3  C         33.1320   21.4330  -25.0830 C.2    83  TYR83       0.2595
      4  O         32.3630   20.5070  -25.3030 O.2    83  TYR83      -0.2718
      5  CB        35.4410   21.6440  -26.1180 C.3    83  TYR83       0.0548
      6  CG        35.6910   20.1510  -25.9770 C.ar   83  TYR83      -0.0200
      7  CD1       35.9880   19.3570  -27.0990 C.ar   83  TYR83      -0.0009
      8  CD2       35.6290   19.5310  -24.7250 C.ar   83  TYR83      -0.0009
      9  CE1       36.2180   17.9900  -26.9750 C.ar   83  TYR83       0.0417
     10  CE2       35.8540   18.1690  -24.5820 C.ar   83  TYR83       0.0417
     11  CZ        36.1490   17.3980  -25.7020 C.ar   83  TYR83       0.1957
     12  OH        36.3700   16.0350  -25.5410 O.3    83  TYR83      -0.2866
     13  N         33.2970   21.9590  -23.8680 N.am   84  HIS84      -0.1975
     14  CA        32.5950   21.3920  -22.6960 C.3    84  HIS84       0.1656
     15  C         31.1490   21.8850  -22.5850 C.2    84  HIS84       0.2291
     16  O         30.7700   22.5090  -21.5940 O.2    84  HIS84      -0.2864
     17  CB        33.3540   21.6670  -21.4010 C.3    84  HIS84       0.0771
     18  CG        34.6860   20.9860  -21.3180 C.ar   84  HIS84       0.0820
     19  ND1       35.8770   21.6580  -21.4990 N.ar   84  HIS84      -0.2267
     20  CD2       35.0150   19.6980  -21.0660 C.ar   84  HIS84       0.1154
     21  CE1       36.8830   20.8140  -21.3610 C.ar   84  HIS84       0.1986
     22  NE2       36.3880   19.6170  -21.0960 N.ar   84  HIS84      -0.2212
     23  N         29.3680   17.4250  -25.6060 N.3    88  HIS88      -0.1241
     24  CA        30.4470   16.6210  -25.0380 C.3    88  HIS88       0.1621
     25  C         29.9270   15.6210  -23.9930 C.2    88  HIS88       0.2264
     26  O         30.3590   14.4600  -23.9680 O.2    88  HIS88      -0.2867
     27  CB        31.5650   17.5230  -24.4710 C.3    88  HIS88       0.0745
     28  CG        32.5640   16.7880  -23.6220 C.ar   88  HIS88       0.0817
     29  ND1       33.3830   15.7960  -24.1190 N.ar   88  HIS88      -0.2268
     30  CD2       32.8530   16.8820  -22.3020 C.ar   88  HIS88       0.1154
     31  CE1       34.1520   15.3320  -23.1490 C.ar   88  HIS88       0.1986
     32  NE2       33.8440   15.9690  -22.0340 N.ar   88  HIS88      -0.2212
     33  N         36.0130   19.2300  -11.0060 N.3   154  GLU154     -0.1245
     34  CA        35.3750   17.9330  -10.8940 C.3   154  GLU154      0.1567
     35  C         34.5240   17.8560   -9.6340 C.2   154  GLU154      0.2260
     36  O         33.4210   17.2820   -9.6590 O.2   154  GLU154     -0.2867
     37  CB        36.4040   16.8110  -10.9460 C.3   154  GLU154      0.0388
     38  CG        37.0910   16.6620  -12.3080 C.3   154  GLU154      0.1160
     39  CD        38.1180   17.7630  -12.6300 C.2   154  GLU154      0.3649
     40  OE1       38.6120   18.4680  -11.7070 O.co2 154  GLU154     -0.2457
     41  OE2       38.4340   17.9170  -13.8330 O.co2 154  GLU154     -0.2457
     42  N         38.0250   11.7480  -13.8330 N.3   195  THR195     -0.1218
     43  CA        38.0870   12.4510  -15.1190 C.3   195  THR195      0.1862
     44  C         39.0170   13.6660  -15.0270 C.2   195  THR195      0.2287
     45  O         39.2430   14.3700  -16.0210 O.2   195  THR195     -0.2866
     46  CB        36.6950   12.9230  -15.6030 C.3   195  THR195      0.1770
     47  OG1       36.1960   13.9660  -14.7500 O.3   195  THR195     -0.2211
     48  CG2       35.6910   11.7880  -15.6520 C.3   195  THR195      0.0375
     49  N         42.3750   15.1300  -15.2270 N.3   197  MET197     -0.1245
     50  CA        43.5340   14.6550  -15.9840 C.3   197  MET197      0.1570
     51  C         44.7890   14.4790  -15.1270 C.2   197  MET197      0.2261
     52  O         45.6490   13.6900  -15.4590 O.2   197  MET197     -0.2867
     53  CB        43.8290   15.5900  -17.1680 C.3   197  MET197      0.0387
     54  CG        43.0020   15.2810  -18.4140 C.3   197  MET197      0.0595
     55  SD        43.2500   13.5860  -19.0060 S.3   197  MET197     -0.1393
     56  CE        45.0270   13.5370  -19.2350 C.3   197  MET197      0.0692
     57  N         35.7640    9.7320  -21.8860 N.3   242  ASP242     -0.1225
     58  CA        36.1320   11.1390  -21.8710 C.3   242  ASP242      0.1805
     59  C         37.2970   11.3840  -22.8390 C.2   242  ASP242      0.2597
     60  O         37.3970   12.4560  -23.4570 O.2   242  ASP242     -0.2718
     61  CB        36.5450   11.5100  -20.4540 C.3   242  ASP242      0.1424
     62  CG        36.5810   13.0000  -20.2180 C.2   242  ASP242      0.3668
     63  OD1       35.7820   13.7560  -20.8040 O.co2 242  ASP242     -0.2456
     64  OD2       37.4180   13.4140  -19.3960 O.co2 242  ASP242     -0.2456
     65  N         38.1710   10.3860  -22.9740 N.am  243  LEU243     -0.1979
     66  CA        39.3040   10.4940  -23.8970 C.3   243  LEU243      0.1596
     67  C         39.0720    9.6940  -25.1820 C.2   243  LEU243      0.2287
     68  O         40.0250    9.1250  -25.7350 O.2   243  LEU243     -0.2864
     69  CB        40.6300   10.0750  -23.2150 C.3   243  LEU243      0.0297
     70  CG        41.1030   10.8200  -21.9460 C.3   243  LEU243      0.0022
     71  CD1       42.5570   10.5530  -21.6400 C.3   243  LEU243      0.0001
     72  CD2       40.8760   12.3220  -21.9820 C.3   243  LEU243      0.0001
     73  N         37.6230   10.8200  -28.2090 N.3   245  ASN245     -0.1240
     74  CA        37.5500   11.5760  -29.4450 C.3   245  ASN245      0.1653
     75  C         38.5190   11.0130  -30.5160 C.2   245  ASN245      0.2266
     76  O         38.0950   10.7390  -31.6360 O.2   245  ASN245     -0.2867
     77  CB        37.8370   13.0750  -29.2260 C.3   245  ASN245      0.1155
     78  CG        36.8080   13.7910  -28.3290 C.2   245  ASN245      0.2627
     79  OD1       37.0690   14.9190  -27.9020 O.2   245  ASN245     -0.2716
     80  ND2       35.6540   13.1580  -28.0510 N.am  245  ASN245     -0.0877
     81  N         36.4030   13.2340  -34.9870 N.3   253  TYR253     -0.1241
     82  CA        37.6260   13.6040  -34.2810 C.3   253  TYR253      0.1605
     83  C         38.1000   15.0090  -34.6480 C.2   253  TYR253      0.2264
     84  O         38.4410   15.8020  -33.7630 O.2   253  TYR253     -0.2867
     85  CB        38.6980   12.5290  -34.5000 C.3   253  TYR253      0.0534
     86  CG        40.0620   12.7840  -33.8890 C.ar  253  TYR253     -0.0201
     87  CD1       40.2320   13.6390  -32.8010 C.ar  253  TYR253     -0.0009
     88  CD2       41.1880   12.1360  -34.3900 C.ar  253  TYR253     -0.0009
     89  CE1       41.4800   13.8600  -32.2590 C.ar  253  TYR253      0.0417
     90  CE2       42.4360   12.3530  -33.8550 C.ar  253  TYR253      0.0417
     91  CZ        42.5810   13.2070  -32.7920 C.ar  253  TYR253      0.1957
     92  OH        43.8210   13.4070  -32.2580 O.3   253  TYR253     -0.2866
     93  N         35.8220   17.5380  -32.9730 N.3   256  TRP256     -0.1227
     94  CA        36.2330   17.5880  -31.5600 C.3   256  TRP256      0.1737
     95  C         37.4930   18.4260  -31.3520 C.2   256  TRP256      0.2596
     96  O         37.5450   19.2320  -30.4200 O.2   256  TRP256     -0.2718
     97  CB        36.4240   16.1830  -30.9750 C.3   256  TRP256      0.0564
     98  CG        35.1220   15.3950  -30.8540 C.ar  256  TRP256      0.0003
     99  CD1       34.8710   14.1450  -31.3560 C.ar  256  TRP256      0.0946
    100  CD2       33.9090   15.8120  -30.1960 C.ar  256  TRP256      0.0152
    101  NE1       33.5850   13.7630  -31.0550 N.ar  256  TRP256     -0.2442
    102  CE2       32.9760   14.7650  -30.3420 C.ar  256  TRP256      0.0810
    103  CE3       33.5280   16.9650  -29.4880 C.ar  256  TRP256      0.0012
    104  CZ2       31.6750   14.8390  -29.8190 C.ar  256  TRP256      0.0191
    105  CZ3       32.2370   17.0390  -28.9670 C.ar  256  TRP256      0.0001
    106  CH2       31.3320   15.9710  -29.1280 C.ar  256  TRP256      0.0015
    107  N         38.4970   18.2510  -32.2210 N.am  257  THR257     -0.1953
    108  CA        39.7470   19.0110  -32.1170 C.3   257  THR257      0.1897
    109  C         39.5010   20.4950  -32.3290 C.2   257  THR257      0.2313
    110  O         39.9720   21.3300  -31.5450 O.2   257  THR257     -0.2863
    111  CB        40.8160   18.5260  -33.1420 C.3   257  THR257      0.1794
    112  OG1       41.2040   17.1690  -32.8530 O.3   257  THR257     -0.2208
    113  CG2       42.0470   19.4220  -33.1090 C.3   257  THR257      0.0378
    114  N         38.0080   21.8490  -28.9970 N.3   260  ILE260     -0.1231
    115  CA        38.8720   21.9800  -27.8260 C.3   260  ILE260      0.1692
    116  C         39.8830   23.1390  -27.9960 C.2   260  ILE260      0.2591
    117  O         40.1950   23.8440  -27.0270 O.2   260  ILE260     -0.2718
    118  CB        39.5430   20.6130  -27.4350 C.3   260  ILE260      0.0266
    119  CG1       40.1530   20.6700  -26.0260 C.3   260  ILE260      0.0019
    120  CG2       40.5990   20.1750  -28.4840 C.3   260  ILE260      0.0020
    121  CD1       39.1450   20.9100  -24.9020 C.3   260  ILE260      0.0001
    122  N         40.3580   23.3560  -29.2260 N.am  261  MET261     -0.1979
    123  CA        41.3000   24.4530  -29.4890 C.3   261  MET261      0.1605
    124  C         40.6350   25.8190  -29.3740 C.2   261  MET261      0.2287
    125  O         41.2130   26.7520  -28.8070 O.2   261  MET261     -0.2864
    126  CB        41.9690   24.3220  -30.8730 C.3   261  MET261      0.0413
    127  CG        42.7720   23.0490  -31.1070 C.3   261  MET261      0.0598
    128  SD        43.8580   22.5360  -29.7450 S.3   261  MET261     -0.1393
    129  CE        45.0000   23.9340  -29.5600 C.3   261  MET261      0.0692
    130  N         40.4360   26.2690  -25.6320 N.3   264  PHE264     -0.1241
    131  CA        41.7760   26.5770  -25.1400 C.3   264  PHE264      0.1605
    132  C         42.2580   27.9930  -25.5130 C.2   264  PHE264      0.2264
    133  O         42.7690   28.7160  -24.6640 O.2   264  PHE264     -0.2867
    134  CB        42.7680   25.5210  -25.6510 C.3   264  PHE264      0.0534
    135  CG        42.8410   24.2710  -24.7910 C.ar  264  PHE264     -0.0203
    136  CD1       41.7640   23.8700  -23.9960 C.ar  264  PHE264     -0.0042
    137  CD2       43.9810   23.4920  -24.7870 C.ar  264  PHE264     -0.0042
    138  CE1       41.8400   22.7200  -23.2090 C.ar  264  PHE264     -0.0003
    139  CE2       44.0560   22.3410  -24.0020 C.ar  264  PHE264     -0.0003
    140  CZ        42.9800   21.9600  -23.2130 C.ar  264  PHE264     -0.0000
    141  N         49.2870   25.1610  -24.3690 N.3   281  MET281     -0.1245
    142  CA        48.5270   25.0730  -25.6130 C.3   281  MET281      0.1570
    143  C         47.3390   26.0290  -25.7430 C.2   281  MET281      0.2261
    144  O         46.4640   25.8250  -26.5860 O.2   281  MET281     -0.2867
    145  CB        48.1390   23.6290  -25.8990 C.3   281  MET281      0.0387
    146  CG        49.3640   22.7700  -26.1790 C.3   281  MET281      0.0595
    147  SD        49.0430   21.0360  -25.8740 S.3   281  MET281     -0.1393
    148  CE        48.2450   21.1040  -24.2460 C.3   281  MET281      0.0692
    149  N         50.1070   18.8770  -31.3200 N.3   292  SER292     -0.1202
    150  CA        49.4380   18.7230  -30.0430 C.3   292  SER292      0.2020
    151  C         48.5650   17.4990  -30.0360 C.2   292  SER292      0.2618
    152  O         48.5800   16.7450  -29.0590 O.2   292  SER292     -0.2717
    153  CB        48.5990   19.9420  -29.7400 C.3   292  SER292      0.2103
    154  OG        49.4440   21.0320  -29.5060 O.3   292  SER292     -0.2182
    155  N         47.8110   17.2870  -31.1130 N.am  293  GLN293     -0.1979
    156  CA        47.0470   16.0440  -31.2340 C.3   293  GLN293      0.1601
    157  C         47.9360   14.8130  -31.2470 C.2   293  GLN293      0.2287
    158  O         47.6220   13.8120  -30.6000 O.2   293  GLN293     -0.2864
    159  CB        46.1000   16.0610  -32.4420 C.3   293  GLN293      0.0394
    160  CG        44.8340   16.8920  -32.2100 C.3   293  GLN293      0.0908
    161  CD        44.1650   16.5630  -30.8580 C.2   293  GLN293      0.2608
    162  OE1       43.8410   15.4120  -30.5790 O.2   293  GLN293     -0.2717
    163  NE2       43.9920   17.5740  -30.0180 N.am  293  GLN293     -0.0878
    164  N         49.1650   14.2760  -27.7860 N.3   296  PHE296     -0.1241
    165  CA        48.0430   13.8400  -26.9510 C.3   296  PHE296      0.1605
    166  C         47.8730   12.3290  -27.0750 C.2   296  PHE296      0.2264
    167  O         47.8160   11.6090  -26.0670 O.2   296  PHE296     -0.2867
    168  CB        46.7780   14.5960  -27.3830 C.3   296  PHE296      0.0534
    169  CG        45.5380   14.3160  -26.5460 C.ar  296  PHE296     -0.0203
    170  CD1       45.5960   14.2630  -25.1480 C.ar  296  PHE296     -0.0042
    171  CD2       44.2950   14.1850  -27.1710 C.ar  296  PHE296     -0.0042
    172  CE1       44.4360   14.0470  -24.3870 C.ar  296  PHE296     -0.0003
    173  CE2       43.1310   13.9630  -26.4250 C.ar  296  PHE296     -0.0003
    174  CZ        43.2070   13.8870  -25.0260 C.ar  296  PHE296     -0.0000
@<TRIPOS>BOND
     1    81    82    1
     2    83    82    1
     3    83    84    2
     4    85    82    1
     5    85    86    1
     6    88    86   ar
     7    88    90   ar
     8    86    87   ar
     9    90    91   ar
    10   111   113    1
    11   111   112    1
    12   111   108    1
    13    93    94    1
    14    87    89   ar
    15    91    89   ar
    16    91    92    1
    17   159   160    1
    18   159   156    1
    19   109   108    1
    20   109   110    2
    21   107   108    1
    22   107    95   am
    23   160   161    1
    24    76    75    2
    25    94    95    1
    26    94    97    1
    27    99   101   ar
    28    99    98   ar
    29    95    96    2
    30   149   150    1
    31   157   156    1
    32   157   158    2
    33   156   155    1
    34   155   151   am
    35   127   126    1
    36   127   128    1
    37   101   102   ar
    38    97    98    1
    39   126   123    1
    40   161   162    2
    41   161   163   am
    42    98   100   ar
    43    75    74    1
    44   102   100   ar
    45   102   104   ar
    46   100   103   ar
    47   150   151    1
    48   150   153    1
    49   151   152    2
    50   104   106   ar
    51   128   129    1
    52   153   154    1
    53   123   124    1
    54   123   122    1
    55   103   105   ar
    56    74    77    1
    57    74    73    1
    58   124   125    2
    59   122   116   am
    60    77    78    1
    61   106   105   ar
    62   114   115    1
    63   120   118    1
    64    78    80   am
    65    78    79    2
    66   116   115    1
    67   116   117    2
    68   115   118    1
    69   164   165    1
    70   118   119    1
    71   168   165    1
    72   168   169    1
    73   171   169   ar
    74   171   173   ar
    75     7     9   ar
    76     7     6   ar
    77   166   165    1
    78   166   167    2
    79     9    11   ar
    80   144   143    2
    81   169   170   ar
    82   173   174   ar
    83     1     2    1
    84     2     5    1
    85     2     3    1
    86   146   145    1
    87   146   147    1
    88     5     6    1
    89   119   121    1
    90     6     8   ar
    91   145   142    1
    92   147   148    1
    93   143   142    1
    94    68    67    2
    95    11    12    1
    96    11    10   ar
    97   134   131    1
    98   134   135    1
    99   130   131    1
   100   142   141    1
   101    23    24    1
   102   132   131    1
   103   132   133    2
   104     4     3    2
   105    67    66    1
   106   170   172   ar
   107     3    13   am
   108    24    27    1
   109    24    25    1
   110   174   172   ar
   111   135   137   ar
   112   135   136   ar
   113   137   139   ar
   114     8    10   ar
   115    27    28    1
   116    29    28   ar
   117    29    31   ar
   118   139   140   ar
   119   136   138   ar
   120    25    26    2
   121    66    69    1
   122    66    65    1
   123    13    14    1
   124    28    30   ar
   125    60    59    2
   126    69    70    1
   127   140   138   ar
   128    31    32   ar
   129    65    59   am
   130    59    58    1
   131    14    15    1
   132    14    17    1
   133    15    16    2
   134    30    32   ar
   135    72    70    1
   136    70    71    1
   137    57    58    1
   138    58    61    1
   139    19    21   ar
   140    19    18   ar
   141    17    18    1
   142    21    22   ar
   143    18    20   ar
   144    22    20   ar
   145    63    62   ar
   146    61    62    1
   147    62    64   ar
   148    56    55    1
   149    55    54    1
   150    54    53    1
   151    53    50    1
   152    45    44    2
   153    50    49    1
   154    50    51    1
   155    48    46    1
   156    46    43    1
   157    46    47    1
   158    52    51    2
   159    43    44    1
   160    43    42    1
   161    41    39   ar
   162    39    38    1
   163    39    40   ar
   164    38    37    1
   165    33    34    1
   166    37    34    1
   167    34    35    1
   168    36    35    2
