@<TRIPOS>MOLECULE
tmp/3i8xC00.pdb
 119 115 0 0 0
SMALL
GASTEIGER

@<TRIPOS>ATOM
      1  N         60.7610  -11.2870   82.7610 N.3    11  ASN11      -0.1226
      2  CA        61.8920  -10.6540   83.4210 C.3    11  ASN11       0.1770
      3  C         61.8610  -10.8840   84.9420 C.2    11  ASN11       0.2439
      4  O         60.8160  -11.1940   85.5010 O.2    11  ASN11      -0.2733
      5  CB        61.8510   -9.1500   83.1350 C.3    11  ASN11       0.1168
      6  CG        62.1640   -8.7960   81.6780 C.2    11  ASN11       0.2627
      7  OD1       62.1210   -9.6080   80.7750 O.2    11  ASN11      -0.2716
      8  ND2       62.4690   -7.5540   81.4650 N.am   11  ASN11      -0.0877
      9  N         63.0200  -10.7620   85.6210 N.am   12  PRO12      -0.2718
     10  CA        62.9380  -10.7060   87.0740 C.3    12  PRO12       0.1535
     11  C         62.1030   -9.4900   87.5440 C.2    12  PRO12       0.2599
     12  O         62.0720   -8.4540   86.8820 O.2    12  PRO12      -0.2715
     13  CB        64.4140  -10.6000   87.5050 C.3    12  PRO12       0.0310
     14  CG        65.1970  -11.1070   86.3470 C.3    12  PRO12       0.0237
     15  CD        64.4150  -10.7280   85.1440 C.3    12  PRO12       0.0939
     16  N         61.4300   -9.6120   88.6650 N.am   13  ASN13      -0.1959
     17  CA        60.5200   -8.5460   89.1230 C.3    13  ASN13       0.1819
     18  C         59.3950   -8.1990   88.1500 C.2    13  ASN13       0.2622
     19  O         58.9370   -7.0680   88.1070 O.2    13  ASN13      -0.2715
     20  CB        61.2830   -7.2520   89.5230 C.3    13  ASN13       0.1195
     21  CG        60.5640   -6.4420   90.6750 C.2    13  ASN13       0.2630
     22  OD1       61.1200   -5.4710   91.2140 O.2    13  ASN13      -0.2716
     23  ND2       59.3380   -6.8370   91.0250 N.am   13  ASN13      -0.0877
     24  N         58.9180   -9.1820   87.4020 N.am   14  SER14      -0.1936
     25  CA        57.7730   -8.9530   86.5300 C.3    14  SER14       0.2055
     26  C         56.4560   -9.3550   87.2250 C.2    14  SER14       0.2644
     27  O         55.3740   -9.1170   86.6830 O.2    14  SER14      -0.2714
     28  CB        57.9660   -9.6480   85.1830 C.3    14  SER14       0.2130
     29  OG        58.1350  -11.0550   85.3140 O.3    14  SER14      -0.2179
     30  N         56.5500   -9.9110   88.4360 N.am   15  GLY15      -0.1939
     31  CA        55.3750  -10.3860   89.1840 C.3    15  GLY15       0.2014
     32  C         55.0430  -11.8270   88.8360 C.2    15  GLY15       0.2639
     33  O         53.8960  -12.2430   88.9610 O.2    15  GLY15      -0.2714
     34  N         56.0540  -12.5730   88.3760 N.am   16  LYS16      -0.1963
     35  CA        55.8720  -13.9030   87.8050 C.3    16  LYS16       0.1728
     36  C         55.5780  -14.9540   88.8820 C.2    16  LYS16       0.2617
     37  O         54.7630  -15.8610   88.6790 O.2    16  LYS16      -0.2715
     38  CB        57.1100  -14.2890   86.9800 C.3    16  LYS16       0.0311
     39  CG        57.1610  -15.7410   86.5100 C.3    16  LYS16       0.0038
     40  CD        58.3670  -16.0390   85.6810 C.3    16  LYS16       0.0206
     41  CE        59.6760  -16.0990   86.5230 C.3    16  LYS16       0.1093
     42  NZ        59.8460  -17.3260   87.3720 N.3    16  LYS16      -0.1314
     43  N         56.2590  -14.8460   90.0120 N.am   17  THR17      -0.1937
     44  CA        56.0500  -15.7770   91.1280 C.3    17  THR17       0.2028
     45  C         54.6710  -15.5250   91.6860 C.2    17  THR17       0.2642
     46  O         53.9260  -16.4590   91.9390 O.2    17  THR17      -0.2714
     47  CB        57.1040  -15.5380   92.2390 C.3    17  THR17       0.1808
     48  OG1       58.3860  -15.8130   91.6940 O.3    17  THR17      -0.2208
     49  CG2       56.8580  -16.4250   93.4430 C.3    17  THR17       0.0379
     50  N         54.3320  -14.2500   91.8170 N.am   18  THR18      -0.1950
     51  CA        53.0200  -13.8630   92.2500 C.3    18  THR18       0.1897
     52  C         51.9410  -14.4260   91.3220 C.2    18  THR18       0.2313
     53  O         50.9440  -14.9780   91.8110 O.2    18  THR18      -0.2863
     54  CB        52.8530  -12.2960   92.4190 C.3    18  THR18       0.1794
     55  OG1       53.9160  -11.7520   93.2140 O.3    18  THR18      -0.2208
     56  CG2       51.5220  -11.9960   93.0930 C.3    18  THR18       0.0378
     57  N         51.3650   -6.8760   83.2930 N.3   120  ASN120     -0.1225
     58  CA        51.3240   -6.7250   84.7370 C.3   120  ASN120      0.1785
     59  C         51.7800   -5.3370   85.1670 C.2   120  ASN120      0.2597
     60  O         52.1810   -4.5240   84.3350 O.2   120  ASN120     -0.2718
     61  CB        52.2370   -7.7780   85.3420 C.3   120  ASN120      0.1169
     62  CG        51.7220   -8.3300   86.6270 C.2   120  ASN120      0.2627
     63  OD1       50.7110   -7.8930   87.1330 O.2   120  ASN120     -0.2716
     64  ND2       52.4260   -9.3060   87.1730 N.am  120  ASN120     -0.0877
     65  N         51.7380   -5.0940   86.4780 N.am  121  MET121     -0.1965
     66  CA        52.2190   -3.8670   87.0890 C.3   121  MET121      0.1736
     67  C         51.4350   -2.6750   86.5630 C.2   121  MET121      0.2616
     68  O         51.9720   -1.5760   86.4650 O.2   121  MET121     -0.2715
     69  CB        53.7260   -3.6770   86.8570 C.3   121  MET121      0.0427
     70  CG        54.5920   -4.9230   87.0900 C.3   121  MET121      0.0599
     71  SD        55.0590   -5.1470   88.7870 S.3   121  MET121     -0.1393
     72  CE        55.8630   -6.7400   88.7720 C.3   121  MET121      0.0692
     73  N         50.1490   -2.8870   86.2690 N.am  122  LEU122     -0.1963
     74  CA        49.3330   -1.8780   85.5860 C.3   122  LEU122      0.1728
     75  C         49.1300   -0.6230   86.4400 C.2   122  LEU122      0.2616
     76  O         49.1000    0.5010   85.9230 O.2   122  LEU122     -0.2715
     77  CB        47.9580   -2.4450   85.2060 C.3   122  LEU122      0.0311
     78  CG        47.8360   -3.5980   84.1870 C.3   122  LEU122      0.0022
     79  CD1       46.3410   -3.9140   84.0360 C.3   122  LEU122      0.0001
     80  CD2       48.4490   -3.2680   82.8550 C.3   122  LEU122      0.0001
     81  N         48.9620   -0.8280   87.7400 N.am  123  ASP123     -0.1957
     82  CA        48.8830    0.2830   88.6740 C.3   123  ASP123      0.1840
     83  C         50.1660    1.1240   88.6990 C.2   123  ASP123      0.2621
     84  O         50.0990    2.3380   88.8110 O.2   123  ASP123     -0.2715
     85  CB        48.5420   -0.2230   90.0760 C.3   123  ASP123      0.1450
     86  CG        49.5770   -1.1770   90.6240 C.2   123  ASP123      0.3671
     87  OD1       50.2160   -0.8300   91.6330 O.co2 123  ASP123     -0.2456
     88  OD2       49.7470   -2.2780   90.0670 O.co2 123  ASP123     -0.2456
     89  N         51.3240    0.4860   88.5930 N.am  124  ILE124     -0.1977
     90  CA        52.5930    1.2080   88.6070 C.3   124  ILE124      0.1596
     91  C         52.7150    2.0900   87.3630 C.2   124  ILE124      0.2287
     92  O         53.0800    3.2690   87.4660 O.2   124  ILE124     -0.2864
     93  CB        53.8050    0.2310   88.7370 C.3   124  ILE124      0.0276
     94  CG1       53.7980   -0.4020   90.1240 C.3   124  ILE124      0.0022
     95  CG2       55.1330    0.9420   88.4730 C.3   124  ILE124      0.0022
     96  CD1       55.0530   -1.1150   90.4610 C.3   124  ILE124      0.0001
     97  N         50.3040    5.1610   87.7860 N.3   127  LYS127     -0.1245
     98  CA        50.9390    6.2040   88.5740 C.3   127  LYS127      0.1561
     99  C         51.9610    7.0150   87.7580 C.2   127  LYS127      0.2260
    100  O         52.0460    8.2420   87.9100 O.2   127  LYS127     -0.2867
    101  CB        51.6010    5.6060   89.8240 C.3   127  LYS127      0.0271
    102  CG        50.6550    5.4580   91.0300 C.3   127  LYS127      0.0035
    103  CD        51.2870    4.6170   92.1990 C.3   127  LYS127      0.0206
    104  CE        50.7690    3.1480   92.2570 C.3   127  LYS127      0.1093
    105  NZ        51.8340    2.1080   92.5710 N.3   127  LYS127     -0.1314
    106  N         46.5630   -7.8650   83.3830 N.3   148  LEU148     -0.1245
    107  CA        46.3060   -8.5200   84.6590 C.3   148  LEU148      0.1561
    108  C         45.7910   -7.5140   85.6530 C.2   148  LEU148      0.2260
    109  O         46.5000   -7.1380   86.5870 O.2   148  LEU148     -0.2867
    110  CB        47.5450   -9.1800   85.2280 C.3   148  LEU148      0.0270
    111  CG        48.0030  -10.3890   84.4660 C.3   148  LEU148      0.0019
    112  CD1       49.3580  -10.6950   85.0160 C.3   148  LEU148      0.0001
    113  CD2       47.0170  -11.5540   84.5920 C.3   148  LEU148      0.0001
    114  N         44.3960   -6.4110   88.8330 N.3   150  SER150     -0.1217
    115  CA        44.5760   -6.9740   90.1870 C.3   150  SER150      0.1889
    116  C         43.2740   -7.1630   90.9960 C.2   150  SER150      0.2288
    117  O         43.0740   -8.1840   91.6540 O.2   150  SER150     -0.2866
    118  CB        45.5710   -6.0800   90.9670 C.3   150  SER150      0.2089
    119  OG        45.0760   -4.7460   91.1530 O.3   150  SER150     -0.2183
@<TRIPOS>BOND
     1     7     6    2
     2     8     6   am
     3     6     5    1
     4     1     2    1
     5    80    78    1
     6     5     2    1
     7    57    58    1
     8   106   107    1
     9     2     3    1
    10    79    78    1
    11    78    77    1
    12    60    59    2
    13   111   113    1
    14   111   112    1
    15   111   110    1
    16   107   110    1
    17   107   108    1
    18    58    59    1
    19    58    61    1
    20     3     4    2
    21     3     9   am
    22    15     9    1
    23    15    14    1
    24    59    65   am
    25    28    29    1
    26    28    25    1
    27    77    74    1
    28    61    62    1
    29    74    73    1
    30    74    75    1
    31     9    10    1
    32   108   109    2
    33    40    39    1
    34    40    41    1
    35    76    75    2
    36    73    67   am
    37    14    13    1
    38    75    81   am
    39    68    67    2
    40    65    66    1
    41    39    38    1
    42    41    42    1
    43    25    26    1
    44    25    24    1
    45    67    66    1
    46    62    63    2
    47    62    64   am
    48    27    26    2
    49    69    66    1
    50    69    70    1
    51    12    11    2
    52    38    35    1
    53    10    13    1
    54    10    11    1
    55    70    71    1
    56    26    30   am
    57    91    92    2
    58    91    90    1
    59    24    18   am
    60    11    16   am
    61    81    82    1
    62    99   100    2
    63    99    98    1
    64    97    98    1
    65    35    34    1
    66    35    36    1
    67    19    18    2
    68    18    17    1
    69    34    32   am
    70    30    31    1
    71    95    93    1
    72    98   101    1
    73    89    90    1
    74    89    83   am
    75    90    93    1
    76    16    17    1
    77    82    83    1
    78    82    85    1
    79    37    36    2
    80    83    84    2
    81    93    94    1
    82    72    71    1
    83   114   115    1
    84    32    33    2
    85    32    31    1
    86    36    43   am
    87    17    20    1
    88    20    21    1
    89   101   102    1
    90    43    44    1
    91    88    86   ar
    92    85    86    1
    93    94    96    1
    94   115   118    1
    95   115   116    1
    96    86    87   ar
    97    21    23   am
    98    21    22    2
    99   118   119    1
   100   116   117    2
   101   102   103    1
   102    44    45    1
   103    44    47    1
   104    52    53    2
   105    52    51    1
   106    45    50   am
   107    45    46    2
   108    48    47    1
   109    50    51    1
   110   103   104    1
   111    47    49    1
   112    51    54    1
   113   104   105    1
   114    54    56    1
   115    54    55    1
