@<TRIPOS>MOLECULE
tmp/3i92B00.pdb
 104 100 0 0 0
SMALL
GASTEIGER

@<TRIPOS>ATOM
      1  N         22.2670   -3.8010   34.0600 N.3    11  PRO11      -0.2102
      2  CA        21.2070   -2.8760   33.6990 C.3    11  PRO11       0.1504
      3  C         20.8880   -2.9220   32.2130 C.2    11  PRO11       0.2576
      4  O         21.7900   -3.0900   31.3900 O.2    11  PRO11      -0.2718
      5  CB        21.7920   -1.5110   34.0680 C.3    11  PRO11       0.0282
      6  CG        22.7570   -1.7960   35.1380 C.3    11  PRO11       0.0208
      7  CD        23.3540   -3.1240   34.7870 C.3    11  PRO11       0.0893
      8  N         19.6070   -2.7970   31.8830 N.am   12  ASN12      -0.1961
      9  CA        19.1810   -2.6190   30.5040 C.3    12  ASN12       0.1819
     10  C         19.4340   -3.8570   29.6320 C.2    12  ASN12       0.2622
     11  O         19.6060   -3.7420   28.4230 O.2    12  ASN12      -0.2715
     12  CB        19.8780   -1.3720   29.9220 C.3    12  ASN12       0.1195
     13  CG        18.9170   -0.4320   29.2300 C.2    12  ASN12       0.2630
     14  OD1       17.9100   -0.0180   29.8090 O.2    12  ASN12      -0.2716
     15  ND2       19.2320   -0.0740   27.9900 N.am   12  ASN12      -0.0877
     16  N         19.4330   -5.0360   30.2540 N.am   13  SER13      -0.1936
     17  CA        19.6520   -6.3060   29.5400 C.3    13  SER13       0.2055
     18  C         18.3470   -7.0100   29.1390 C.2    13  SER13       0.2644
     19  O         18.3760   -8.0860   28.5410 O.2    13  SER13      -0.2714
     20  CB        20.5140   -7.2540   30.3860 C.3    13  SER13       0.2130
     21  OG        19.8860   -7.5710   31.6150 O.3    13  SER13      -0.2179
     22  N         17.2120   -6.3910   29.4520 N.am   14  GLY14      -0.1939
     23  CA        15.9010   -6.9620   29.1570 C.3    14  GLY14       0.2014
     24  C         15.3340   -7.7320   30.3320 C.2    14  GLY14       0.2639
     25  O         14.4680   -8.5980   30.1750 O.2    14  GLY14      -0.2714
     26  N         15.8200   -7.3920   31.5170 N.am   15  LYS15      -0.1963
     27  CA        15.5250   -8.1380   32.7290 C.3    15  LYS15       0.1728
     28  C         14.0530   -8.0150   33.1440 C.2    15  LYS15       0.2617
     29  O         13.4630   -8.9850   33.6160 O.2    15  LYS15      -0.2715
     30  CB        16.4810   -7.6730   33.8390 C.3    15  LYS15       0.0311
     31  CG        16.0940   -8.0430   35.2650 C.3    15  LYS15       0.0038
     32  CD        17.1850   -7.6570   36.2720 C.3    15  LYS15       0.0206
     33  CE        17.8070   -6.2740   35.9930 C.3    15  LYS15       0.1093
     34  NZ        16.7960   -5.1940   35.7350 N.3    15  LYS15      -0.1314
     35  N         13.4600   -6.8360   32.9620 N.am   16  THR16      -0.1937
     36  CA        12.0600   -6.6180   33.3420 C.3    16  THR16       0.2028
     37  C         11.1330   -7.2720   32.3260 C.2    16  THR16       0.2642
     38  O         10.2310   -8.0250   32.6940 O.2    16  THR16      -0.2714
     39  CB        11.7190   -5.1190   33.4640 C.3    16  THR16       0.1808
     40  OG1       12.4450   -4.5520   34.5640 O.3    16  THR16      -0.2208
     41  CG2       10.2250   -4.9170   33.6930 C.3    16  THR16       0.0379
     42  N         11.3690   -6.9850   31.0470 N.am   17  THR17      -0.1950
     43  CA        10.6380   -7.6280   29.9510 C.3    17  THR17       0.1897
     44  C         10.4130   -9.1190   30.2080 C.2    17  THR17       0.2313
     45  O          9.3160   -9.6230   29.9890 O.2    17  THR17      -0.2863
     46  CB        11.3840   -7.4680   28.6110 C.3    17  THR17       0.1794
     47  OG1       11.5010   -6.0770   28.2890 O.3    17  THR17      -0.2208
     48  CG2       10.6500   -8.1960   27.4900 C.3    17  THR17       0.0378
     49  N         19.2530   -3.8830   38.8660 N.3    58  GLY58      -0.1225
     50  CA        20.3040   -4.0970   37.8810 C.3    58  GLY58       0.1811
     51  C         21.6490   -3.7160   38.4570 C.2    58  GLY58       0.2280
     52  O         21.7280   -2.8420   39.3190 O.2    58  GLY58      -0.2866
     53  N         19.6850  -13.4370   26.7120 N.3   119  ASN119     -0.1225
     54  CA        18.6680  -12.5770   26.1360 C.3   119  ASN119      0.1785
     55  C         19.2460  -11.7650   24.9830 C.2   119  ASN119      0.2597
     56  O         20.4590  -11.5460   24.9150 O.2   119  ASN119     -0.2718
     57  CB        18.1190  -11.6470   27.2230 C.3   119  ASN119      0.1169
     58  CG        16.8390  -10.9440   26.8140 C.2   119  ASN119      0.2627
     59  OD1       16.0450  -11.4660   26.0380 O.2   119  ASN119     -0.2716
     60  ND2       16.6310   -9.7540   27.3500 N.am  119  ASN119     -0.0877
     61  N         18.3710  -11.3400   24.0760 N.am  120  MET120     -0.1979
     62  CA        18.7380  -10.4850   22.9490 C.3   120  MET120      0.1605
     63  C         19.6370  -11.2120   21.9520 C.2   120  MET120      0.2287
     64  O         20.6460  -10.6790   21.4970 O.2   120  MET120     -0.2864
     65  CB        19.3740   -9.1790   23.4430 C.3   120  MET120      0.0413
     66  CG        18.4360   -8.3690   24.3200 C.3   120  MET120      0.0598
     67  SD        19.2470   -7.0560   25.2350 S.3   120  MET120     -0.1393
     68  CE        17.8230   -6.0940   25.7510 C.3   120  MET120      0.0692
     69  N         18.4000  -12.0350   19.0410 N.3   122  ASP122     -0.1225
     70  CA        18.0180  -11.3290   17.8150 C.3   122  ASP122      0.1805
     71  C         18.9150  -10.1190   17.5580 C.2   122  ASP122      0.2597
     72  O         19.3000   -9.8640   16.4190 O.2   122  ASP122     -0.2718
     73  CB        16.5440  -10.9050   17.8470 C.3   122  ASP122      0.1424
     74  CG        16.1970  -10.0750   19.0660 C.2   122  ASP122      0.3668
     75  OD1       16.8020  -10.3130   20.1350 O.co2 122  ASP122     -0.2456
     76  OD2       15.3170   -9.1940   18.9570 O.co2 122  ASP122     -0.2456
     77  N         19.2530   -9.3790   18.6090 N.am  123  ILE123     -0.1980
     78  CA        20.2310   -8.3010   18.4810 C.3   123  ILE123      0.1595
     79  C         21.5880   -8.9010   18.1160 C.2   123  ILE123      0.2287
     80  O         22.2890   -8.3850   17.2420 O.2   123  ILE123     -0.2864
     81  CB        20.3540   -7.4800   19.7720 C.3   123  ILE123      0.0276
     82  CG1       19.0640   -6.6900   20.0030 C.3   123  ILE123      0.0022
     83  CG2       21.5610   -6.5480   19.7010 C.3   123  ILE123      0.0022
     84  CD1       19.0930   -5.7960   21.2230 C.3   123  ILE123      0.0001
     85  N         14.5770  -14.5160   23.5450 N.3   148  VAL148     -0.1231
     86  CA        14.2830  -13.2000   22.9840 C.3   148  VAL148      0.1692
     87  C         13.0720  -12.6880   23.7600 C.2   148  VAL148      0.2593
     88  O         11.9330  -12.7750   23.3000 O.2   148  VAL148     -0.2718
     89  CB        14.0110  -13.2300   21.4630 C.3   148  VAL148      0.0266
     90  CG1       13.7440  -11.8220   20.9430 C.3   148  VAL148      0.0020
     91  CG2       15.1860  -13.8430   20.7310 C.3   148  VAL148      0.0020
     92  N         13.3460  -12.1520   24.9470 N.am  149  SER149     -0.1938
     93  CA        12.3310  -11.9370   25.9810 C.3   149  SER149      0.2055
     94  C         11.1430  -11.0620   25.5630 C.2   149  SER149      0.2643
     95  O         10.0740  -11.1410   26.1730 O.2   149  SER149     -0.2714
     96  CB        12.9910  -11.3690   27.2430 C.3   149  SER149      0.2130
     97  OG        14.0360  -12.2170   27.6980 O.3   149  SER149     -0.2179
     98  N         11.3230  -10.2280   24.5390 N.am  150  THR150     -0.1950
     99  CA        10.2020   -9.4830   23.9550 C.3   150  THR150      0.1897
    100  C          9.2900  -10.4510   23.2050 C.2   150  THR150      0.2313
    101  O          8.1120  -10.5870   23.5320 O.2   150  THR150     -0.2863
    102  CB        10.6820   -8.3750   22.9900 C.3   150  THR150      0.1794
    103  OG1       11.7490   -8.8760   22.1740 O.3   150  THR150     -0.2208
    104  CG2       11.1680   -7.1500   23.7630 C.3   150  THR150      0.0378
@<TRIPOS>BOND
     1    72    71    2
     2    80    79    2
     3    71    70    1
     4    71    77   am
     5    70    73    1
     6    70    69    1
     7    73    74    1
     8    79    78    1
     9    78    77    1
    10    78    81    1
    11    76    74   ar
    12    74    75   ar
    13    83    81    1
    14    81    82    1
    15    82    84    1
    16    91    89    1
    17    90    89    1
    18    89    86    1
    19    64    63    2
    20    63    62    1
    21   103   102    1
    22    62    65    1
    23    62    61    1
    24    86    85    1
    25    86    87    1
    26   102   104    1
    27   102    99    1
    28   100   101    2
    29   100    99    1
    30    88    87    2
    31    65    66    1
    32    87    92   am
    33    99    98    1
    34    61    55   am
    35    66    67    1
    36    98    94   am
    37    56    55    2
    38    92    93    1
    39    55    54    1
    40    67    68    1
    41    94    93    1
    42    94    95    2
    43    93    96    1
    44    59    58    2
    45    54    53    1
    46    54    57    1
    47    58    57    1
    48    58    60   am
    49    96    97    1
    50    48    46    1
    51    15    13   am
    52    47    46    1
    53    11    10    2
    54    19    18    2
    55    46    43    1
    56    18    22   am
    57    18    17    1
    58    23    22    1
    59    23    24    1
    60    13    14    2
    61    13    12    1
    62    17    16    1
    63    17    20    1
    64    10    16   am
    65    10     9    1
    66    12     9    1
    67    43    44    1
    68    43    42    1
    69    45    44    2
    70    25    24    2
    71    24    26   am
    72    20    21    1
    73     9     8    1
    74    42    37   am
    75     4     3    2
    76    26    27    1
    77     8     3   am
    78     3     2    1
    79    37    38    2
    80    37    36    1
    81    27    28    1
    82    27    30    1
    83    35    28   am
    84    35    36    1
    85    28    29    2
    86    36    39    1
    87    39    41    1
    88    39    40    1
    89     2     1    1
    90     2     5    1
    91    30    31    1
    92     1     7    1
    93     5     6    1
    94     7     6    1
    95    31    32    1
    96    34    33    1
    97    33    32    1
    98    50    51    1
    99    50    49    1
   100    51    52    2
