@<TRIPOS>MOLECULE
tmp/3i9aB00.pdb
 88 87 0 0 0
SMALL
GASTEIGER

@<TRIPOS>ATOM
      1  N        -23.2120  -25.1710   -2.8240 N.3    35  PHE35      -0.1227
      2  CA       -22.2710  -24.6790   -1.8090 C.3    35  PHE35       0.1736
      3  C        -22.9350  -23.8170   -0.7120 C.2    35  PHE35       0.2595
      4  O        -22.6130  -23.9660    0.4740 O.2    35  PHE35      -0.2718
      5  CB       -21.1410  -23.9100   -2.5140 C.3    35  PHE35       0.0547
      6  CG       -19.9490  -23.6280   -1.6490 C.ar   35  PHE35      -0.0202
      7  CD1      -19.2110  -24.6610   -1.0950 C.ar   35  PHE35      -0.0042
      8  CD2      -19.5470  -22.3250   -1.4150 C.ar   35  PHE35      -0.0042
      9  CE1      -18.1070  -24.3970   -0.3040 C.ar   35  PHE35      -0.0003
     10  CE2      -18.4480  -22.0540   -0.6310 C.ar   35  PHE35      -0.0003
     11  CZ       -17.7250  -23.0930   -0.0710 C.ar   35  PHE35      -0.0000
     12  N        -23.8480  -22.9280   -1.1210 N.am   36  ALA36      -0.1966
     13  CA       -24.6300  -22.0490   -0.2220 C.3    36  ALA36       0.1728
     14  C        -25.7480  -21.3190   -0.9840 C.2    36  ALA36       0.2617
     15  O        -25.6690  -21.2040   -2.2130 O.2    36  ALA36      -0.2715
     16  CB       -23.7140  -21.0180    0.4720 C.3    36  ALA36       0.0334
     17  N        -26.7700  -20.8360   -0.2590 N.am   37  SER37      -0.1936
     18  CA       -27.8380  -19.9730   -0.8320 C.3    37  SER37       0.2055
     19  C        -28.5560  -19.0680    0.1940 C.2    37  SER37       0.2644
     20  O        -28.4190  -19.2590    1.4080 O.2    37  SER37      -0.2714
     21  CB       -28.8660  -20.7990   -1.6280 C.3    37  SER37       0.2130
     22  OG       -29.5890  -21.6900   -0.7900 O.3    37  SER37      -0.2179
     23  N        -29.3060  -18.0820   -0.3100 N.am   38  GLY38      -0.1939
     24  CA       -30.1340  -17.1820    0.5130 C.3    38  GLY38       0.2014
     25  C        -30.9220  -16.1750   -0.3200 C.2    38  GLY38       0.2638
     26  O        -30.9840  -16.2960   -1.5480 O.2    38  GLY38      -0.2714
     27  N        -31.5290  -15.1950    0.3480 N.am   39  LYS39      -0.1977
     28  CA       -32.2600  -14.1170   -0.3300 C.3    39  LYS39       0.1596
     29  C        -31.8990  -12.7510    0.2530 C.2    39  LYS39       0.2287
     30  O        -31.6730  -12.6270    1.4600 O.2    39  LYS39      -0.2864
     31  CB       -33.7740  -14.3520   -0.2580 C.3    39  LYS39       0.0298
     32  CG       -34.3600  -14.2550    1.1400 C.3    39  LYS39       0.0038
     33  CD       -35.8380  -14.6460    1.1700 C.3    39  LYS39       0.0206
     34  CE       -36.7090  -13.6490    0.4180 C.3    39  LYS39       0.1093
     35  NZ       -36.8560  -13.9850   -1.0260 N.3    39  LYS39      -0.1314
     36  N        -26.8140   -9.6310    1.0610 N.3    46  LEU46      -0.1231
     37  CA       -26.8100  -11.0140    1.5720 C.3    46  LEU46       0.1693
     38  C        -25.4690  -11.3540    2.2480 C.2    46  LEU46       0.2592
     39  O        -24.4100  -11.3550    1.5970 O.2    46  LEU46      -0.2718
     40  CB       -27.1630  -12.0220    0.4560 C.3    46  LEU46       0.0284
     41  CG       -27.1920  -13.5300    0.7750 C.3    46  LEU46       0.0019
     42  CD1      -28.1580  -13.8770    1.9160 C.3    46  LEU46       0.0001
     43  CD2      -27.5400  -14.3430   -0.4670 C.3    46  LEU46       0.0001
     44  N        -25.5410  -11.6090    3.5590 N.am   47  HIS47      -0.1962
     45  CA       -24.3900  -11.9120    4.4330 C.3    47  HIS47       0.1787
     46  C        -24.4170  -13.3700    4.9310 C.2    47  HIS47       0.2621
     47  O        -25.4200  -14.0780    4.7740 O.2    47  HIS47      -0.2715
     48  CB       -24.3880  -10.9830    5.6600 C.3    47  HIS47       0.0785
     49  CG       -24.2530   -9.5250    5.3370 C.ar   47  HIS47       0.0821
     50  ND1      -23.0380   -8.8710    5.3260 N.ar   47  HIS47      -0.2267
     51  CD2      -25.1860   -8.5890    5.0410 C.ar   47  HIS47       0.1154
     52  CE1      -23.2290   -7.5980    5.0230 C.ar   47  HIS47       0.1986
     53  NE2      -24.5230   -7.4010    4.8450 N.ar   47  HIS47      -0.2212
     54  N        -23.3100  -13.8090    5.5320 N.am   48  GLY48      -0.1940
     55  CA       -23.2420  -15.1070    6.2150 C.3    48  GLY48       0.2014
     56  C        -23.3070  -16.3610    5.3580 C.2    48  GLY48       0.2639
     57  O        -23.7800  -17.3990    5.8210 O.2    48  GLY48      -0.2714
     58  N        -22.8270  -16.2780    4.1200 N.am   49  LEU49      -0.1963
     59  CA       -22.8400  -17.4280    3.2110 C.3    49  LEU49       0.1728
     60  C        -21.8100  -18.5180    3.5590 C.2    49  LEU49       0.2617
     61  O        -22.0720  -19.7010    3.3470 O.2    49  LEU49      -0.2715
     62  CB       -22.6860  -16.9800    1.7450 C.3    49  LEU49       0.0311
     63  CG       -23.8870  -16.3020    1.0660 C.3    49  LEU49       0.0022
     64  CD1      -23.4710  -15.5390   -0.1960 C.3    49  LEU49       0.0001
     65  CD2      -24.9930  -17.3020    0.7450 C.3    49  LEU49       0.0001
     66  N        -20.6460  -18.1230    4.0760 N.am   50  THR50      -0.1937
     67  CA       -19.5460  -19.0750    4.3430 C.3    50  THR50       0.2028
     68  C        -18.6250  -18.5900    5.4800 C.2    50  THR50       0.2642
     69  O        -18.8480  -17.5210    6.0470 O.2    50  THR50      -0.2714
     70  CB       -18.7440  -19.4040    3.0310 C.3    50  THR50       0.1808
     71  OG1      -17.8540  -20.5100    3.2500 O.3    50  THR50      -0.2208
     72  CG2      -17.9440  -18.1950    2.5380 C.3    50  THR50       0.0379
     73  N        -17.6080  -19.3840    5.8190 N.am   51  THR51      -0.1950
     74  CA       -16.6240  -19.0140    6.8510 C.3    51  THR51       0.1897
     75  C        -15.2120  -19.0390    6.2800 C.2    51  THR51       0.2313
     76  O        -14.9740  -19.6470    5.2360 O.2    51  THR51      -0.2863
     77  CB       -16.6430  -19.9820    8.0680 C.3    51  THR51       0.1794
     78  OG1      -16.2720  -21.2970    7.6370 O.3    51  THR51      -0.2208
     79  CG2      -18.0160  -20.0260    8.7320 C.3    51  THR51       0.0378
     80  N        -13.9040  -22.7130    5.6960 N.3    54  GLU54      -0.1245
     81  CA       -14.5660  -23.4360    4.5980 C.3    54  GLU54       0.1567
     82  C        -14.2150  -22.9140    3.1940 C.2    54  GLU54       0.2260
     83  O        -14.1790  -23.6870    2.2300 O.2    54  GLU54      -0.2867
     84  CB       -16.0960  -23.4150    4.7910 C.3    54  GLU54       0.0388
     85  CG       -16.8690  -24.2580    3.7690 C.3    54  GLU54       0.1160
     86  CD       -18.3870  -24.1660    3.9170 C.2    54  GLU54       0.3649
     87  OE1      -19.0440  -25.2310    3.8980 O.co2  54  GLU54      -0.2457
     88  OE2      -18.9270  -23.0420    4.0370 O.co2  54  GLU54      -0.2457
@<TRIPOS>BOND
     1     1     2    1
     2     5     2    1
     3     5     6    1
     4    15    14    2
     5     2     3    1
     6     6     8   ar
     7     6     7   ar
     8    21    18    1
     9    21    22    1
    10    26    25    2
    11     8    10   ar
    12    12     3   am
    13    12    13    1
    14     7     9   ar
    15    35    34    1
    16    14    17   am
    17    14    13    1
    18    18    17    1
    19    18    19    1
    20     3     4    2
    21    10    11   ar
    22    43    41    1
    23    28    31    1
    24    28    29    1
    25    28    27    1
    26    25    27   am
    27    25    24    1
    28    23    19   am
    29    23    24    1
    30     9    11   ar
    31    31    32    1
    32    13    16    1
    33    64    63    1
    34    19    20    2
    35    29    30    2
    36    34    33    1
    37    40    41    1
    38    40    37    1
    39    65    63    1
    40    41    42    1
    41    36    37    1
    42    63    62    1
    43    32    33    1
    44    37    38    1
    45    39    38    2
    46    62    59    1
    47    83    82    2
    48    38    44   am
    49    72    70    1
    50    70    71    1
    51    70    67    1
    52    82    81    1
    53    59    60    1
    54    59    58    1
    55    61    60    2
    56    44    45    1
    57    60    66   am
    58    85    86    1
    59    85    84    1
    60    87    86   ar
    61    86    88   ar
    62    66    67    1
    63    58    56   am
    64    67    68    1
    65    45    46    1
    66    45    48    1
    67    81    84    1
    68    81    80    1
    69    47    46    2
    70    53    52   ar
    71    53    51   ar
    72    46    54   am
    73    52    50   ar
    74    51    49   ar
    75    76    75    2
    76    50    49   ar
    77    49    48    1
    78    56    57    2
    79    56    55    1
    80    68    73   am
    81    68    69    2
    82    54    55    1
    83    73    74    1
    84    75    74    1
    85    74    77    1
    86    78    77    1
    87    77    79    1
