@<TRIPOS>MOLECULE
tmp/3i9gA00.pdb
 127 125 0 0 0
SMALL
GASTEIGER

@<TRIPOS>ATOM
      1  N         -9.6270   19.8500   30.3790 N.3    33  THR33      -0.1218
      2  CA        -9.1210   19.6960   29.0140 C.3    33  THR33       0.1862
      3  C         -9.8730   18.5340   28.3130 C.2    33  THR33       0.2287
      4  O        -10.4490   17.6790   28.9750 O.2    33  THR33      -0.2866
      5  CB        -7.6090   19.4370   28.9770 C.3    33  THR33       0.1770
      6  OG1       -7.2970   18.3620   29.8800 O.3    33  THR33      -0.2211
      7  CG2       -6.7860   20.7310   29.3360 C.3    33  THR33       0.0375
      8  N         -9.4950   15.4980   25.3680 N.3    35  HIS35      -0.1241
      9  CA        -8.4280   14.7560   24.7270 C.3    35  HIS35       0.1621
     10  C         -9.0750   13.8420   23.7030 C.2    35  HIS35       0.2264
     11  O        -10.2040   13.4570   23.8950 O.2    35  HIS35      -0.2867
     12  CB        -7.7160   13.9070   25.7850 C.3    35  HIS35       0.0745
     13  CG        -7.1010   14.7130   26.8810 C.ar   35  HIS35       0.0817
     14  ND1       -5.7400   14.7980   27.0560 N.ar   35  HIS35      -0.2268
     15  CD2       -7.6610   15.4690   27.8550 C.ar   35  HIS35       0.1154
     16  CE1       -5.4830   15.5810   28.0920 C.ar   35  HIS35       0.1986
     17  NE2       -6.6330   16.0180   28.5810 N.ar   35  HIS35      -0.2212
     18  N         -3.3040    8.0760   22.3030 N.3    47  TRP47      -0.1241
     19  CA        -3.6280    9.4730   22.5990 C.3    47  TRP47       0.1605
     20  C         -3.1840   10.3710   21.4170 C.2    47  TRP47       0.2264
     21  O         -2.0140   10.3650   21.0130 O.2    47  TRP47      -0.2867
     22  CB        -2.9340    9.8860   23.8990 C.3    47  TRP47       0.0550
     23  CG        -3.1460   11.3390   24.3060 C.ar   47  TRP47       0.0003
     24  CD1       -4.2040   11.8620   24.9990 C.ar   47  TRP47       0.0946
     25  CD2       -2.2500   12.4230   24.0510 C.ar   47  TRP47       0.0152
     26  NE1       -4.0140   13.2270   25.1900 N.ar   47  TRP47      -0.2442
     27  CE2       -2.8240   13.5890   24.6170 C.ar   47  TRP47       0.0810
     28  CE3       -1.0080   12.5200   23.4110 C.ar   47  TRP47       0.0012
     29  CZ2       -2.1900   14.8420   24.5590 C.ar   47  TRP47       0.0191
     30  CZ3       -0.3730   13.7720   23.3520 C.ar   47  TRP47       0.0001
     31  CH2       -0.9750   14.9120   23.9120 C.ar   47  TRP47       0.0015
     32  N         -4.8210   17.0950   22.7180 N.3    50  ALA50      -0.1245
     33  CA        -5.7330   17.6570   23.6860 C.3    50  ALA50       0.1562
     34  C         -5.8510   19.1600   23.4660 C.2    50  ALA50       0.2260
     35  O         -5.0100   19.7530   22.8020 O.2    50  ALA50      -0.2867
     36  CB        -5.2470   17.3910   25.1420 C.3    50  ALA50       0.0290
     37  N         -7.1530   22.8450   25.7560 N.3    52  SER52      -0.1217
     38  CA        -7.7570   23.6050   26.8440 C.3    52  SER52       0.1889
     39  C         -8.6330   24.6920   26.2120 C.2    52  SER52       0.2288
     40  O         -8.0970   25.6600   25.6540 O.2    52  SER52      -0.2866
     41  CB        -6.6710   24.2720   27.7210 C.3    52  SER52       0.2089
     42  OG        -7.2650   25.1040   28.7250 O.3    52  SER52      -0.2183
     43  N         -7.8140   28.2840   27.6680 N.3    55  HIS55      -0.1241
     44  CA        -6.5910   28.9560   27.2210 C.3    55  HIS55       0.1621
     45  C         -6.3290   28.9450   25.7220 C.2    55  HIS55       0.2264
     46  O         -5.3350   29.5330   25.2650 O.2    55  HIS55      -0.2867
     47  CB        -5.3770   28.3750   27.9550 C.3    55  HIS55       0.0745
     48  CG        -5.5060   28.4310   29.4430 C.ar   55  HIS55       0.0817
     49  ND1       -5.3590   29.6050   30.1540 N.ar   55  HIS55      -0.2268
     50  CD2       -5.7760   27.4680   30.3550 C.ar   55  HIS55       0.1154
     51  CE1       -5.5390   29.3630   31.4420 C.ar   55  HIS55       0.1986
     52  NE2       -5.7960   28.0760   31.5910 N.ar   55  HIS55      -0.2212
     53  N         -5.2460   26.4830   23.9930 N.3    57  ILE57      -0.1245
     54  CA        -3.9620   25.8330   23.7990 C.3    57  ILE57       0.1561
     55  C         -4.1850   24.3510   23.4370 C.2    57  ILE57       0.2260
     56  O         -4.9740   23.6840   24.0740 O.2    57  ILE57      -0.2867
     57  CB        -3.0870   25.9710   25.0710 C.3    57  ILE57       0.0252
     58  CG1       -2.4760   27.3850   25.1190 C.3    57  ILE57       0.0019
     59  CG2       -1.9870   24.9210   25.1100 C.3    57  ILE57       0.0019
     60  CD1       -1.7270   27.6970   26.3960 C.3    57  ILE57       0.0001
     61  N         -2.2600   20.5260   22.4000 N.3    59  LYS59      -0.1245
     62  CA        -1.0570   19.7170   22.4290 C.3    59  LYS59       0.1561
     63  C         -1.3260   18.5060   21.5360 C.2    59  LYS59       0.2260
     64  O         -2.4520   17.9930   21.5190 O.2    59  LYS59      -0.2867
     65  CB        -0.7590   19.3120   23.8800 C.3    59  LYS59       0.0271
     66  CG        -0.2890   20.4980   24.7850 C.3    59  LYS59       0.0035
     67  CD         1.2400   20.5990   24.7670 C.3    59  LYS59       0.0206
     68  CE         1.7470   22.0030   24.4620 C.3    59  LYS59       0.1093
     69  NZ         1.4990   23.0770   25.4860 N.3    59  LYS59      -0.1314
     70  N         -7.2370   17.0580   32.9750 N.3   100  GLY100     -0.1210
     71  CA        -6.8510   18.2880   33.6770 C.3   100  GLY100      0.1956
     72  C         -5.6940   18.9940   32.9830 C.2   100  GLY100      0.2612
     73  O         -5.5780   18.9710   31.7450 O.2   100  GLY100     -0.2717
     74  N         -4.8300   19.6040   33.7940 N.am  101  PHE101     -0.1962
     75  CA        -3.7440   20.4470   33.3100 C.3   101  PHE101      0.1771
     76  C         -2.4040   19.9620   33.8660 C.2   101  PHE101      0.2620
     77  O         -2.3470   18.8920   34.4840 O.2   101  PHE101     -0.2715
     78  CB        -4.0120   21.9150   33.7420 C.3   101  PHE101      0.0574
     79  CG        -5.3520   22.4370   33.2900 C.ar  101  PHE101     -0.0200
     80  CD1       -6.4960   22.1810   34.0280 C.ar  101  PHE101     -0.0042
     81  CD2       -5.4690   23.1680   32.1140 C.ar  101  PHE101     -0.0042
     82  CE1       -7.7420   22.6460   33.5900 C.ar  101  PHE101     -0.0003
     83  CE2       -6.7240   23.6330   31.6750 C.ar  101  PHE101     -0.0003
     84  CZ        -7.8410   23.3760   32.4210 C.ar  101  PHE101     -0.0000
     85  N         -1.3220   20.7230   33.6680 N.am  102  TYR102     -0.1960
     86  CA        -0.0380   20.3620   34.3110 C.3   102  TYR102      0.1771
     87  C         -0.2010   20.4180   35.8230 C.2   102  TYR102      0.2620
     88  O         -0.6510   21.4290   36.3680 O.2   102  TYR102     -0.2715
     89  CB         1.1120   21.2620   33.8310 C.3   102  TYR102      0.0574
     90  CG         1.5160   21.0250   32.3970 C.ar  102  TYR102     -0.0198
     91  CD1        2.6070   20.2120   32.0890 C.ar  102  TYR102     -0.0009
     92  CD2        0.7830   21.5830   31.3360 C.ar  102  TYR102     -0.0009
     93  CE1        2.9810   19.9760   30.7750 C.ar  102  TYR102      0.0417
     94  CE2        1.1540   21.3500   30.0030 C.ar  102  TYR102      0.0417
     95  CZ         2.2510   20.5500   29.7310 C.ar  102  TYR102      0.1957
     96  OH         2.6380   20.3110   28.4240 O.3   102  TYR102     -0.2866
     97  N          0.0810   19.3030   36.5020 N.am  103  GLY103     -0.1940
     98  CA        -0.2160   19.1790   37.9140 C.3   103  GLY103      0.2014
     99  C         -1.4410   18.3720   38.3110 C.2   103  GLY103      0.2640
    100  O         -1.5490   17.9640   39.4570 O.2   103  GLY103     -0.2714
    101  N         -2.3660   18.1380   37.3860 N.am  104  SER104     -0.1935
    102  CA        -3.5750   17.3550   37.6700 C.3   104  SER104      0.2055
    103  C         -3.2630   15.8460   37.7420 C.2   104  SER104      0.2643
    104  O         -2.3230   15.3780   37.1010 O.2   104  SER104     -0.2714
    105  CB        -4.6120   17.5740   36.5740 C.3   104  SER104      0.2130
    106  OG        -4.9930   18.9350   36.5640 O.3   104  SER104     -0.2179
    107  N         -4.0780   15.1170   38.4890 N.am  105  THR105     -0.1950
    108  CA        -3.7430   13.7220   38.8310 C.3   105  THR105      0.1897
    109  C         -4.8140   12.7270   38.3760 C.2   105  THR105      0.2313
    110  O         -4.7170   11.5330   38.6610 O.2   105  THR105     -0.2863
    111  CB        -3.4510   13.5650   40.3410 C.3   105  THR105      0.1794
    112  OG1       -4.5900   13.9700   41.1000 O.3   105  THR105     -0.2208
    113  CG2       -2.2300   14.4060   40.7700 C.3   105  THR105      0.0378
    114  N         -7.0830   11.4940   34.9960 N.3   107  TRP107     -0.1241
    115  CA        -7.0730   11.5490   33.5300 C.3   107  TRP107      0.1605
    116  C         -8.1060   10.5970   32.9480 C.2   107  TRP107      0.2264
    117  O         -8.1120    9.3990   33.2740 O.2   107  TRP107     -0.2867
    118  CB        -5.6760   11.2280   32.9610 C.3   107  TRP107      0.0550
    119  CG        -4.6870   12.2050   33.4890 C.ar  107  TRP107      0.0003
    120  CD1       -3.8850   12.0580   34.5840 C.ar  107  TRP107      0.0946
    121  CD2       -4.4950   13.5410   33.0180 C.ar  107  TRP107      0.0152
    122  NE1       -3.1680   13.2140   34.8090 N.ar  107  TRP107     -0.2442
    123  CE2       -3.5170   14.1430   33.8570 C.ar  107  TRP107      0.0810
    124  CE3       -5.0490   14.2890   31.9630 C.ar  107  TRP107      0.0012
    125  CZ2       -3.0690   15.4740   33.6720 C.ar  107  TRP107      0.0191
    126  CZ3       -4.5810   15.6140   31.7570 C.ar  107  TRP107      0.0001
    127  CH2       -3.6050   16.1820   32.6120 C.ar  107  TRP107      0.0015
@<TRIPOS>BOND
     1    21    20    2
     2    20    19    1
     3    64    63    2
     4    63    62    1
     5    18    19    1
     6    61    62    1
     7    62    65    1
     8    19    22    1
     9    32    33    1
    10    35    34    2
    11    30    28   ar
    12    30    31   ar
    13    28    25   ar
    14    55    54    1
    15    55    56    2
    16    34    33    1
    17    33    36    1
    18    10    11    2
    19    10     9    1
    20    54    53    1
    21    54    57    1
    22    65    66    1
    23    22    23    1
    24    31    29   ar
    25    25    23   ar
    26    25    27   ar
    27    23    24   ar
    28    68    67    1
    29    68    69    1
    30    29    27   ar
    31    27    26   ar
    32     9     8    1
    33     9    12    1
    34    67    66    1
    35    24    26   ar
    36    57    59    1
    37    57    58    1
    38    58    60    1
    39    46    45    2
    40    40    39    2
    41    45    44    1
    42    37    38    1
    43    12    13    1
    44    39    38    1
    45    38    41    1
    46    13    14   ar
    47    13    15   ar
    48    14    16   ar
    49    44    43    1
    50    44    47    1
    51    41    42    1
    52    15    17   ar
    53    47    48    1
    54    16    17   ar
    55     3     4    2
    56     3     2    1
    57    96    95    1
    58     5     2    1
    59     5     7    1
    60     5     6    1
    61     2     1    1
    62    48    49   ar
    63    48    50   ar
    64    95    94   ar
    65    95    93   ar
    66    94    92   ar
    67    49    51   ar
    68    50    52   ar
    69    93    91   ar
    70    92    90   ar
    71    51    52   ar
    72    83    81   ar
    73    83    84   ar
    74    73    72    2
    75   126   124   ar
    76   126   127   ar
    77   124   121   ar
    78    91    90   ar
    79    81    79   ar
    80    90    89    1
    81    84    82   ar
    82   127   125   ar
    83   116   117    2
    84   116   115    1
    85   118   119    1
    86   118   115    1
    87    70    71    1
    88    72    71    1
    89    72    74   am
    90   121   119   ar
    91   121   123   ar
    92    79    78    1
    93    79    80   ar
    94    75    78    1
    95    75    74    1
    96    75    76    1
    97   119   120   ar
    98   115   114    1
    99    82    80   ar
   100    85    76   am
   101    85    86    1
   102   125   123   ar
   103    89    86    1
   104   123   122   ar
   105    76    77    2
   106    86    87    1
   107   120   122   ar
   108    87    88    2
   109    87    97   am
   110    97    98    1
   111   106   105    1
   112   105   102    1
   113   104   103    2
   114   101   102    1
   115   101    99   am
   116   102   103    1
   117   103   107   am
   118    98    99    1
   119    99   100    2
   120   109   110    2
   121   109   108    1
   122   107   108    1
   123   108   111    1
   124   111   113    1
   125   111   112    1
