@<TRIPOS>MOLECULE
tmp/3i9kB00.pdb
 184 181 0 0 0
SMALL
GASTEIGER

@<TRIPOS>ATOM
      1  N         14.2470    0.4120   32.3900 N.3    75  MET75      -0.1230
      2  CA        14.4490   -1.0110   32.2390 C.3    75  MET75       0.1702
      3  C         15.5160   -1.2960   31.1580 C.2    75  MET75       0.2592
      4  O         15.5770   -0.6690   30.0720 O.2    75  MET75      -0.2718
      5  CB        13.1560   -1.7130   31.8610 C.3    75  MET75       0.0401
      6  CG        13.4460   -3.0450   31.1220 C.3    75  MET75       0.0596
      7  SD        11.8820   -3.9030   30.7970 S.3    75  MET75      -0.1393
      8  CE        11.4780   -4.4630   32.4820 C.3    75  MET75       0.0692
      9  N         16.2770   -2.3250   31.4150 N.am   76  PHE76      -0.1962
     10  CA        17.2260   -2.8330   30.4180 C.3    76  PHE76       0.1771
     11  C         16.7700   -4.2670   30.1830 C.2    76  PHE76       0.2620
     12  O         16.0450   -4.8330   31.0090 O.2    76  PHE76      -0.2715
     13  CB        18.6390   -2.9150   30.9790 C.3    76  PHE76       0.0574
     14  CG        19.2960   -1.5460   31.2360 C.ar   76  PHE76      -0.0200
     15  CD1       20.0940   -0.9810   30.2490 C.ar   76  PHE76      -0.0042
     16  CD2       19.0400   -0.8720   32.4040 C.ar   76  PHE76      -0.0042
     17  CE1       20.6390    0.2900   30.4820 C.ar   76  PHE76      -0.0003
     18  CE2       19.6120    0.4120   32.6330 C.ar   76  PHE76      -0.0003
     19  CZ        20.3300    0.9550   31.6730 C.ar   76  PHE76      -0.0000
     20  N         17.2860   -4.8580   29.1140 N.am   77  TRP77      -0.1960
     21  CA        16.9230   -6.2510   28.8140 C.3    77  TRP77       0.1771
     22  C         18.0270   -6.9100   27.9980 C.2    77  TRP77       0.2620
     23  O         18.7660   -6.2320   27.2710 O.2    77  TRP77      -0.2715
     24  CB        15.5700   -6.3130   28.0780 C.3    77  TRP77       0.0590
     25  CG        15.5700   -5.4900   26.7760 C.ar   77  TRP77       0.0006
     26  CD1       15.2030   -4.1500   26.6300 C.ar   77  TRP77       0.0946
     27  CD2       16.0140   -5.9270   25.5240 C.ar   77  TRP77       0.0152
     28  NE1       15.4250   -3.7490   25.3300 N.ar   77  TRP77      -0.2442
     29  CE2       15.9020   -4.8200   24.6120 C.ar   77  TRP77       0.0810
     30  CE3       16.5250   -7.1420   25.0590 C.ar   77  TRP77       0.0012
     31  CZ2       16.2510   -4.9290   23.2320 C.ar   77  TRP77       0.0191
     32  CZ3       16.8970   -7.2390   23.6760 C.ar   77  TRP77       0.0001
     33  CH2       16.7690   -6.1450   22.8010 C.ar   77  TRP77       0.0015
     34  N         18.1640   -8.2320   28.1080 N.am   78  SER78      -0.1936
     35  CA        19.0490   -8.9270   27.2240 C.3    78  SER78       0.2055
     36  C         18.4060  -10.2660   26.8460 C.2    78  SER78       0.2643
     37  O         18.0650  -10.9990   27.7350 O.2    78  SER78      -0.2714
     38  CB        20.3850   -9.2660   27.8870 C.3    78  SER78       0.2130
     39  OG        21.0220   -8.1010   28.4040 O.3    78  SER78      -0.2179
     40  N         18.2480  -10.5810   25.5540 N.am   79  GLY79      -0.1954
     41  CA        17.7020  -11.9310   25.1680 C.3    79  GLY79       0.1869
     42  C         16.1880  -12.0780   25.1690 C.2    79  GLY79       0.2309
     43  O         15.6940  -13.1550   24.7850 O.2    79  GLY79      -0.2863
     44  N         13.5490   -9.5380   23.9340 N.3    81  TYR81      -0.1241
     45  CA        12.9350   -8.3360   23.3500 C.3    81  TYR81       0.1605
     46  C         11.4040   -8.3480   23.5550 C.2    81  TYR81       0.2264
     47  O         10.9060   -7.3730   24.1130 O.2    81  TYR81      -0.2867
     48  CB        13.2640   -8.2480   21.8400 C.3    81  TYR81       0.0534
     49  CG        12.8050   -6.9080   21.2980 C.ar   81  TYR81      -0.0201
     50  CD1       11.4670   -6.6880   21.0020 C.ar   81  TYR81      -0.0009
     51  CD2       13.7160   -5.8070   21.2040 C.ar   81  TYR81      -0.0009
     52  CE1       11.0230   -5.4260   20.5540 C.ar   81  TYR81       0.0417
     53  CE2       13.2730   -4.5590   20.7860 C.ar   81  TYR81       0.0417
     54  CZ        11.9490   -4.3640   20.4440 C.ar   81  TYR81       0.1957
     55  OH        11.4870   -3.0890   20.0170 O.3    81  TYR81      -0.2866
     56  N         15.0100    1.4180   26.3190 N.3    97  LEU97      -0.1231
     57  CA        15.7690    2.2830   25.3760 C.3    97  LEU97       0.1693
     58  C         14.9270    2.5840   24.1420 C.2    97  LEU97       0.2591
     59  O         15.0240    3.6840   23.5360 O.2    97  LEU97      -0.2718
     60  CB        17.1170    1.5640   25.0230 C.3    97  LEU97       0.0284
     61  CG        18.0290    2.3140   24.0750 C.3    97  LEU97       0.0019
     62  CD1       18.2890    3.6350   24.6810 C.3    97  LEU97       0.0001
     63  CD2       19.3630    1.5160   23.8580 C.3    97  LEU97       0.0001
     64  N         14.1410    1.6090   23.6790 N.am   98  GLU98      -0.1979
     65  CA        13.4910    1.7710   22.4190 C.3    98  GLU98       0.1602
     66  C         12.2770    2.7190   22.5220 C.2    98  GLU98       0.2287
     67  O         11.6870    3.0130   21.5560 O.2    98  GLU98      -0.2864
     68  CB        13.0150    0.4240   21.8960 C.3    98  GLU98       0.0415
     69  CG        14.2090   -0.5790   21.5970 C.3    98  GLU98       0.1163
     70  CD        15.0110   -1.0780   22.8270 C.2    98  GLU98       0.3649
     71  OE1       14.4480   -1.4210   23.9080 O.co2  98  GLU98      -0.2457
     72  OE2       16.2360   -1.1830   22.6760 O.co2  98  GLU98      -0.2457
     73  N         15.2550    2.1060   16.0790 N.3   107  ASN107     -0.1225
     74  CA        14.8870    0.7150   16.3120 C.3   107  ASN107      0.1785
     75  C         14.5770    0.0180   15.0120 C.2   107  ASN107      0.2597
     76  O         13.7700    0.5220   14.2040 O.2   107  ASN107     -0.2718
     77  CB        13.6640    0.5840   17.2280 C.3   107  ASN107      0.1169
     78  CG        13.5680   -0.7850   17.8280 C.2   107  ASN107      0.2627
     79  OD1       14.6050   -1.4530   17.9900 O.2   107  ASN107     -0.2716
     80  ND2       12.3990   -1.1700   18.2150 N.am  107  ASN107     -0.0877
     81  N         15.1810   -1.1760   14.8220 N.am  108  SER108     -0.1952
     82  CA        14.9200   -2.0470   13.6410 C.3   108  SER108      0.1924
     83  C         15.5810   -1.5240   12.3900 C.2   108  SER108      0.2314
     84  O         15.4600   -2.1610   11.3700 O.2   108  SER108     -0.2863
     85  CB        13.4230   -2.1200   13.2610 C.3   108  SER108      0.2116
     86  OG        12.6950   -2.6160   14.3670 O.3   108  SER108     -0.2180
     87  N         28.4150   -8.3080   12.7540 N.3   129  LYS129     -0.1245
     88  CA        29.3380   -9.2590   13.3390 C.3   129  LYS129      0.1561
     89  C         30.7060   -9.1310   12.6260 C.2   129  LYS129      0.2260
     90  O         31.7500   -9.4180   13.2200 O.2   129  LYS129     -0.2867
     91  CB        28.8220  -10.6740   13.1870 C.3   129  LYS129      0.0271
     92  CG        27.6350  -10.9770   14.0530 C.3   129  LYS129      0.0035
     93  CD        27.3560  -12.5050   13.9910 C.3   129  LYS129      0.0206
     94  CE        25.8740  -12.8410   14.2420 C.3   129  LYS129      0.1093
     95  NZ        25.5100  -14.1480   13.6260 N.3   129  LYS129     -0.1314
     96  N         31.0130   -2.2550   15.4540 N.3   136  ARG136     -0.1245
     97  CA        29.7700   -2.9600   15.5240 C.3   136  ARG136      0.1563
     98  C         28.9100   -2.4240   16.7150 C.2   136  ARG136      0.2260
     99  O         27.6900   -2.3450   16.6720 O.2   136  ARG136     -0.2867
    100  CB        30.2300   -4.4150   15.6920 C.3   136  ARG136      0.0307
    101  CG        29.2390   -5.4220   16.0130 C.3   136  ARG136      0.0489
    102  CD        29.9170   -6.6370   16.7710 C.3   136  ARG136      0.2205
    103  NE        31.1640   -7.0470   16.1990 N.pl3 136  ARG136     -0.0865
    104  CZ        32.1380   -7.6960   16.8520 C.cat 136  ARG136      0.5346
    105  NH1       32.0070   -7.9850   18.1320 N.pl3 136  ARG136      0.1354
    106  NH2       33.2740   -8.0260   16.2100 N.pl3 136  ARG136      0.1354
    107  N         24.5730    1.2650   19.2790 N.3   140  TRP140     -0.1241
    108  CA        23.7460    0.8270   20.4380 C.3   140  TRP140      0.1605
    109  C         24.5380    0.8210   21.7260 C.2   140  TRP140      0.2264
    110  O         23.9600    0.8970   22.8060 O.2   140  TRP140     -0.2867
    111  CB        23.0650   -0.5230   20.1730 C.3   140  TRP140      0.0550
    112  CG        22.0110   -0.3590   19.1080 C.ar  140  TRP140      0.0003
    113  CD1       22.1010   -0.7310   17.7810 C.ar  140  TRP140      0.0946
    114  CD2       20.7140    0.2950   19.2480 C.ar  140  TRP140      0.0152
    115  NE1       20.9450   -0.3910   17.1230 N.ar  140  TRP140     -0.2442
    116  CE2       20.0790    0.2370   17.9820 C.ar  140  TRP140      0.0810
    117  CE3       20.0270    0.8940   20.3210 C.ar  140  TRP140      0.0012
    118  CZ2       18.7820    0.7690   17.7530 C.ar  140  TRP140      0.0191
    119  CZ3       18.7680    1.4040   20.1010 C.ar  140  TRP140      0.0001
    120  CH2       18.1270    1.3130   18.8390 C.ar  140  TRP140      0.0015
    121  N         23.1770    2.8580   24.8290 N.3   144  SER144     -0.1217
    122  CA        23.1150    2.2180   26.1360 C.3   144  SER144      0.1889
    123  C         23.8560    2.9350   27.2260 C.2   144  SER144      0.2288
    124  O         23.3340    2.9890   28.3180 O.2   144  SER144     -0.2866
    125  CB        23.7360    0.7540   26.0360 C.3   144  SER144      0.2089
    126  OG        22.7650   -0.0480   25.3920 O.3   144  SER144     -0.2183
    127  N         21.8840    6.2430   28.0370 N.3   147  TYR147     -0.1241
    128  CA        20.6640    5.9300   28.6940 C.3   147  TYR147      0.1605
    129  C         20.9470    5.5090   30.1530 C.2   147  TYR147      0.2264
    130  O         20.3530    6.0190   31.0800 O.2   147  TYR147     -0.2867
    131  CB        20.0540    4.7450   27.9340 C.3   147  TYR147      0.0534
    132  CG        18.8020    4.0820   28.4300 C.ar  147  TYR147     -0.0201
    133  CD1       17.5400    4.7310   28.3210 C.ar  147  TYR147     -0.0009
    134  CD2       18.8600    2.7420   28.8940 C.ar  147  TYR147     -0.0009
    135  CE1       16.3500    4.0930   28.7450 C.ar  147  TYR147      0.0417
    136  CE2       17.6690    2.1010   29.3090 C.ar  147  TYR147      0.0417
    137  CZ        16.4110    2.7700   29.1600 C.ar  147  TYR147      0.1957
    138  OH        15.2060    2.1730   29.5500 O.3   147  TYR147     -0.2866
    139  N         23.4540  -19.0440   25.9210 N.3   166  VAL166     -0.1245
    140  CA        23.7550  -17.6790   26.2800 C.3   166  VAL166      0.1561
    141  C         23.3250  -17.4250   27.7450 C.2   166  VAL166      0.2260
    142  O         22.1160  -17.3640   28.0620 O.2   166  VAL166     -0.2867
    143  CB        22.9930  -16.6980   25.3670 C.3   166  VAL166      0.0252
    144  CG1       23.3060  -15.2140   25.6860 C.3   166  VAL166      0.0019
    145  CG2       23.2810  -17.0240   23.8570 C.3   166  VAL166      0.0019
    146  N         25.8590  -11.5840   30.8330 N.3   170  ARG170     -0.1245
    147  CA        27.2830  -11.6630   30.4380 C.3   170  ARG170      0.1563
    148  C         27.9660  -10.3130   30.3780 C.2   170  ARG170      0.2260
    149  O         27.3670   -9.3170   29.9670 O.2   170  ARG170     -0.2867
    150  CB        27.5000  -12.4130   29.1290 C.3   170  ARG170      0.0307
    151  CG        26.5480  -12.0350   28.1500 C.3   170  ARG170      0.0489
    152  CD        26.3270  -13.1480   27.0460 C.3   170  ARG170      0.2205
    153  NE        25.2990  -12.5300   26.2460 N.pl3 170  ARG170     -0.0865
    154  CZ        25.4700  -11.7260   25.1890 C.cat 170  ARG170      0.5346
    155  NH1       26.6510  -11.5020   24.6840 N.pl3 170  ARG170      0.1354
    156  NH2       24.4150  -11.1260   24.6670 N.pl3 170  ARG170      0.1354
    157  N         27.6390   -8.3770   26.9200 N.3   173  SER173     -0.1202
    158  CA        26.3650   -7.9670   26.2690 C.3   173  SER173      0.2020
    159  C         26.3570   -6.4420   26.2670 C.2   173  SER173      0.2619
    160  O         27.2070   -5.8050   26.9840 O.2   173  SER173     -0.2717
    161  CB        25.1130   -8.4230   27.0640 C.3   173  SER173      0.2103
    162  OG        25.1870   -7.9430   28.4260 O.3   173  SER173     -0.2182
    163  N         25.4140   -5.8280   25.5720 N.am  174  PHE174     -0.1961
    164  CA        25.3380   -4.3180   25.6520 C.3   174  PHE174      0.1771
    165  C         25.0580   -3.8920   27.1010 C.2   174  PHE174      0.2619
    166  O         25.5860   -2.8790   27.5780 O.2   174  PHE174     -0.2715
    167  CB        24.3000   -3.7210   24.6730 C.3   174  PHE174      0.0574
    168  CG        24.7490   -3.7280   23.2200 C.ar  174  PHE174     -0.0200
    169  CD1       24.3960   -4.7820   22.3730 C.ar  174  PHE174     -0.0042
    170  CD2       25.4460   -2.6990   22.7200 C.ar  174  PHE174     -0.0042
    171  CE1       24.7960   -4.8230   21.0140 C.ar  174  PHE174     -0.0003
    172  CE2       25.8500   -2.6910   21.3680 C.ar  174  PHE174     -0.0003
    173  CZ        25.5360   -3.7420   20.4910 C.ar  174  PHE174     -0.0000
    174  N         24.2420   -4.6380   27.8370 N.am  175  PHE175     -0.1974
    175  CA        24.0130   -4.2200   29.2430 C.3   175  PHE175      0.1639
    176  C         25.3270   -4.3590   30.1090 C.2   175  PHE175      0.2290
    177  O         25.7190   -3.5200   30.9790 O.2   175  PHE175     -0.2864
    178  CB        22.9240   -5.1120   29.9060 C.3   175  PHE175      0.0560
    179  CG        22.6950   -4.7200   31.3700 C.ar  175  PHE175     -0.0200
    180  CD1       22.1220   -3.5140   31.6550 C.ar  175  PHE175     -0.0042
    181  CD2       23.1760   -5.5180   32.4420 C.ar  175  PHE175     -0.0042
    182  CE1       21.9640   -3.0800   32.9850 C.ar  175  PHE175     -0.0003
    183  CE2       22.9690   -5.1180   33.7840 C.ar  175  PHE175     -0.0003
    184  CZ        22.3520   -3.8900   34.0480 C.ar  175  PHE175     -0.0000
@<TRIPOS>BOND
     1    84    83    2
     2    83    82    1
     3    89    90    2
     4    89    88    1
     5    87    88    1
     6    91    88    1
     7    91    92    1
     8    85    82    1
     9    85    86    1
    10    95    94    1
    11    82    81    1
    12    93    92    1
    13    93    94    1
    14    76    75    2
    15    81    75   am
    16    75    74    1
    17    96    97    1
    18    97   100    1
    19    97    98    1
    20   100   101    1
    21   101   102    1
    22    73    74    1
    23   103   102    1
    24   103   104    2
    25   106   104    1
    26    74    77    1
    27    99    98    2
    28   104   105    1
    29   115   113   ar
    30   115   116   ar
    31    77    78    1
    32   118   116   ar
    33   118   120   ar
    34   113   112   ar
    35    78    79    2
    36    78    80   am
    37   116   114   ar
    38   120   119   ar
    39   112   114   ar
    40   112   111    1
    41   114   117   ar
    42   107   108    1
    43    55    54    1
    44   119   117   ar
    45   111   108    1
    46   108   109    1
    47    54    52   ar
    48    54    53   ar
    49   173   171   ar
    50   173   172   ar
    51    52    50   ar
    52    53    51   ar
    53    50    49   ar
    54   171   169   ar
    55    51    49   ar
    56    49    48    1
    57   172   170   ar
    58    67    66    2
    59    69    68    1
    60    69    70    1
    61   109   110    2
    62    48    45    1
    63    68    65    1
    64   169   168   ar
    65    65    66    1
    66    65    64    1
    67    72    70   ar
    68   170   168   ar
    69    33    31   ar
    70    33    32   ar
    71    70    71   ar
    72   168   167    1
    73    31    29   ar
    74    45    46    1
    75    45    44    1
    76    59    58    2
    77    46    47    2
    78    32    30   ar
    79    64    58   am
    80   145   143    1
    81    63    61    1
    82    61    62    1
    83    61    60    1
    84    58    57    1
    85    29    28   ar
    86    29    27   ar
    87   156   154    1
    88   167   164    1
    89   155   154    1
    90    43    42    2
    91   121   122    1
    92    60    57    1
    93    30    27   ar
    94    41    42    1
    95    41    40    1
    96   154   153    2
    97    28    26   ar
    98   143   144    1
    99   143   140    1
   100    57    56    1
   101   126   125    1
   102    27    25   ar
   103    40    36   am
   104   163   164    1
   105   163   159   am
   106   164   165    1
   107   139   140    1
   108   125   122    1
   109   122   123    1
   110   153   152    1
   111   159   158    1
   112   159   160    2
   113   158   157    1
   114   158   161    1
   115   140   141    1
   116    26    25   ar
   117    25    24    1
   118    36    35    1
   119    36    37    2
   120   152   151    1
   121   161   162    1
   122   165   166    2
   123   165   174   am
   124    35    38    1
   125    35    34    1
   126   123   124    2
   127    23    22    2
   128   141   142    2
   129   174   175    1
   130    38    39    1
   131   131   132    1
   132   131   128    1
   133    22    34   am
   134    22    21    1
   135   127   128    1
   136    24    21    1
   137   151   150    1
   138   133   132   ar
   139   133   135   ar
   140   132   134   ar
   141   128   129    1
   142   135   137   ar
   143    21    20    1
   144   134   136   ar
   145    20    11   am
   146   150   147    1
   147   137   136   ar
   148   137   138    1
   149   175   178    1
   150   175   176    1
   151   178   179    1
   152   149   148    2
   153     4     3    2
   154   176   177    2
   155   129   130    2
   156    11    10    1
   157    11    12    2
   158    15    17   ar
   159    15    14   ar
   160   148   147    1
   161    10    13    1
   162    10     9    1
   163   147   146    1
   164    17    19   ar
   165     7     6    1
   166     7     8    1
   167    13    14    1
   168     6     5    1
   169     3     9   am
   170     3     2    1
   171    14    16   ar
   172   179   180   ar
   173   179   181   ar
   174   180   182   ar
   175    19    18   ar
   176     5     2    1
   177     2     1    1
   178    16    18   ar
   179   181   183   ar
   180   182   184   ar
   181   183   184   ar
