@<TRIPOS>MOLECULE
tmp/3i9uA01.pdb
 137 130 0 0 0
SMALL
GASTEIGER

@<TRIPOS>ATOM
      1  N          3.5060  -27.4800 -162.9740 N.3    15  HIS15      -0.1241
      2  CA         2.9030  -27.7330 -164.3060 C.3    15  HIS15       0.1621
      3  C          4.0130  -27.7180 -165.3920 C.2    15  HIS15       0.2264
      4  O          4.1020  -28.6070 -166.2650 O.2    15  HIS15      -0.2867
      5  CB         1.8380  -26.6970 -164.6300 C.3    15  HIS15       0.0745
      6  CG         1.1190  -26.9940 -165.8990 C.ar   15  HIS15       0.0817
      7  ND1        1.7450  -26.9680 -167.1340 N.ar   15  HIS15      -0.2268
      8  CD2       -0.1440  -27.4240 -166.1220 C.ar   15  HIS15       0.1154
      9  CE1        0.8870  -27.3350 -168.0650 C.ar   15  HIS15       0.1986
     10  NE2       -0.2660  -27.6090 -167.4770 N.ar   15  HIS15      -0.2212
     11  N          5.4420  -36.9010 -171.5430 N.3    24  MET24      -0.1245
     12  CA         4.6520  -35.7960 -172.1200 C.3    24  MET24       0.1570
     13  C          5.3480  -35.0620 -173.2620 C.2    24  MET24       0.2261
     14  O          4.6790  -34.6300 -174.2150 O.2    24  MET24      -0.2867
     15  CB         4.1600  -34.8440 -171.0370 C.3    24  MET24       0.0387
     16  CG         3.1510  -35.4650 -170.1060 C.3    24  MET24       0.0595
     17  SD         1.6090  -35.8090 -171.0410 S.3    24  MET24      -0.1393
     18  CE         1.0400  -37.1950 -170.1550 C.3    24  MET24       0.0692
     19  N          4.7550  -37.3550 -176.1220 N.3    27  PHE27      -0.1241
     20  CA         3.3430  -37.2150 -176.5010 C.3    27  PHE27       0.1605
     21  C          3.1270  -35.9610 -177.3860 C.2    27  PHE27       0.2264
     22  O          2.5420  -36.0370 -178.4750 O.2    27  PHE27      -0.2867
     23  CB         2.4530  -37.1610 -175.2370 C.3    27  PHE27       0.0534
     24  CG         0.9740  -37.3930 -175.4850 C.ar   27  PHE27      -0.0203
     25  CD1        0.2320  -38.1620 -174.6140 C.ar   27  PHE27      -0.0042
     26  CD2        0.3110  -36.8170 -176.5460 C.ar   27  PHE27      -0.0042
     27  CE1       -1.1670  -38.3530 -174.8210 C.ar   27  PHE27      -0.0003
     28  CE2       -1.0480  -37.0210 -176.7630 C.ar   27  PHE27      -0.0003
     29  CZ        -1.7800  -37.7730 -175.9010 C.ar   27  PHE27      -0.0000
     30  N         -1.3340  -45.2520 -170.5090 N.3    40  VAL40      -0.1245
     31  CA        -1.7360  -44.0560 -169.8010 C.3    40  VAL40       0.1561
     32  C         -3.2600  -43.9880 -169.6340 C.2    40  VAL40       0.2260
     33  O         -3.7690  -43.6540 -168.5330 O.2    40  VAL40      -0.2867
     34  CB        -1.0980  -42.7500 -170.3840 C.3    40  VAL40       0.0252
     35  CG1       -1.7170  -42.3710 -171.6490 C.3    40  VAL40       0.0019
     36  CG2       -1.3100  -41.6290 -169.3840 C.3    40  VAL40       0.0019
     37  N         -5.4550  -43.8800 -166.2170 N.3    44  LEU44      -0.1245
     38  CA        -6.4930  -42.8370 -165.9360 C.3    44  LEU44       0.1561
     39  C         -7.8270  -43.4660 -165.5650 C.2    44  LEU44       0.2260
     40  O         -8.5490  -42.9570 -164.6840 O.2    44  LEU44      -0.2867
     41  CB        -6.6330  -41.8060 -167.0400 C.3    44  LEU44       0.0270
     42  CG        -5.3520  -41.0530 -167.3390 C.3    44  LEU44       0.0019
     43  CD1       -5.5360  -39.9740 -168.4850 C.3    44  LEU44       0.0001
     44  CD2       -4.8380  -40.3720 -166.0810 C.3    44  LEU44       0.0001
     45  N         -6.9080  -30.5050 -160.1680 N.3   125  THR125     -0.1203
     46  CA        -5.7100  -30.9400 -160.9330 C.3   125  THR125      0.1994
     47  C         -6.0670  -31.7370 -162.2090 C.2   125  THR125      0.2617
     48  O         -5.4790  -31.5200 -163.2720 O.2   125  THR125     -0.2717
     49  CB        -4.7410  -31.7200 -160.0060 C.3   125  THR125      0.1784
     50  OG1       -4.2510  -30.8260 -158.9800 O.3   125  THR125     -0.2211
     51  CG2       -3.5060  -32.4420 -160.7880 C.3   125  THR125      0.0376
     52  N         -7.0240  -32.6570 -162.0950 N.am  126  ARG126     -0.1979
     53  CA        -7.4490  -33.5040 -163.1990 C.3   126  ARG126      0.1597
     54  C         -8.4090  -32.7270 -164.1270 C.2   126  ARG126      0.2287
     55  O         -8.0850  -32.4840 -165.2700 O.2   126  ARG126     -0.2864
     56  CB        -8.0890  -34.8170 -162.6850 C.3   126  ARG126      0.0334
     57  CG        -7.0510  -35.9110 -162.2050 C.3   126  ARG126      0.0492
     58  CD        -5.8200  -36.1770 -163.1870 C.3   126  ARG126      0.2205
     59  NE        -6.2150  -36.0760 -164.5940 N.pl3 126  ARG126     -0.0865
     60  CZ        -5.4230  -36.2540 -165.6580 C.cat 126  ARG126      0.5346
     61  NH1       -4.1460  -36.5660 -165.4800 N.pl3 126  ARG126      0.1354
     62  NH2       -5.9130  -36.1100 -166.9300 N.pl3 126  ARG126      0.1354
     63  N         -7.3580  -29.3940 -166.1390 N.3   129  GLY129     -0.1210
     64  CA        -6.4310  -29.5900 -167.2140 C.3   129  GLY129      0.1956
     65  C         -7.1780  -30.2990 -168.3220 C.2   129  GLY129      0.2611
     66  O         -6.9720  -30.0100 -169.5350 O.2   129  GLY129     -0.2717
     67  N         -8.0200  -31.2620 -167.9650 N.am  130  ASP130     -0.1973
     68  CA        -8.8000  -31.9530 -168.9930 C.3   130  ASP130      0.1709
     69  C         -9.5120  -30.9360 -169.9060 C.2   130  ASP130      0.2293
     70  O         -9.6020  -31.1470 -171.1260 O.2   130  ASP130     -0.2864
     71  CB        -9.8480  -32.8480 -168.3520 C.3   130  ASP130      0.1436
     72  CG        -9.2570  -34.0570 -167.6820 C.2   130  ASP130      0.3671
     73  OD1       -8.1660  -34.4990 -168.0750 O.co2 130  ASP130     -0.2456
     74  OD2       -9.9110  -34.6090 -166.7710 O.co2 130  ASP130     -0.2456
     75  N         -8.4920  -27.9570 -170.5860 N.3   132  SER132     -0.1202
     76  CA        -7.4880  -27.0200 -171.1240 C.3   132  SER132      0.2020
     77  C         -6.5400  -27.6980 -172.1170 C.2   132  SER132      0.2619
     78  O         -6.9000  -28.0000 -173.2720 O.2   132  SER132     -0.2717
     79  CB        -6.6300  -26.5740 -169.9720 C.3   132  SER132      0.2103
     80  OG        -7.4100  -25.8120 -169.1590 O.3   132  SER132     -0.2182
     81  N         -5.3460  -27.9570 -171.6150 N.am  133  GLY133     -0.1942
     82  CA        -4.3450  -28.7020 -172.3510 C.3   133  GLY133      0.2014
     83  C         -4.7530  -30.0880 -172.8030 C.2   133  GLY133      0.2639
     84  O         -4.2770  -30.5620 -173.8280 O.2   133  GLY133     -0.2714
     85  N         -5.6620  -30.7350 -172.0590 N.am  134  GLY134     -0.1954
     86  CA        -6.1830  -32.0430 -172.4830 C.3   134  GLY134      0.1869
     87  C         -6.8320  -31.9620 -173.8720 C.2   134  GLY134      0.2309
     88  O         -6.7970  -32.9600 -174.6360 O.2   134  GLY134     -0.2863
     89  N         -3.8350  -32.1490 -176.2960 N.3   137  LEU137     -0.1245
     90  CA        -3.3070  -33.5080 -176.4300 C.3   137  LEU137      0.1561
     91  C         -4.2380  -34.4080 -177.2450 C.2   137  LEU137      0.2260
     92  O         -3.7720  -35.2650 -177.9750 O.2   137  LEU137     -0.2867
     93  CB        -3.0310  -34.1540 -175.0620 C.3   137  LEU137      0.0270
     94  CG        -1.9780  -33.4320 -174.1920 C.3   137  LEU137      0.0019
     95  CD1       -1.9610  -34.1040 -172.8520 C.3   137  LEU137      0.0001
     96  CD2       -0.6190  -33.5520 -174.8380 C.3   137  LEU137      0.0001
     97  N        -12.7160  -40.0470 -173.4050 N.3   156  PHE156     -0.1227
     98  CA       -12.1540  -39.3710 -172.2710 C.3   156  PHE156      0.1736
     99  C        -11.9740  -37.8870 -172.4910 C.2   156  PHE156      0.2595
    100  O        -12.2400  -37.0920 -171.5930 O.2   156  PHE156     -0.2718
    101  CB       -10.8060  -39.9920 -171.8360 C.3   156  PHE156      0.0547
    102  CG       -10.0850  -39.1660 -170.7790 C.ar  156  PHE156     -0.0202
    103  CD1      -10.4920  -39.2360 -169.4610 C.ar  156  PHE156     -0.0042
    104  CD2       -9.0240  -38.2980 -171.1130 C.ar  156  PHE156     -0.0042
    105  CE1       -9.8700  -38.4790 -168.4420 C.ar  156  PHE156     -0.0003
    106  CE2       -8.3610  -37.5190 -170.1160 C.ar  156  PHE156     -0.0003
    107  CZ        -8.7800  -37.6140 -168.7610 C.ar  156  PHE156     -0.0000
    108  N        -11.5880  -37.5200 -173.7040 N.am  157  PHE157     -0.1976
    109  CA       -11.2120  -36.1760 -174.0380 C.3   157  PHE157      0.1639
    110  C        -12.3990  -35.3490 -174.5720 C.2   157  PHE157      0.2290
    111  O        -12.2210  -34.2200 -174.9920 O.2   157  PHE157     -0.2864
    112  CB       -10.1100  -36.2110 -175.1060 C.3   157  PHE157      0.0560
    113  CG        -8.7860  -36.7440 -174.5990 C.ar  157  PHE157     -0.0200
    114  CD1       -7.8700  -35.8740 -174.0020 C.ar  157  PHE157     -0.0042
    115  CD2       -8.4980  -38.1150 -174.7090 C.ar  157  PHE157     -0.0042
    116  CE1       -6.6260  -36.3400 -173.5140 C.ar  157  PHE157     -0.0003
    117  CE2       -7.2780  -38.6510 -174.1900 C.ar  157  PHE157     -0.0003
    118  CZ        -6.3230  -37.7720 -173.5980 C.ar  157  PHE157     -0.0000
    119  N          1.0360  -37.4070 -160.7550 N.3   200  ASN200     -0.1240
    120  CA         0.9370  -37.5300 -162.2090 C.3   200  ASN200      0.1653
    121  C          2.3390  -37.6250 -162.7970 C.2   200  ASN200      0.2266
    122  O          2.5910  -38.4720 -163.6570 O.2   200  ASN200     -0.2867
    123  CB         0.2040  -36.3090 -162.7980 C.3   200  ASN200      0.1155
    124  CG        -1.3190  -36.4480 -162.6980 C.2   200  ASN200      0.2627
    125  OD1       -1.9220  -37.1850 -163.4790 O.2   200  ASN200     -0.2716
    126  ND2       -1.9210  -35.8210 -161.6780 N.am  200  ASN200     -0.0877
    127  N          3.9000  -40.6800 -165.1020 N.3   204  PHE204     -0.1241
    128  CA         4.5950  -40.5070 -166.3890 C.3   204  PHE204      0.1605
    129  C          5.9940  -41.1050 -166.3990 C.2   204  PHE204      0.2264
    130  O          6.3580  -41.7530 -167.3820 O.2   204  PHE204     -0.2867
    131  CB         4.7100  -39.0170 -166.7810 C.3   204  PHE204      0.0534
    132  CG         3.3710  -38.3160 -166.8560 C.ar  204  PHE204     -0.0203
    133  CD1        2.2170  -39.0450 -167.2230 C.ar  204  PHE204     -0.0042
    134  CD2        3.2630  -36.9430 -166.5810 C.ar  204  PHE204     -0.0042
    135  CE1        0.9440  -38.4430 -167.2740 C.ar  204  PHE204     -0.0003
    136  CE2        2.0010  -36.3210 -166.6350 C.ar  204  PHE204     -0.0003
    137  CZ         0.8340  -37.0860 -166.9810 C.ar  204  PHE204     -0.0000
@<TRIPOS>BOND
     1    22    21    2
     2    92    91    2
     3    21    20    1
     4    91    90    1
     5    28    26   ar
     6    28    29   ar
     7    26    24   ar
     8    20    19    1
     9    20    23    1
    10    90    89    1
    11    90    93    1
    12    29    27   ar
    13    24    23    1
    14    24    25   ar
    15   112   113    1
    16   112   109    1
    17    93    94    1
    18   111   110    2
    19    96    94    1
    20    27    25   ar
    21   115   113   ar
    22   115   117   ar
    23    88    87    2
    24   113   114   ar
    25   110   109    1
    26    14    13    2
    27    94    95    1
    28   117   118   ar
    29   109   108    1
    30   114   116   ar
    31    87    86    1
    32    84    83    2
    33   108    99   am
    34   118   116   ar
    35    97    98    1
    36    78    77    2
    37    13    12    1
    38    83    82    1
    39    83    85   am
    40    99    98    1
    41    99   100    2
    42    86    85    1
    43    82    81    1
    44    98   101    1
    45    12    11    1
    46    12    15    1
    47    77    81   am
    48    77    76    1
    49   101   102    1
    50    35    34    1
    51    70    69    2
    52    76    75    1
    53    76    79    1
    54   104   102   ar
    55   104   106   ar
    56    17    18    1
    57    17    16    1
    58    15    16    1
    59   102   103   ar
    60    30    31    1
    61    34    31    1
    62    34    36    1
    63   106   107   ar
    64    79    80    1
    65    69    68    1
    66    31    32    1
    67    32    33    2
    68    66    65    2
    69   103   105   ar
    70    68    71    1
    71    68    67    1
    72   107   105   ar
    73    43    42    1
    74    71    72    1
    75    65    67   am
    76    65    64    1
    77    73    72   ar
    78     9    10   ar
    79     9     7   ar
    80    72    74   ar
    81    10     8   ar
    82   130   129    2
    83    42    41    1
    84    42    44    1
    85   135   133   ar
    86   135   137   ar
    87   133   132   ar
    88    64    63    1
    89     7     6   ar
    90    41    38    1
    91   137   136   ar
    92    62    60    1
    93   132   131    1
    94   132   134   ar
    95   131   128    1
    96   136   134   ar
    97   129   128    1
    98   128   127    1
    99     4     3    2
   100    37    38    1
   101     8     6   ar
   102    38    39    1
   103     6     5    1
   104    60    61    1
   105    60    59    2
   106    39    40    2
   107     3     2    1
   108    55    54    2
   109     5     2    1
   110    59    58    1
   111     2     1    1
   112    54    53    1
   113   122   121    2
   114   125   124    2
   115    48    47    2
   116    53    56    1
   117    53    52    1
   118    58    57    1
   119   123   124    1
   120   123   120    1
   121   121   120    1
   122   124   126   am
   123    56    57    1
   124   120   119    1
   125    47    52   am
   126    47    46    1
   127    46    45    1
   128    46    49    1
   129    51    49    1
   130    49    50    1
