@<TRIPOS>MOLECULE
tmp/3ia2C00.pdb
 126 125 0 0 0
SMALL
GASTEIGER

@<TRIPOS>ATOM
      1  N        -45.8900  134.7820    3.2120 N.3    28  TRP28      -0.1241
      2  CA       -45.7060  133.3470    3.4110 C.3    28  TRP28       0.1605
      3  C        -46.8940  132.7200    4.1410 C.2    28  TRP28       0.2264
      4  O        -47.4130  133.2900    5.0980 O.2    28  TRP28      -0.2867
      5  CB       -44.4280  133.1410    4.2300 C.3    28  TRP28       0.0550
      6  CG       -43.9190  131.7360    4.3820 C.ar   28  TRP28       0.0003
      7  CD1      -43.7410  130.8040    3.3970 C.ar   28  TRP28       0.0946
      8  CD2      -43.4550  131.1310    5.5960 C.ar   28  TRP28       0.0152
      9  NE1      -43.2170  129.6480    3.9320 N.ar   28  TRP28      -0.2442
     10  CE2      -43.0280  129.8260    5.2780 C.ar   28  TRP28       0.0810
     11  CE3      -43.3650  131.5670    6.9250 C.ar   28  TRP28       0.0012
     12  CZ2      -42.5220  128.9510    6.2390 C.ar   28  TRP28       0.0191
     13  CZ3      -42.8620  130.6980    7.8780 C.ar   28  TRP28       0.0001
     14  CH2      -42.4500  129.4020    7.5310 C.ar   28  TRP28       0.0015
     15  N        -46.7190  142.1890    0.6940 N.3    93  PHE93      -0.1227
     16  CA       -46.5330  142.0070    2.1300 C.3    93  PHE93       0.1736
     17  C        -45.5130  140.9060    2.4190 C.2    93  PHE93       0.2596
     18  O        -45.5420  139.8470    1.7930 O.2    93  PHE93      -0.2718
     19  CB       -47.8650  141.6780    2.8180 C.3    93  PHE93       0.0547
     20  CG       -47.7130  141.2710    4.2550 C.ar   93  PHE93      -0.0202
     21  CD1      -47.4400  142.2150    5.2290 C.ar   93  PHE93      -0.0042
     22  CD2      -47.8320  139.9380    4.6290 C.ar   93  PHE93      -0.0042
     23  CE1      -47.2900  141.8410    6.5540 C.ar   93  PHE93      -0.0003
     24  CE2      -47.6840  139.5550    5.9510 C.ar   93  PHE93      -0.0003
     25  CZ       -47.4110  140.5070    6.9160 C.ar   93  PHE93      -0.0000
     26  N        -44.6180  141.1620    3.3730 N.am   94  SER94      -0.1938
     27  CA       -43.6260  140.1680    3.8100 C.3    94  SER94       0.2055
     28  C        -42.8110  139.6170    2.6290 C.2    94  SER94       0.2642
     29  O        -42.1430  140.3820    1.9350 O.2    94  SER94      -0.2714
     30  CB       -44.3090  139.0520    4.6120 C.3    94  SER94       0.2130
     31  OG       -43.3800  138.1290    5.1680 O.3    94  SER94      -0.2179
     32  N        -42.8560  138.3070    2.3880 N.am   95  MET95      -0.1976
     33  CA       -42.0910  137.7480    1.2650 C.3    95  MET95       0.1605
     34  C        -42.6330  138.2300   -0.0830 C.2    95  MET95       0.2287
     35  O        -41.9410  138.1620   -1.1030 O.2    95  MET95      -0.2864
     36  CB       -42.0250  136.2140    1.3120 C.3    95  MET95       0.0413
     37  CG       -43.3150  135.4990    0.9240 C.3    95  MET95       0.0598
     38  SD       -43.0660  133.7460    0.5470 S.3    95  MET95      -0.1393
     39  CE       -42.2850  133.8540   -1.0640 C.3    95  MET95       0.0692
     40  N        -39.5440  141.7650    3.2440 N.3   121  VAL121     -0.1245
     41  CA       -38.2100  141.2070    3.4580 C.3   121  VAL121      0.1561
     42  C        -37.1240  141.9910    2.7170 C.2   121  VAL121      0.2260
     43  O        -35.9300  141.7550    2.9180 O.2   121  VAL121     -0.2867
     44  CB       -38.1390  139.7360    3.0080 C.3   121  VAL121      0.0252
     45  CG1      -39.0860  138.8780    3.8310 C.3   121  VAL121      0.0019
     46  CG2      -38.4490  139.6120    1.5150 C.3   121  VAL121      0.0019
     47  N        -33.0930  139.7210    3.8330 N.3   125  PHE125     -0.1241
     48  CA       -33.6000  139.1960    5.0950 C.3   125  PHE125      0.1605
     49  C        -32.5040  138.4710    5.8760 C.2   125  PHE125      0.2264
     50  O        -32.1650  138.8680    6.9900 O.2   125  PHE125     -0.2867
     51  CB       -34.7750  138.2570    4.7760 C.3   125  PHE125      0.0534
     52  CG       -35.6460  137.9060    5.9540 C.ar  125  PHE125     -0.0203
     53  CD1      -36.6120  136.9170    5.8240 C.ar  125  PHE125     -0.0042
     54  CD2      -35.5060  138.5430    7.1760 C.ar  125  PHE125     -0.0042
     55  CE1      -37.4280  136.5720    6.8850 C.ar  125  PHE125     -0.0003
     56  CE2      -36.3180  138.2000    8.2460 C.ar  125  PHE125     -0.0003
     57  CZ       -37.2820  137.2130    8.0980 C.ar  125  PHE125     -0.0000
     58  N        -36.6000  126.6200   11.0920 N.3   143  PHE143     -0.1241
     59  CA       -37.9410  126.7040   10.5140 C.3   143  PHE143      0.1605
     60  C        -38.2020  125.4460    9.6960 C.2   143  PHE143      0.2264
     61  O        -39.2080  124.7580    9.8910 O.2   143  PHE143     -0.2867
     62  CB       -38.0720  127.9220    9.5920 C.3   143  PHE143      0.0534
     63  CG       -38.3610  129.2160   10.3080 C.ar  143  PHE143     -0.0203
     64  CD1      -38.1830  129.3310   11.6760 C.ar  143  PHE143     -0.0042
     65  CD2      -38.7780  130.3310    9.5960 C.ar  143  PHE143     -0.0042
     66  CE1      -38.4400  130.5310   12.3270 C.ar  143  PHE143     -0.0003
     67  CE2      -39.0330  131.5310   10.2410 C.ar  143  PHE143     -0.0003
     68  CZ       -38.8650  131.6290   11.6090 C.ar  143  PHE143     -0.0000
     69  N        -47.0900  129.8990   15.0890 N.3   158  PHE158     -0.1241
     70  CA       -46.6210  131.1090   14.4130 C.3   158  PHE158      0.1605
     71  C        -47.5790  132.2860   14.6260 C.2   158  PHE158      0.2264
     72  O        -47.1700  133.4470   14.5810 O.2   158  PHE158     -0.2867
     73  CB       -46.4540  130.8170   12.9170 C.3   158  PHE158      0.0534
     74  CG       -45.5330  131.7630   12.1970 C.ar  158  PHE158     -0.0203
     75  CD1      -46.0210  132.6030   11.2090 C.ar  158  PHE158     -0.0042
     76  CD2      -44.1760  131.7850   12.4790 C.ar  158  PHE158     -0.0042
     77  CE1      -45.1770  133.4680   10.5300 C.ar  158  PHE158     -0.0003
     78  CE2      -43.3260  132.6470   11.8040 C.ar  158  PHE158     -0.0003
     79  CZ       -43.8310  133.4860   10.8270 C.ar  158  PHE158     -0.0000
     80  N        -46.5650  136.3050   15.0630 N.3   162  PHE162     -0.1241
     81  CA       -46.9850  136.9240   13.8060 C.3   162  PHE162      0.1605
     82  C        -47.8670  138.1420   14.0760 C.2   162  PHE162      0.2264
     83  O        -47.6460  139.2160   13.5140 O.2   162  PHE162     -0.2867
     84  CB       -47.7310  135.9060   12.9340 C.3   162  PHE162      0.0534
     85  CG       -48.1550  136.4380   11.5870 C.ar  162  PHE162     -0.0203
     86  CD1      -49.4460  136.8990   11.3830 C.ar  162  PHE162     -0.0042
     87  CD2      -47.2710  136.4520   10.5200 C.ar  162  PHE162     -0.0042
     88  CE1      -49.8460  137.3810   10.1450 C.ar  162  PHE162     -0.0003
     89  CE2      -47.6670  136.9310    9.2770 C.ar  162  PHE162     -0.0003
     90  CZ       -48.9560  137.3970    9.0930 C.ar  162  PHE162     -0.0000
     91  N        -36.8390  133.3380    0.6800 N.3   198  PHE198     -0.1241
     92  CA       -36.8060  134.6050    1.4100 C.3   198  PHE198      0.1605
     93  C        -35.6140  134.7550    2.3650 C.2   198  PHE198      0.2264
     94  O        -35.2120  135.8670    2.6960 O.2   198  PHE198     -0.2867
     95  CB       -38.1630  134.9880    2.0520 C.3   198  PHE198      0.0534
     96  CG       -38.6620  134.0370    3.1190 C.ar  198  PHE198     -0.0203
     97  CD1      -37.9530  133.8380    4.2940 C.ar  198  PHE198     -0.0042
     98  CD2      -39.8880  133.4000    2.9700 C.ar  198  PHE198     -0.0042
     99  CE1      -38.4320  132.9840    5.2770 C.ar  198  PHE198     -0.0003
    100  CE2      -40.3750  132.5470    3.9510 C.ar  198  PHE198     -0.0003
    101  CZ       -39.6480  132.3390    5.1050 C.ar  198  PHE198     -0.0000
    102  N        -41.0370  139.2150   13.2950 N.3   224  ILE224     -0.1231
    103  CA       -40.7620  138.2580   12.2330 C.3   224  ILE224      0.1692
    104  C        -39.7630  138.8040   11.2180 C.2   224  ILE224      0.2591
    105  O        -38.7700  138.1540   10.8970 O.2   224  ILE224     -0.2718
    106  CB       -42.0470  137.8660   11.4880 C.3   224  ILE224      0.0266
    107  CG1      -43.1420  137.4510   12.4800 C.3   224  ILE224      0.0019
    108  CG2      -41.7550  136.7590   10.4940 C.3   224  ILE224      0.0020
    109  CD1      -42.7860  136.2350   13.3210 C.3   224  ILE224      0.0001
    110  N        -40.0440  139.9960   10.7070 N.am  225  VAL225     -0.1980
    111  CA       -39.1600  140.6520    9.7520 C.3   225  VAL225      0.1595
    112  C        -38.6720  141.9540   10.3800 C.2   225  VAL225      0.2287
    113  O        -39.4110  142.9370   10.4320 O.2   225  VAL225     -0.2864
    114  CB       -39.8870  140.9430    8.4210 C.3   225  VAL225      0.0276
    115  CG1      -38.9400  141.5910    7.4230 C.3   225  VAL225      0.0022
    116  CG2      -40.4710  139.6610    7.8410 C.3   225  VAL225      0.0022
    117  N        -45.9220  142.1100   12.8990 N.3   251  HIS251     -0.1241
    118  CA       -45.7360  141.7620   11.5030 C.3   251  HIS251      0.1621
    119  C        -47.0770  141.7420   10.7680 C.2   251  HIS251      0.2264
    120  O        -47.1940  142.2520    9.6530 O.2   251  HIS251     -0.2867
    121  CB       -45.0370  140.4080   11.3690 C.3   251  HIS251      0.0745
    122  CG       -44.6870  140.0570    9.9580 C.ar  251  HIS251      0.0817
    123  ND1      -43.9220  140.8780    9.1570 N.ar  251  HIS251     -0.2268
    124  CD2      -45.0040  138.9810    9.2010 C.ar  251  HIS251      0.1154
    125  CE1      -43.7810  140.3210    7.9670 C.ar  251  HIS251      0.1986
    126  NE2      -44.4270  139.1690    7.9680 N.ar  251  HIS251     -0.2212
@<TRIPOS>BOND
     1    35    34    2
     2    39    38    1
     3    34    33    1
     4    38    37    1
     5    91    92    1
     6    15    16    1
     7    37    36    1
     8    33    36    1
     9    33    32    1
    10    92    95    1
    11    92    93    1
    12    46    44    1
    13    18    17    2
    14    29    28    2
    15    95    96    1
    16    16    17    1
    17    16    19    1
    18    93    94    2
    19    32    28   am
    20    17    26   am
    21    28    27    1
    22    42    43    2
    23    42    41    1
    24    19    20    1
    25    98    96   ar
    26    98   100   ar
    27    44    41    1
    28    44    45    1
    29    96    97   ar
    30     1     2    1
    31    40    41    1
    32    26    27    1
    33     7     9   ar
    34     7     6   ar
    35     2     3    1
    36     2     5    1
    37    27    30    1
    38    47    48    1
    39     9    10   ar
    40   100   101   ar
    41     3     4    2
    42     5     6    1
    43    20    22   ar
    44    20    21   ar
    45    97    99   ar
    46     6     8   ar
    47    30    31    1
    48    22    24   ar
    49    51    48    1
    50    51    52    1
    51    48    49    1
    52   101    99   ar
    53    21    23   ar
    54    10     8   ar
    55    10    12   ar
    56     8    11   ar
    57    53    52   ar
    58    53    55   ar
    59    49    50    2
    60    24    25   ar
    61    52    54   ar
    62    12    14   ar
    63    23    25   ar
    64    55    57   ar
    65    11    13   ar
    66    54    56   ar
    67   115   114    1
    68    14    13   ar
    69   116   114    1
    70   125   126   ar
    71   125   123   ar
    72   126   124   ar
    73    57    56   ar
    74   114   111    1
    75    90    89   ar
    76    90    88   ar
    77   123   122   ar
    78   124   122   ar
    79    89    87   ar
    80    62    63    1
    81    62    59    1
    82    65    67   ar
    83    65    63   ar
    84   120   119    2
    85    60    61    2
    86    60    59    1
    87   111   112    1
    88   111   110    1
    89   122   121    1
    90    88    86   ar
    91    67    68   ar
    92    63    64   ar
    93   112   113    2
    94   108   106    1
    95    59    58    1
    96    87    85   ar
    97    77    79   ar
    98    77    75   ar
    99   110   104   am
   100   119   118    1
   101    79    78   ar
   102   105   104    2
   103    75    74   ar
   104   104   103    1
   105   121   118    1
   106    86    85   ar
   107   106   103    1
   108   106   107    1
   109   118   117    1
   110    85    84    1
   111    68    66   ar
   112    64    66   ar
   113    78    76   ar
   114    74    76   ar
   115    74    73    1
   116   103   102    1
   117   107   109    1
   118    73    70    1
   119    84    81    1
   120    83    82    2
   121    81    82    1
   122    81    80    1
   123    70    71    1
   124    70    69    1
   125    72    71    2
