@<TRIPOS>MOLECULE
tmp/3ia6A00.pdb
 240 228 0 0 0
SMALL
GASTEIGER

@<TRIPOS>ATOM
      1  N         21.1950   70.2590   -1.4330 N.3    49  LEU49      -0.1245
      2  CA        20.7110   70.7510   -0.1430 C.3    49  LEU49       0.1561
      3  C         20.2130   72.1950   -0.2490 C.2    49  LEU49       0.2260
      4  O         19.1780   72.5330    0.3230 O.2    49  LEU49      -0.2867
      5  CB        21.7860   70.6150    0.9420 C.3    49  LEU49       0.0270
      6  CG        21.5390   71.2040    2.3410 C.3    49  LEU49       0.0019
      7  CD1       20.2620   70.6790    3.0030 C.3    49  LEU49       0.0001
      8  CD2       22.7430   70.9470    3.2360 C.3    49  LEU49       0.0001
      9  N         16.2200   73.2640    0.1620 N.3    53  GLU53      -0.1245
     10  CA        15.7510   74.1530    1.2290 C.3    53  GLU53       0.1567
     11  C         14.7030   75.1600    0.7490 C.2    53  GLU53       0.2260
     12  O         14.9170   76.3750    0.7940 O.2    53  GLU53      -0.2867
     13  CB        16.9300   74.8500    1.9270 C.3    53  GLU53       0.0388
     14  CG        17.6160   73.9800    2.9880 C.3    53  GLU53       0.1160
     15  CD        18.9520   74.5360    3.4780 C.2    53  GLU53       0.3649
     16  OE1       19.3370   75.6580    3.0760 O.co2  53  GLU53      -0.2457
     17  OE2       19.6200   73.8380    4.2740 O.co2  53  GLU53      -0.2457
     18  N         23.2220   73.0240   10.3790 N.3    60  ARG60      -0.1231
     19  CA        21.8130   73.0420    9.9680 C.3    60  ARG60       0.1694
     20  C         21.1870   71.6530    9.9230 C.2    60  ARG60       0.2592
     21  O         20.0400   71.4780   10.3340 O.2    60  ARG60      -0.2718
     22  CB        21.6280   73.7430    8.6180 C.3    60  ARG60       0.0321
     23  CG        21.6660   75.2680    8.6910 C.3    60  ARG60       0.0489
     24  CD        20.9900   75.9250    7.4830 C.3    60  ARG60       0.2205
     25  NE        21.3590   75.2900    6.2130 N.pl3  60  ARG60      -0.0865
     26  CZ        22.3920   75.6460    5.4540 C.cat  60  ARG60       0.5346
     27  NH1       23.1840   76.6480    5.8180 N.pl3  60  ARG60       0.1354
     28  NH2       22.6360   74.9980    4.3230 N.pl3  60  ARG60       0.1354
     29  N         21.9410   70.6800    9.4160 N.am   61  ILE61      -0.1966
     30  CA        21.5260   69.2800    9.4350 C.3    61  ILE61       0.1727
     31  C         21.3590   68.8040   10.8840 C.2    61  ILE61       0.2616
     32  O         20.3720   68.1390   11.2160 O.2    61  ILE61      -0.2715
     33  CB        22.5270   68.3780    8.6510 C.3    61  ILE61       0.0290
     34  CG1       22.4080   68.6360    7.1430 C.3    61  ILE61       0.0022
     35  CG2       22.3210   66.8910    8.9620 C.3    61  ILE61       0.0023
     36  CD1       23.5620   68.0920    6.3280 C.3    61  ILE61       0.0001
     37  N         22.3170   69.1760   11.7370 N.am   62  PHE62      -0.1974
     38  CA        22.3270   68.7860   13.1500 C.3    62  PHE62       0.1639
     39  C         21.1290   69.3480   13.9170 C.2    62  PHE62       0.2290
     40  O         20.5660   68.6640   14.7720 O.2    62  PHE62      -0.2864
     41  CB        23.6430   69.2140   13.8180 C.3    62  PHE62       0.0560
     42  CG        23.8230   68.6850   15.2190 C.ar   62  PHE62      -0.0200
     43  CD1       24.1950   67.3610   15.4370 C.ar   62  PHE62      -0.0042
     44  CD2       23.6360   69.5180   16.3210 C.ar   62  PHE62      -0.0042
     45  CE1       24.3720   66.8730   16.7270 C.ar   62  PHE62      -0.0003
     46  CE2       23.8100   69.0360   17.6220 C.ar   62  PHE62      -0.0003
     47  CZ        24.1830   67.7140   17.8230 C.ar   62  PHE62      -0.0000
     48  N         18.2930   70.2550   12.4260 N.3    64  GLY64      -0.1210
     49  CA        17.1800   69.5290   11.8130 C.3    64  GLY64       0.1956
     50  C         16.8980   68.1960   12.4930 C.2    64  GLY64       0.2612
     51  O         15.7390   67.8250   12.6620 O.2    64  GLY64      -0.2717
     52  N         17.9560   67.4810   12.8800 N.am   65  CYS65      -0.1956
     53  CA        17.8190   66.2610   13.6780 C.3    65  CYS65       0.1843
     54  C         17.2560   66.5610   15.0690 C.2    65  CYS65       0.2625
     55  O         16.4280   65.8040   15.5750 O.2    65  CYS65      -0.2714
     56  CB        19.1520   65.5220   13.7990 C.3    65  CYS65       0.0997
     57  SG        19.8450   64.9780   12.2250 S.3    65  CYS65      -0.0797
     58  N         17.7010   67.6700   15.6690 N.am   66  GLN66      -0.1977
     59  CA        17.2380   68.0950   16.9960 C.3    66  GLN66       0.1601
     60  C         15.7360   68.3430   17.0110 C.2    66  GLN66       0.2287
     61  O         15.0300   67.7890   17.8620 O.2    66  GLN66      -0.2864
     62  CB        17.9710   69.3530   17.4740 C.3    66  GLN66       0.0394
     63  CG        19.4090   69.1230   17.9200 C.3    66  GLN66       0.0908
     64  CD        19.8960   70.1870   18.8930 C.2    66  GLN66       0.2608
     65  OE1       19.2570   70.4580   19.9140 O.2    66  GLN66      -0.2717
     66  NE2       21.0400   70.7870   18.5880 N.am   66  GLN66      -0.0878
     67  N         13.5320   67.3210   14.8420 N.3    68  ARG68      -0.1231
     68  CA        12.8760   66.0590   14.5230 C.3    68  ARG68       0.1694
     69  C         12.8260   65.1190   15.7410 C.2    68  ARG68       0.2592
     70  O         11.8380   64.4160   15.9520 O.2    68  ARG68      -0.2718
     71  CB        13.5450   65.3880   13.3090 C.3    68  ARG68       0.0321
     72  CG        13.0230   63.9850   12.9740 C.3    68  ARG68       0.0489
     73  CD        11.5780   64.0090   12.4500 C.3    68  ARG68       0.2205
     74  NE        10.8890   62.7590   12.7670 N.pl3  68  ARG68      -0.0865
     75  CZ         9.8230   62.6540   13.5580 C.cat  68  ARG68       0.5346
     76  NH1        9.2740   63.7250   14.1070 N.pl3  68  ARG68       0.1354
     77  NH2        9.2870   61.4650   13.7860 N.pl3  68  ARG68       0.1354
     78  N         13.8930   65.1220   16.5360 N.am   69  SER69      -0.1952
     79  CA        13.9620   64.3020   17.7460 C.3    69  SER69       0.1924
     80  C         12.9660   64.8130   18.7900 C.2    69  SER69       0.2314
     81  O         12.2760   64.0260   19.4410 O.2    69  SER69      -0.2863
     82  CB        15.3830   64.3160   18.3110 C.3    69  SER69       0.2116
     83  OG        15.5400   63.3660   19.3480 O.3    69  SER69      -0.2180
     84  N         14.8020   57.6210   23.2620 N.3   103  HIS103     -0.1241
     85  CA        15.8590   57.4360   22.2680 C.3   103  HIS103      0.1621
     86  C         15.8990   56.0320   21.6720 C.2   103  HIS103      0.2264
     87  O         16.1080   55.8810   20.4700 O.2   103  HIS103     -0.2867
     88  CB        17.2210   57.9060   22.7800 C.3   103  HIS103      0.0745
     89  CG        17.3700   59.3950   22.7720 C.ar  103  HIS103      0.0817
     90  ND1       17.3190   60.1540   23.9220 N.ar  103  HIS103     -0.2268
     91  CD2       17.5150   60.2690   21.7490 C.ar  103  HIS103      0.1154
     92  CE1       17.4460   61.4320   23.6100 C.ar  103  HIS103      0.1986
     93  NE2       17.5770   61.5280   22.2990 N.ar  103  HIS103     -0.2212
     94  N         13.2210   56.1420   19.2100 N.3   106  ILE106     -0.1231
     95  CA        13.5730   57.0000   18.0870 C.3   106  ILE106      0.1692
     96  C         14.4470   56.2790   17.0580 C.2   106  ILE106      0.2592
     97  O         14.1900   56.3540   15.8550 O.2   106  ILE106     -0.2718
     98  CB        14.2300   58.3100   18.5620 C.3   106  ILE106      0.0266
     99  CG1       13.1530   59.2490   19.1210 C.3   106  ILE106      0.0019
    100  CG2       15.0120   59.0000   17.4170 C.3   106  ILE106      0.0020
    101  CD1       13.6970   60.3360   20.0660 C.3   106  ILE106      0.0001
    102  N         15.4600   55.5640   17.5340 N.am  107  TYR107     -0.1976
    103  CA        16.3570   54.8290   16.6480 C.3   107  TYR107      0.1639
    104  C         15.6720   53.5920   16.0430 C.2   107  TYR107      0.2290
    105  O         15.9770   53.2000   14.9170 O.2   107  TYR107     -0.2864
    106  CB        17.6650   54.4880   17.3780 C.3   107  TYR107      0.0560
    107  CG        18.3800   55.7220   17.9070 C.ar  107  TYR107     -0.0198
    108  CD1       18.5660   56.8470   17.0970 C.ar  107  TYR107     -0.0009
    109  CD2       18.8560   55.7760   19.2150 C.ar  107  TYR107     -0.0009
    110  CE1       19.2030   57.9820   17.5730 C.ar  107  TYR107      0.0417
    111  CE2       19.5070   56.9180   19.7020 C.ar  107  TYR107      0.0417
    112  CZ        19.6740   58.0100   18.8740 C.ar  107  TYR107      0.1957
    113  OH        20.3210   59.1350   19.3380 O.3   107  TYR107     -0.2866
    114  N         13.3050   55.2210   13.4320 N.3   110  LEU110     -0.1245
    115  CA        14.1300   55.8530   12.4030 C.3   110  LEU110      0.1561
    116  C         14.5680   54.8570   11.3240 C.2   110  LEU110      0.2260
    117  O         14.7310   55.2220   10.1650 O.2   110  LEU110     -0.2867
    118  CB        15.3530   56.5300   13.0330 C.3   110  LEU110      0.0270
    119  CG        16.2830   57.2840   12.0850 C.3   110  LEU110      0.0019
    120  CD1       15.5700   58.4860   11.4690 C.3   110  LEU110      0.0001
    121  CD2       17.5570   57.6890   12.8180 C.3   110  LEU110      0.0001
    122  N         18.0710   58.1830    4.1740 N.3   119  VAL119     -0.1231
    123  CA        16.9930   58.3730    5.1440 C.3   119  VAL119      0.1692
    124  C         15.9800   59.4260    4.6980 C.2   119  VAL119      0.2592
    125  O         16.3480   60.4930    4.2110 O.2   119  VAL119     -0.2718
    126  CB        17.5740   58.7390    6.5420 C.3   119  VAL119      0.0266
    127  CG1       18.2860   60.0990    6.5040 C.3   119  VAL119      0.0020
    128  CG2       16.5010   58.6920    7.6230 C.3   119  VAL119      0.0020
    129  N         14.7000   59.1160    4.8750 N.am  120  LEU120     -0.1966
    130  CA        13.6350   60.0850    4.6310 C.3   120  LEU120      0.1728
    131  C         13.6800   61.1930    5.6720 C.2   120  LEU120      0.2616
    132  O         13.9810   60.9510    6.8390 O.2   120  LEU120     -0.2715
    133  CB        12.2590   59.4130    4.6330 C.3   120  LEU120      0.0311
    134  CG        11.9300   58.4810    3.4660 C.3   120  LEU120      0.0022
    135  CD1       10.6700   57.6830    3.7710 C.3   120  LEU120      0.0001
    136  CD2       11.7780   59.2570    2.1640 C.3   120  LEU120      0.0001
    137  N         13.4090   62.4150    5.2280 N.am  121  ILE121     -0.1963
    138  CA        13.4050   63.5750    6.1040 C.3   121  ILE121      0.1727
    139  C         12.1670   64.4000    5.8120 C.2   121  ILE121      0.2616
    140  O         11.5220   64.2210    4.7730 O.2   121  ILE121     -0.2715
    141  CB        14.6650   64.4680    5.9170 C.3   121  ILE121      0.0290
    142  CG1       14.7240   65.0530    4.5020 C.3   121  ILE121      0.0022
    143  CG2       15.9350   63.6880    6.2400 C.3   121  ILE121      0.0023
    144  CD1       15.4500   66.3800    4.4140 C.3   121  ILE121      0.0001
    145  N         11.8390   65.2890    6.7440 N.am  122  SER122     -0.1950
    146  CA        10.7880   66.2850    6.5470 C.3   122  SER122      0.1924
    147  C          9.4700   65.6430    6.0910 C.2   122  SER122      0.2314
    148  O          8.9510   65.9510    5.0140 O.2   122  SER122     -0.2863
    149  CB        11.2820   67.3630    5.5780 C.3   122  SER122      0.2116
    150  OG        10.2210   68.1890    5.1470 O.3   122  SER122     -0.2180
    151  N         17.7740   62.0680    2.3290 N.3   128  MET128     -0.1245
    152  CA        19.1710   62.4570    2.5100 C.3   128  MET128      0.1570
    153  C         20.0580   61.2190    2.4840 C.2   128  MET128      0.2261
    154  O         19.8360   60.2630    3.2350 O.2   128  MET128     -0.2867
    155  CB        19.3530   63.2470    3.8110 C.3   128  MET128      0.0387
    156  CG        20.6710   64.0040    3.9130 C.3   128  MET128      0.0595
    157  SD        20.6880   65.1480    5.3060 S.3   128  MET128     -0.1393
    158  CE        19.6040   66.4460    4.7190 C.3   128  MET128      0.0692
    159  N         25.8880   62.3780    4.4010 N.3   133  LEU133     -0.1245
    160  CA        25.9550   62.5280    5.8530 C.3   133  LEU133      0.1561
    161  C         27.3520   62.2400    6.4190 C.2   133  LEU133      0.2260
    162  O         27.7740   62.8980    7.3670 O.2   133  LEU133     -0.2867
    163  CB        24.8680   61.6790    6.5370 C.3   133  LEU133      0.0270
    164  CG        23.4410   62.2460    6.4100 C.3   133  LEU133      0.0019
    165  CD1       22.3750   61.1880    6.5920 C.3   133  LEU133      0.0001
    166  CD2       23.2150   63.4040    7.3830 C.3   133  LEU133      0.0001
    167  N         27.7280   60.7750   13.5040 N.3   143  PHE143     -0.1227
    168  CA        26.5900   60.3710   14.3330 C.3   143  PHE143      0.1736
    169  C         25.5280   59.5220   13.6460 C.2   143  PHE143      0.2595
    170  O         24.8650   58.7300   14.3140 O.2   143  PHE143     -0.2718
    171  CB        25.9770   61.5660   15.0870 C.3   143  PHE143      0.0547
    172  CG        25.2250   62.5440   14.2180 C.ar  143  PHE143     -0.0202
    173  CD1       25.8820   63.6100   13.6190 C.ar  143  PHE143     -0.0042
    174  CD2       23.8440   62.4280   14.0490 C.ar  143  PHE143     -0.0042
    175  CE1       25.1840   64.5350   12.8310 C.ar  143  PHE143     -0.0003
    176  CE2       23.1350   63.3490   13.2700 C.ar  143  PHE143     -0.0003
    177  CZ        23.8070   64.4030   12.6540 C.ar  143  PHE143     -0.0000
    178  N         25.3930   59.6480   12.3260 N.am  144  MET144     -0.1979
    179  CA        24.3490   58.9140   11.5910 C.3   144  MET144      0.1605
    180  C         24.7140   57.4890   11.1940 C.2   144  MET144      0.2287
    181  O         23.8320   56.6330   11.1050 O.2   144  MET144     -0.2864
    182  CB        23.8730   59.6890   10.3580 C.3   144  MET144      0.0413
    183  CG        22.9450   60.8640   10.6670 C.3   144  MET144      0.0598
    184  SD        21.5380   60.4830   11.7420 S.3   144  MET144     -0.1393
    185  CE        20.5520   59.4380   10.6800 C.3   144  MET144      0.0692
    186  N         23.4540   54.4160   13.2150 N.3   147  LYS147     -0.1245
    187  CA        21.9950   54.3120   13.0540 C.3   147  LYS147      0.1561
    188  C         21.6410   53.5710   11.7610 C.2   147  LYS147      0.2260
    189  O         20.7350   52.7300   11.7530 O.2   147  LYS147     -0.2867
    190  CB        21.3290   55.6970   13.0940 C.3   147  LYS147      0.0271
    191  CG        21.1970   56.3070   14.4890 C.3   147  LYS147      0.0035
    192  CD        22.5340   56.7690   15.0130 C.3   147  LYS147      0.0206
    193  CE        22.4510   57.4470   16.3660 C.3   147  LYS147      0.1093
    194  NZ        23.8230   57.8680   16.8080 N.3   147  LYS147     -0.1314
    195  N         26.0040   57.4550   21.1270 N.3   229  HIS229     -0.1241
    196  CA        25.4880   58.7670   20.7360 C.3   229  HIS229      0.1621
    197  C         25.7530   59.8670   21.7670 C.2   229  HIS229      0.2264
    198  O         26.1190   60.9830   21.4030 O.2   229  HIS229     -0.2867
    199  CB        23.9900   58.6790   20.4240 C.3   229  HIS229      0.0745
    200  CG        23.4440   59.9040   19.7640 C.ar  229  HIS229      0.0817
    201  ND1       23.5090   60.1060   18.4040 N.ar  229  HIS229     -0.2268
    202  CD2       22.8410   61.0010   20.2790 C.ar  229  HIS229      0.1154
    203  CE1       22.9610   61.2680   18.1060 C.ar  229  HIS229      0.1986
    204  NE2       22.5490   61.8330   19.2260 N.ar  229  HIS229     -0.2212
    205  N         27.7440   63.3990   21.4590 N.3   233  LEU233     -0.1245
    206  CA        27.1800   64.7200   21.7560 C.3   233  LEU233      0.1561
    207  C         28.0780   65.5380   22.6940 C.2   233  LEU233      0.2260
    208  O         28.1840   66.7590   22.5480 O.2   233  LEU233     -0.2867
    209  CB        25.7580   64.6080   22.3190 C.3   233  LEU233      0.0270
    210  CG        24.6210   64.1190   21.4120 C.3   233  LEU233      0.0019
    211  CD1       23.3660   63.9330   22.2390 C.3   233  LEU233      0.0001
    212  CD2       24.3440   65.0750   20.2540 C.3   233  LEU233      0.0001
    213  N         21.8750   72.3480   22.6680 N.3   245  LEU245     -0.1245
    214  CA        20.8810   71.2880   22.5920 C.3   245  LEU245      0.1561
    215  C         19.5190   71.8700   22.9970 C.2   245  LEU245      0.2260
    216  O         19.4550   72.7840   23.8240 O.2   245  LEU245     -0.2867
    217  CB        21.2770   70.1290   23.5040 C.3   245  LEU245      0.0270
    218  CG        21.0930   68.6880   23.0120 C.3   245  LEU245      0.0019
    219  CD1       22.0960   68.3250   21.9040 C.3   245  LEU245      0.0001
    220  CD2       21.2420   67.7310   24.1760 C.3   245  LEU245      0.0001
    221  N         15.6620   68.0220   25.0410 N.3   249  LEU249     -0.1245
    222  CA        16.7230   67.0200   24.8970 C.3   249  LEU249      0.1561
    223  C         17.7770   67.1210   25.9950 C.2   249  LEU249      0.2260
    224  O         18.2990   66.1020   26.4420 O.2   249  LEU249     -0.2867
    225  CB        17.3750   67.0780   23.5070 C.3   249  LEU249      0.0270
    226  CG        16.4840   66.8350   22.2780 C.3   249  LEU249      0.0019
    227  CD1       17.3080   66.9190   20.9930 C.3   249  LEU249      0.0001
    228  CD2       15.7150   65.5060   22.3530 C.3   249  LEU249      0.0001
    229  N         18.7820   63.9710   28.4910 N.3   253  TYR253     -0.1241
    230  CA        20.1610   63.5310   28.7140 C.3   253  TYR253      0.1605
    231  C         20.6290   63.9050   30.1300 C.2   253  TYR253      0.2264
    232  O         20.4090   65.0270   30.5740 O.2   253  TYR253     -0.2867
    233  CB        21.0890   64.1060   27.6370 C.3   253  TYR253      0.0534
    234  CG        20.8880   63.4860   26.2590 C.ar  253  TYR253     -0.0201
    235  CD1       21.0580   62.1130   26.0600 C.ar  253  TYR253     -0.0009
    236  CD2       20.5380   64.2710   25.1550 C.ar  253  TYR253     -0.0009
    237  CE1       20.8750   61.5350   24.8080 C.ar  253  TYR253      0.0417
    238  CE2       20.3560   63.7030   23.8940 C.ar  253  TYR253      0.0417
    239  CZ        20.5350   62.3310   23.7290 C.ar  253  TYR253      0.1957
    240  OH        20.3640   61.7390   22.4980 O.3   253  TYR253     -0.2866
@<TRIPOS>BOND
     1     1     2    1
     2     3     2    1
     3     3     4    2
     4     2     5    1
     5     9    10    1
     6    11    12    2
     7    11    10    1
     8     5     6    1
     9    10    13    1
    10    13    14    1
    11   136   134    1
    12   151   152    1
    13     6     7    1
    14     6     8    1
    15   153   152    1
    16   153   154    2
    17   152   155    1
    18    14    15    1
    19    16    15   ar
    20   134   135    1
    21   134   133    1
    22    15    17   ar
    23   155   156    1
    24   156   157    1
    25   122   123    1
    26   125   124    2
    27    28    26    1
    28   159   160    1
    29   144   142    1
    30   142   141    1
    31   130   133    1
    32   130   129    1
    33   130   131    1
    34   124   129   am
    35   124   123    1
    36   158   157    1
    37   140   139    2
    38   148   147    2
    39   123   126    1
    40   150   149    1
    41   137   131   am
    42   137   138    1
    43    26    27    1
    44    26    25    2
    45   149   146    1
    46   131   132    2
    47   139   138    1
    48   139   145   am
    49   160   161    1
    50   160   163    1
    51   141   138    1
    52   141   143    1
    53   147   146    1
    54    25    24    1
    55    36    34    1
    56   164   163    1
    57   164   165    1
    58   164   166    1
    59   161   162    2
    60   127   126    1
    61   126   128    1
    62   146   145    1
    63    34    33    1
    64    24    23    1
    65    22    23    1
    66    22    19    1
    67    33    35    1
    68    33    30    1
    69    29    30    1
    70    29    20   am
    71    30    31    1
    72    20    19    1
    73    20    21    2
    74    19    18    1
    75   117   116    2
    76   182   183    1
    77   182   179    1
    78   183   184    1
    79   185   184    1
    80    31    32    2
    81    31    37   am
    82   181   180    2
    83   180   179    1
    84   116   115    1
    85   120   119    1
    86   179   178    1
    87    37    38    1
    88   189   188    2
    89   188   187    1
    90    49    48    1
    91    49    50    1
    92   119   121    1
    93   119   118    1
    94    57    56    1
    95   178   169   am
    96   115   118    1
    97   115   114    1
    98    73    74    1
    99    73    72    1
   100    50    51    2
   101    50    52   am
   102   177   175   ar
   103   177   176   ar
   104    74    75    2
   105   175   173   ar
   106    52    53    1
   107    72    71    1
   108   187   190    1
   109   187   186    1
   110   190   191    1
   111    38    41    1
   112    38    39    1
   113   176   174   ar
   114    71    68    1
   115   167   168    1
   116    75    77    1
   117    75    76    1
   118   173   172   ar
   119   169   170    2
   120   169   168    1
   121    53    56    1
   122    53    54    1
   123    41    42    1
   124    39    40    2
   125   174   172   ar
   126   172   171    1
   127   168   171    1
   128   191   192    1
   129    68    67    1
   130    68    69    1
   131   105   104    2
   132   192   193    1
   133    54    55    2
   134    54    58   am
   135    42    43   ar
   136    42    44   ar
   137    43    45   ar
   138    58    59    1
   139    69    70    2
   140    69    78   am
   141    97    96    2
   142   104   103    1
   143    44    46   ar
   144   193   194    1
   145    78    79    1
   146   103   106    1
   147   103   102    1
   148    45    47   ar
   149    59    60    1
   150    59    62    1
   151    60    61    2
   152    96   102   am
   153    96    95    1
   154   108   110   ar
   155   108   107   ar
   156   106   107    1
   157   100    98    1
   158    62    63    1
   159   110   112   ar
   160    46    47   ar
   161    79    82    1
   162    79    80    1
   163   107   109   ar
   164    63    64    1
   165    95    98    1
   166    95    94    1
   167   203   201   ar
   168   203   204   ar
   169    82    83    1
   170   201   200   ar
   171    98    99    1
   172    66    64   am
   173    80    81    2
   174   112   113    1
   175   112   111   ar
   176    64    65    2
   177    99   101    1
   178   109   111   ar
   179   204   202   ar
   180   200   202   ar
   181   200   199    1
   182   212   210    1
   183   199   196    1
   184    87    86    2
   185   196   195    1
   186   196   197    1
   187   227   226    1
   188   198   197    2
   189   210   211    1
   190   210   209    1
   191   205   206    1
   192    86    85    1
   193    91    93   ar
   194    91    89   ar
   195   206   209    1
   196   206   207    1
   197   219   218    1
   198    85    88    1
   199    85    84    1
   200   226   228    1
   201   226   225    1
   202    93    92   ar
   203   240   239    1
   204   208   207    2
   205   214   213    1
   206   214   215    1
   207   214   217    1
   208    89    88    1
   209    89    90   ar
   210   215   216    2
   211   218   217    1
   212   218   220    1
   213   225   222    1
   214    92    90   ar
   215   239   238   ar
   216   239   237   ar
   217   238   236   ar
   218   237   235   ar
   219   222   221    1
   220   222   223    1
   221   236   234   ar
   222   223   224    2
   223   235   234   ar
   224   234   233    1
   225   233   230    1
   226   229   230    1
   227   230   231    1
   228   231   232    2
