@<TRIPOS>MOLECULE
tmp/3ia8B00.pdb
 201 188 0 0 0
SMALL
GASTEIGER

@<TRIPOS>ATOM
      1  N         22.6330   45.3660   16.8930 N.3    26  TYR26      -0.1241
      2  CA        21.2860   44.9480   17.2680 C.3    26  TYR26       0.1605
      3  C         20.3620   45.6990   16.3230 C.2    26  TYR26       0.2264
      4  O         20.7440   46.7300   15.7890 O.2    26  TYR26      -0.2867
      5  CB        20.9730   45.2630   18.7410 C.3    26  TYR26       0.0534
      6  CG        20.0580   44.2290   19.3800 C.ar   26  TYR26      -0.0201
      7  CD1       20.3840   42.8710   19.3530 C.ar   26  TYR26      -0.0009
      8  CD2       18.8680   44.6040   20.0040 C.ar   26  TYR26      -0.0009
      9  CE1       19.5380   41.9320   19.9180 C.ar   26  TYR26       0.0417
     10  CE2       18.0230   43.6690   20.5660 C.ar   26  TYR26       0.0417
     11  CZ        18.3660   42.3380   20.5290 C.ar   26  TYR26       0.1957
     12  OH        17.5420   41.3980   21.0830 O.3    26  TYR26      -0.2866
     13  N         18.1230   47.5770   16.8180 N.3    28  THR28      -0.1203
     14  CA        17.8270   48.9140   17.3580 C.3    28  THR28       0.1994
     15  C         19.0550   49.7940   17.5500 C.2    28  THR28       0.2617
     16  O         18.9390   50.9250   18.0320 O.2    28  THR28      -0.2717
     17  CB        17.1680   48.7930   18.7320 C.3    28  THR28       0.1784
     18  OG1       18.0800   48.1280   19.6130 O.3    28  THR28      -0.2211
     19  CG2       15.9070   47.9680   18.6420 C.3    28  THR28       0.0376
     20  N         20.2320   49.2910   17.1840 N.am   29  LEU29      -0.1979
     21  CA        21.4820   49.9830   17.5050 C.3    29  LEU29       0.1596
     22  C         22.3130   50.3260   16.2790 C.2    29  LEU29       0.2287
     23  O         22.3020   49.5910   15.2970 O.2    29  LEU29      -0.2864
     24  CB        22.3540   49.1100   18.4220 C.3    29  LEU29       0.0297
     25  CG        21.7990   48.7030   19.7830 C.3    29  LEU29       0.0022
     26  CD1       22.8570   47.9550   20.6000 C.3    29  LEU29       0.0001
     27  CD2       21.3030   49.9350   20.5370 C.3    29  LEU29       0.0001
     28  N         28.7700   49.1570   16.4090 N.3    32  PHE32      -0.1241
     29  CA        29.8600   49.7340   17.1750 C.3    32  PHE32       0.1605
     30  C         30.9430   48.6920   17.3230 C.2    32  PHE32       0.2264
     31  O         30.7200   47.5250   17.0260 O.2    32  PHE32      -0.2867
     32  CB        29.3740   50.2180   18.5470 C.3    32  PHE32       0.0534
     33  CG        28.8100   49.1210   19.4390 C.ar   32  PHE32      -0.0203
     34  CD1       27.4710   48.7900   19.3850 C.ar   32  PHE32      -0.0042
     35  CD2       29.6240   48.4550   20.3600 C.ar   32  PHE32      -0.0042
     36  CE1       26.9380   47.8040   20.2080 C.ar   32  PHE32      -0.0003
     37  CE2       29.0980   47.4590   21.1910 C.ar   32  PHE32      -0.0003
     38  CZ        27.7460   47.1410   21.1210 C.ar   32  PHE32      -0.0000
     39  N         34.3420   47.3380   19.9820 N.3    34  TYR34      -0.1241
     40  CA        34.8400   47.3830   21.3460 C.3    34  TYR34       0.1605
     41  C         36.0800   46.5180   21.5010 C.2    34  TYR34       0.2264
     42  O         36.2850   45.5650   20.7490 O.2    34  TYR34      -0.2867
     43  CB        33.7550   46.9480   22.3460 C.3    34  TYR34       0.0534
     44  CG        33.2450   45.5240   22.1600 C.ar   34  TYR34      -0.0201
     45  CD1       32.2500   45.2370   21.2310 C.ar   34  TYR34      -0.0009
     46  CD2       33.7290   44.4840   22.9450 C.ar   34  TYR34      -0.0009
     47  CE1       31.7710   43.9260   21.0620 C.ar   34  TYR34       0.0417
     48  CE2       33.2530   43.1920   22.8080 C.ar   34  TYR34       0.0417
     49  CZ        32.2800   42.9160   21.8580 C.ar   34  TYR34       0.1957
     50  OH        31.8220   41.6270   21.7210 O.3    34  TYR34      -0.2866
     51  N         38.0390   43.9450   24.0950 N.3    36  GLU36      -0.1245
     52  CA        37.6710   43.0810   25.2090 C.3    36  GLU36       0.1567
     53  C         38.8550   42.2410   25.6820 C.2    36  GLU36       0.2260
     54  O         39.5990   41.6690   24.8790 O.2    36  GLU36      -0.2867
     55  CB        36.4940   42.1660   24.8430 C.3    36  GLU36       0.0388
     56  CG        35.8440   41.5360   26.0820 C.3    36  GLU36       0.1160
     57  CD        34.6250   40.6870   25.7660 C.2    36  GLU36       0.3649
     58  OE1       34.5460   40.1660   24.6330 O.co2  36  GLU36      -0.2457
     59  OE2       33.7450   40.5340   26.6590 O.co2  36  GLU36      -0.2457
     60  N         35.2210   44.7860   28.7870 N.3    53  SER53      -0.1202
     61  CA        35.2020   45.5310   27.5240 C.3    53  SER53       0.2020
     62  C         35.5400   47.0020   27.7100 C.2    53  SER53       0.2618
     63  O         35.2870   47.5680   28.7630 O.2    53  SER53      -0.2717
     64  CB        33.8290   45.4210   26.8600 C.3    53  SER53       0.2103
     65  OG        33.5760   44.0940   26.4560 O.3    53  SER53      -0.2182
     66  N         36.0910   47.6200   26.6640 N.am   54  PHE54      -0.1975
     67  CA        36.5550   48.9900   26.7210 C.3    54  PHE54       0.1639
     68  C         36.2660   49.6960   25.3940 C.2    54  PHE54       0.2290
     69  O         36.2620   49.0740   24.3310 O.2    54  PHE54      -0.2864
     70  CB        38.0760   49.0100   26.9320 C.3    54  PHE54       0.0560
     71  CG        38.5310   48.2560   28.1440 C.ar   54  PHE54      -0.0200
     72  CD1       38.7520   46.8910   28.0830 C.ar   54  PHE54      -0.0042
     73  CD2       38.7530   48.9160   29.3460 C.ar   54  PHE54      -0.0042
     74  CE1       39.1610   46.1830   29.2090 C.ar   54  PHE54      -0.0003
     75  CE2       39.1650   48.2120   30.4790 C.ar   54  PHE54      -0.0003
     76  CZ        39.3700   46.8460   30.4070 C.ar   54  PHE54      -0.0000
     77  N         31.0820   47.3180   29.2080 N.3    62  HIS62      -0.1241
     78  CA        30.4970   46.1140   29.8090 C.3    62  HIS62       0.1621
     79  C         31.5470   45.3040   30.5880 C.2    62  HIS62       0.2264
     80  O         32.6920   45.1870   30.1470 O.2    62  HIS62      -0.2867
     81  CB        29.8990   45.2570   28.6910 C.3    62  HIS62       0.0745
     82  CG        29.1570   44.0550   29.1720 C.ar   62  HIS62       0.0817
     83  ND1       29.7270   42.8000   29.2280 N.ar   62  HIS62      -0.2268
     84  CD2       27.8800   43.9110   29.5990 C.ar   62  HIS62       0.1154
     85  CE1       28.8330   41.9360   29.6780 C.ar   62  HIS62       0.1986
     86  NE2       27.7070   42.5870   29.9110 N.ar   62  HIS62      -0.2212
     87  N         31.6580   41.4810   32.9740 N.3    64  GLU64      -0.1245
     88  CA        30.9840   40.3760   33.6290 C.3    64  GLU64       0.1567
     89  C         31.9870   39.3700   34.1940 C.2    64  GLU64       0.2260
     90  O         33.1720   39.3600   33.8230 O.2    64  GLU64      -0.2867
     91  CB        29.9940   39.7060   32.6550 C.3    64  GLU64       0.0388
     92  CG        30.6310   39.0830   31.4180 C.3    64  GLU64       0.1160
     93  CD        29.6000   38.4160   30.4990 C.2    64  GLU64       0.3649
     94  OE1       28.7560   37.6370   30.9890 O.co2  64  GLU64      -0.2457
     95  OE2       29.6280   38.6740   29.2880 O.co2  64  GLU64      -0.2457
     96  N         26.7490   40.5710   35.6800 N.3    83  GLN83      -0.1245
     97  CA        27.1230   41.6240   34.7230 C.3    83  GLN83       0.1566
     98  C         26.9480   43.0000   35.3330 C.2    83  GLN83       0.2260
     99  O         26.0560   43.2040   36.1640 O.2    83  GLN83      -0.2867
    100  CB        26.2490   41.5160   33.4720 C.3    83  GLN83       0.0367
    101  CG        26.2690   40.0850   32.9370 C.3    83  GLN83       0.0905
    102  CD        25.5400   39.9130   31.6540 C.2    83  GLN83       0.2608
    103  OE1       24.9350   40.8480   31.1350 O.2    83  GLN83      -0.2717
    104  NE2       25.5910   38.7010   31.1160 N.am   83  GLN83      -0.0878
    105  N         25.7210   45.6440   34.4450 N.3    85  THR85      -0.1218
    106  CA        24.4190   46.2510   34.2180 C.3    85  THR85       0.1862
    107  C         23.4590   45.9580   35.3880 C.2    85  THR85       0.2287
    108  O         22.3530   46.5110   35.4830 O.2    85  THR85      -0.2866
    109  CB        23.8190   45.6760   32.9420 C.3    85  THR85       0.1770
    110  OG1       23.9570   44.2520   32.9860 O.3    85  THR85      -0.2211
    111  CG2       24.5680   46.1970   31.7180 C.3    85  THR85       0.0375
    112  N         22.7120   42.6540   36.0660 N.3    87  VAL87      -0.1245
    113  CA        21.9840   41.4920   35.5550 C.3    87  VAL87       0.1561
    114  C         22.7490   40.2210   35.9230 C.2    87  VAL87       0.2260
    115  O         23.9820   40.2030   35.8610 O.2    87  VAL87      -0.2867
    116  CB        21.8250   41.5660   34.0160 C.3    87  VAL87       0.0252
    117  CG1       21.0470   40.3520   33.4840 C.3    87  VAL87       0.0019
    118  CG2       21.1030   42.8420   33.6220 C.3    87  VAL87       0.0019
    119  N         22.6740   35.7630   35.1660 N.3    89  GLU89      -0.1245
    120  CA        22.0880   34.7450   34.2950 C.3    89  GLU89       0.1567
    121  C         22.6710   33.3730   34.5340 C.2    89  GLU89       0.2260
    122  O         23.7920   33.2410   35.0460 O.2    89  GLU89      -0.2867
    123  CB        22.2730   35.1220   32.8340 C.3    89  GLU89       0.0388
    124  CG        23.7030   35.4670   32.5110 C.3    89  GLU89       0.1160
    125  CD        24.0600   35.1930   31.0800 C.2    89  GLU89       0.3649
    126  OE1       23.4240   34.3130   30.4630 O.co2  89  GLU89      -0.2457
    127  OE2       24.9770   35.8550   30.5630 O.co2  89  GLU89      -0.2457
    128  N         18.5230   49.2660   33.5360 N.3   114  LYS114     -0.1245
    129  CA        18.1020   50.0620   32.3870 C.3   114  LYS114      0.1561
    130  C         17.2970   49.2340   31.3840 C.2   114  LYS114      0.2260
    131  O         17.6240   48.0740   31.1100 O.2   114  LYS114     -0.2867
    132  CB        19.3210   50.6680   31.6970 C.3   114  LYS114      0.0271
    133  CG        18.9710   51.8400   30.7860 C.3   114  LYS114      0.0035
    134  CD        20.2030   52.3900   30.1010 C.3   114  LYS114      0.0206
    135  CE        19.8390   53.5360   29.1630 C.3   114  LYS114      0.1093
    136  NZ        20.9880   53.9060   28.2870 N.3   114  LYS114     -0.1314
    137  N         15.8120   48.5250   27.4560 N.3   116  PRO116     -0.2116
    138  CA        14.9920   47.3200   27.5730 C.3   116  PRO116      0.1372
    139  C         15.7460   46.1880   28.2630 C.2   116  PRO116      0.2244
    140  O         16.9700   46.0850   28.1470 O.2   116  PRO116     -0.2868
    141  CB        14.7510   46.9090   26.1160 C.3   116  PRO116      0.0268
    142  CG        15.6900   47.7230   25.2850 C.3   116  PRO116      0.0207
    143  CD        16.5270   48.5750   26.1730 C.3   116  PRO116      0.0892
    144  N         17.0080   42.4130   28.8750 N.3   118  VAL118     -0.1245
    145  CA        17.3070   41.1880   28.1600 C.3   118  VAL118      0.1561
    146  C         16.4540   40.0510   28.7550 C.2   118  VAL118      0.2260
    147  O         16.2950   39.9460   29.9810 O.2   118  VAL118     -0.2867
    148  CB        18.8320   40.8930   28.1890 C.3   118  VAL118      0.0252
    149  CG1       19.3020   40.6520   29.6180 C.3   118  VAL118      0.0019
    150  CG2       19.1790   39.7110   27.2970 C.3   118  VAL118      0.0019
    151  N         19.3130   34.8470   26.4050 N.3   121  ILE121     -0.1245
    152  CA        20.6530   35.0090   25.8620 C.3   121  ILE121      0.1561
    153  C         21.1260   33.6540   25.3790 C.2   121  ILE121      0.2260
    154  O         20.7900   32.6240   25.9860 O.2   121  ILE121     -0.2867
    155  CB        21.6170   35.4780   26.9600 C.3   121  ILE121      0.0252
    156  CG1       21.1330   36.8000   27.5620 C.3   121  ILE121      0.0019
    157  CG2       23.0280   35.6510   26.3930 C.3   121  ILE121      0.0019
    158  CD1       21.8050   37.1570   28.8950 C.3   121  ILE121      0.0001
    159  N         24.9560   31.8450   23.8310 N.3   123  ARG123     -0.1245
    160  CA        26.3650   32.0750   23.5000 C.3   123  ARG123      0.1563
    161  C         26.9970   30.8930   22.8010 C.2   123  ARG123      0.2260
    162  O         26.6960   29.7390   23.1120 O.2   123  ARG123     -0.2867
    163  CB        27.1840   32.3780   24.7510 C.3   123  ARG123      0.0307
    164  CG        26.6230   33.5070   25.6270 C.3   123  ARG123      0.0489
    165  CD        27.6840   34.0220   26.5940 C.3   123  ARG123      0.2205
    166  NE        27.1040   34.8260   27.6660 N.pl3 123  ARG123     -0.0865
    167  CZ        27.7190   35.8630   28.2300 C.cat 123  ARG123      0.5346
    168  NH1       28.9000   36.2630   27.7830 N.pl3 123  ARG123      0.1354
    169  NH2       27.1310   36.5390   29.2170 N.pl3 123  ARG123      0.1354
    170  N         27.4100   36.1320   20.8060 N.3   137  VAL137     -0.1245
    171  CA        26.3390   36.2630   21.7780 C.3   137  VAL137      0.1561
    172  C         25.0910   36.7910   21.0830 C.2   137  VAL137      0.2260
    173  O         25.1380   37.8090   20.3850 O.2   137  VAL137     -0.2867
    174  CB        26.7250   37.2590   22.9130 C.3   137  VAL137      0.0252
    175  CG1       25.5860   37.3650   23.9260 C.3   137  VAL137      0.0019
    176  CG2       28.0270   36.8170   23.6050 C.3   137  VAL137      0.0019
    177  N         15.1970   40.6590   23.6500 N.3   140  THR140     -0.1218
    178  CA        14.7300   41.5700   24.6830 C.3   140  THR140      0.1862
    179  C         13.2010   41.4910   24.7650 C.2   140  THR140      0.2287
    180  O         12.5700   40.6550   24.1070 O.2   140  THR140     -0.2866
    181  CB        15.1530   43.0080   24.4030 C.3   140  THR140      0.1770
    182  OG1       14.4880   43.4670   23.2170 O.3   140  THR140     -0.2211
    183  CG2       16.6560   43.0880   24.2170 C.3   140  THR140      0.0375
    184  N         24.0280   39.9390   18.9880 N.3   147  HIS147     -0.1226
    185  CA        24.4260   41.2020   19.5660 C.3   147  HIS147      0.1752
    186  C         25.9410   41.3970   19.4670 C.2   147  HIS147      0.2595
    187  O         26.3860   42.4910   19.1850 O.2   147  HIS147     -0.2718
    188  CB        23.9620   41.2730   21.0240 C.3   147  HIS147      0.0759
    189  CG        24.2930   42.5550   21.7370 C.ar  147  HIS147      0.0818
    190  ND1       24.2290   43.7990   21.1440 N.ar  147  HIS147     -0.2268
    191  CD2       24.6280   42.7770   23.0310 C.ar  147  HIS147      0.1154
    192  CE1       24.5450   44.7280   22.0300 C.ar  147  HIS147      0.1986
    193  NE2       24.7750   44.1330   23.1890 N.ar  147  HIS147     -0.2212
    194  N         26.7170   40.3330   19.7030 N.am  148  LEU148     -0.1980
    195  CA        28.1730   40.4330   19.7320 C.3   148  LEU148      0.1596
    196  C         28.8250   39.3220   18.9450 C.2   148  LEU148      0.2287
    197  O         28.3570   38.1850   18.9330 O.2   148  LEU148     -0.2864
    198  CB        28.7090   40.3590   21.1740 C.3   148  LEU148      0.0297
    199  CG        28.0200   41.2150   22.2420 C.3   148  LEU148      0.0022
    200  CD1       28.4300   40.7180   23.6250 C.3   148  LEU148      0.0001
    201  CD2       28.4000   42.6680   22.0610 C.3   148  LEU148      0.0001
@<TRIPOS>BOND
     1    23    22    2
     2     4     3    2
     3    22    21    1
     4     3     2    1
     5    28    29    1
     6    13    14    1
     7     1     2    1
     8    31    30    2
     9    29    30    1
    10    29    32    1
    11    20    21    1
    12    20    15   am
    13     2     5    1
    14    14    15    1
    15    14    17    1
    16    21    24    1
    17    15    16    2
    18    24    25    1
    19    32    33    1
    20    19    17    1
    21    17    18    1
    22     5     6    1
    23   197   196    2
    24   196   195    1
    25   184   185    1
    26   187   186    2
    27     7     6   ar
    28     7     9   ar
    29     6     8   ar
    30    34    33   ar
    31    34    36   ar
    32    33    35   ar
    33   186   185    1
    34   186   194   am
    35   185   188    1
    36   194   195    1
    37   195   198    1
    38    25    27    1
    39    25    26    1
    40     9    11   ar
    41    39    40    1
    42     8    10   ar
    43    36    38   ar
    44    35    37   ar
    45   173   172    2
    46    11    10   ar
    47    11    12    1
    48    42    41    2
    49   170   171    1
    50   188   189    1
    51    47    45   ar
    52    47    49   ar
    53   172   171    1
    54    38    37   ar
    55   190   189   ar
    56   190   192   ar
    57   198   199    1
    58    45    44   ar
    59    40    41    1
    60    40    43    1
    61    50    49    1
    62   189   191   ar
    63   171   174    1
    64    49    48   ar
    65   192   193   ar
    66   201   199    1
    67    44    43    1
    68    44    46   ar
    69   199   200    1
    70   161   162    2
    71   161   160    1
    72    48    46   ar
    73   174   176    1
    74   174   175    1
    75   191   193   ar
    76   182   181    1
    77   160   159    1
    78   160   163    1
    79   177   178    1
    80    51    52    1
    81   180   179    2
    82   183   181    1
    83    69    68    2
    84   181   178    1
    85    58    57   ar
    86   178   179    1
    87   163   164    1
    88    55    52    1
    89    55    56    1
    90    54    53    2
    91    52    53    1
    92   142   141    1
    93   142   143    1
    94   153   152    1
    95   153   154    2
    96    68    67    1
    97   164   165    1
    98    57    56    1
    99    57    59   ar
   100   152   151    1
   101   152   155    1
   102   141   138    1
   103   143   137    1
   104   157   155    1
   105    65    64    1
   106   165   166    1
   107    66    67    1
   108    66    62   am
   109    67    70    1
   110    64    61    1
   111    70    71    1
   112   155   156    1
   113   150   148    1
   114   137   138    1
   115    61    62    1
   116    61    60    1
   117   156   158    1
   118   138   139    1
   119   166   167    2
   120    62    63    2
   121   168   167    1
   122    72    71   ar
   123    72    74   ar
   124    71    73   ar
   125   140   139    2
   126   145   148    1
   127   145   146    1
   128   145   144    1
   129   148   149    1
   130   167   169    1
   131   136   135    1
   132    81    82    1
   133    81    78    1
   134   146   147    2
   135   135   134    1
   136    82    83   ar
   137    82    84   ar
   138    77    78    1
   139    74    76   ar
   140    83    85   ar
   141    95    93   ar
   142    73    75   ar
   143    84    86   ar
   144    85    86   ar
   145    78    79    1
   146   134   133    1
   147    80    79    2
   148    76    75   ar
   149   126   125   ar
   150    93    94   ar
   151    93    92    1
   152   127   125   ar
   153   133   132    1
   154   125   124    1
   155   131   130    2
   156   104   102   am
   157   103   102    2
   158   130   129    1
   159    92    91    1
   160   102   101    1
   161   132   129    1
   162   111   109    1
   163   129   128    1
   164   124   123    1
   165    91    88    1
   166   123   120    1
   167   101   100    1
   168   109   110    1
   169   109   106    1
   170    87    88    1
   171   100    97    1
   172   117   116    1
   173   118   116    1
   174    88    89    1
   175    90    89    2
   176   116   113    1
   177   106   105    1
   178   106   107    1
   179   120   121    1
   180   120   119    1
   181   121   122    2
   182    97    98    1
   183    97    96    1
   184    98    99    2
   185   107   108    2
   186   113   114    1
   187   113   112    1
   188   115   114    2
