@<TRIPOS>MOLECULE
tmp/3ia9A00.pdb
 123 116 0 0 0
SMALL
GASTEIGER

@<TRIPOS>ATOM
      1  N          3.9370   -5.5000   27.5150 N.3     8  ARG8       -0.1245
      2  CA         3.2810   -4.7670   26.4390 C.3     8  ARG8        0.1563
      3  C          2.1680   -3.9230   27.0380 C.2     8  ARG8        0.2260
      4  O          1.4250   -4.3820   27.9050 O.2     8  ARG8       -0.2867
      5  CB         2.7050   -5.7300   25.4000 C.3     8  ARG8        0.0307
      6  CG         3.7010   -6.4330   24.5020 C.3     8  ARG8        0.0489
      7  CD         3.0340   -7.0850   23.2880 C.3     8  ARG8        0.2205
      8  NE         2.1990   -8.1960   23.6550 N.pl3   8  ARG8       -0.0865
      9  CZ         1.2720   -8.7840   22.8860 C.cat   8  ARG8        0.5346
     10  NH1        0.9990   -8.3570   21.6590 N.pl3   8  ARG8        0.1354
     11  NH2        0.5890   -9.8140   23.3840 N.pl3   8  ARG8        0.1354
     12  N         -2.9220   -2.3320   21.8110 N.3    23  LEU23      -0.1245
     13  CA        -1.5940   -1.9290   22.2410 C.3    23  LEU23       0.1561
     14  C         -1.4250   -0.4310   22.0800 C.2    23  LEU23       0.2260
     15  O         -1.5570    0.0710   20.9760 O.2    23  LEU23      -0.2867
     16  CB        -0.5920   -2.6570   21.3530 C.3    23  LEU23       0.0270
     17  CG         0.9050   -2.4830   21.4870 C.3    23  LEU23       0.0019
     18  CD1        1.2850   -3.0110   22.8020 C.3    23  LEU23       0.0001
     19  CD2        1.6760   -3.2280   20.3580 C.3    23  LEU23       0.0001
     20  N          0.5830    2.4610   21.2200 N.3    25  ASN25      -0.1240
     21  CA         1.6950    2.3490   20.3130 C.3    25  ASN25       0.1653
     22  C          2.2190    3.6970   19.8110 C.2    25  ASN25       0.2266
     23  O          1.7280    4.2390   18.8210 O.2    25  ASN25      -0.2867
     24  CB         1.2560    1.4880   19.1260 C.3    25  ASN25       0.1155
     25  CG         2.3850    1.0970   18.2300 C.2    25  ASN25       0.2627
     26  OD1        3.5110    1.5940   18.3520 O.2    25  ASN25      -0.2716
     27  ND2        2.0890    0.2190   17.2870 N.am   25  ASN25      -0.0877
     28  N          4.8520    4.1760   18.3160 N.3    27  GLY27      -0.1210
     29  CA         5.4580    4.0040   17.0330 C.3    27  GLY27       0.1956
     30  C          4.5100    3.9720   15.8400 C.2    27  GLY27       0.2612
     31  O          4.9710    3.7780   14.7170 O.2    27  GLY27      -0.2717
     32  N          3.2090    4.1480   16.0870 N.am   28  ALA28      -0.1965
     33  CA         2.1780    4.1000   15.0290 C.3    28  ALA28       0.1728
     34  C          1.6060    5.4930   14.8370 C.2    28  ALA28       0.2616
     35  O          1.1470    6.1120   15.7970 O.2    28  ALA28      -0.2715
     36  CB         1.0810    3.1340   15.3880 C.3    28  ALA28       0.0334
     37  N          1.5800    5.9790   13.6020 N.am   29  ASP29      -0.1957
     38  CA         0.9040    7.2230   13.3200 C.3    29  ASP29       0.1840
     39  C         -0.6200    7.0740   13.5400 C.2    29  ASP29       0.2622
     40  O         -1.2980    7.9900   14.0220 O.2    29  ASP29      -0.2715
     41  CB         1.1010    7.6150   11.8620 C.3    29  ASP29       0.1450
     42  CG         2.5190    7.9260   11.4750 C.2    29  ASP29       0.3671
     43  OD1        3.4270    8.0470   12.3240 O.co2  29  ASP29      -0.2456
     44  OD2        2.7310    8.0550   10.2390 O.co2  29  ASP29      -0.2456
     45  N         -1.1130    5.9100   13.1540 N.am   30  ASP30      -0.1971
     46  CA        -2.5370    5.5800   13.0270 C.3    30  ASP30       0.1709
     47  C         -2.9660    4.4690   13.9420 C.2    30  ASP30       0.2293
     48  O         -2.1590    3.7120   14.4640 O.2    30  ASP30      -0.2864
     49  CB        -2.8510    5.1150   11.6070 C.3    30  ASP30       0.1436
     50  CG        -2.3160    6.0160   10.5840 C.2    30  ASP30       0.3671
     51  OD1       -2.5960    7.2300   10.6290 O.co2  30  ASP30      -0.2456
     52  OD2       -1.5530    5.5670    9.7070 O.co2  30  ASP30      -0.2456
     53  N         -5.0100    1.0210   14.1890 N.3    32  VAL32      -0.1245
     54  CA        -5.2650   -0.1090   13.2800 C.3    32  VAL32       0.1561
     55  C         -5.8440   -1.2470   14.0710 C.2    32  VAL32       0.2260
     56  O         -5.2350   -1.7320   14.9950 O.2    32  VAL32      -0.2867
     57  CB        -3.9790   -0.5500   12.5140 C.3    32  VAL32       0.0252
     58  CG1       -4.3920   -1.4370   11.3130 C.3    32  VAL32       0.0019
     59  CG2       -3.1820    0.6410   12.0530 C.3    32  VAL32       0.0019
     60  N         -1.0500    0.9430    4.3340 N.3    44  ILE44      -0.1231
     61  CA        -0.1690    1.4190    5.3990 C.3    44  ILE44       0.1692
     62  C          1.0150    0.4560    5.5000 C.2    44  ILE44       0.2593
     63  O          0.9240   -0.7110    5.1210 O.2    44  ILE44      -0.2718
     64  CB        -0.9040    1.5060    6.7530 C.3    44  ILE44       0.0266
     65  CG1       -1.4700    0.1300    7.1490 C.3    44  ILE44       0.0019
     66  CG2       -1.9190    2.6350    6.7440 C.3    44  ILE44       0.0020
     67  CD1       -2.0490    0.0880    8.5760 C.3    44  ILE44       0.0001
     68  N          2.1250    0.9660    6.0230 N.am   45  GLY45      -0.1942
     69  CA         3.3590    0.2150    6.1420 C.3    45  GLY45       0.2014
     70  C          3.8140    0.0120    7.5580 C.2    45  GLY45       0.2639
     71  O          3.3860    0.7040    8.5010 O.2    45  GLY45      -0.2714
     72  N          4.6840   -0.9670    7.7080 N.am   46  GLY46      -0.1939
     73  CA         5.3570   -1.1840    8.9570 C.3    46  GLY46       0.2014
     74  C          6.6830   -1.8850    8.6860 C.2    46  GLY46       0.2638
     75  O          7.2290   -1.7930    7.6020 O.2    46  GLY46      -0.2714
     76  N          7.2480   -2.5640    9.6710 N.am   47  ILE47      -0.1977
     77  CA         8.3070   -3.5120    9.3420 C.3    47  ILE47       0.1596
     78  C          7.5680   -4.6380    8.6240 C.2    47  ILE47       0.2287
     79  O          6.4360   -4.9660    8.9860 O.2    47  ILE47      -0.2864
     80  CB         9.0950   -4.0140   10.5840 C.3    47  ILE47       0.0276
     81  CG1        8.1950   -4.7900   11.5660 C.3    47  ILE47       0.0022
     82  CG2        9.8270   -2.8680   11.2380 C.3    47  ILE47       0.0022
     83  CD1        8.6580   -4.7950   13.0330 C.3    47  ILE47       0.0001
     84  N          3.7940   -3.5920    3.4840 N.3    50  PHE50      -0.1241
     85  CA         2.5270   -2.8650    3.4230 C.3    50  PHE50       0.1605
     86  C          1.3530   -3.7930    3.4840 C.2    50  PHE50       0.2264
     87  O          1.4240   -4.9210    2.9670 O.2    50  PHE50      -0.2867
     88  CB         2.4770   -2.0400    2.1270 C.3    50  PHE50       0.0534
     89  CG         3.3120   -0.8320    2.1930 C.ar   50  PHE50      -0.0203
     90  CD1        4.6660   -0.8950    1.9390 C.ar   50  PHE50      -0.0042
     91  CD2        2.7580    0.3860    2.5480 C.ar   50  PHE50      -0.0042
     92  CE1        5.4170    0.2500    2.0570 C.ar   50  PHE50      -0.0003
     93  CE2        3.5350    1.5170    2.6550 C.ar   50  PHE50      -0.0003
     94  CZ         4.8520    1.4380    2.4110 C.ar   50  PHE50      -0.0000
     95  N         -4.0550   -6.4680   10.6070 N.3    76  THR76      -0.1204
     96  CA        -2.9500   -6.1350   11.4750 C.3    76  THR76       0.1979
     97  C         -2.6320   -7.3010   12.4300 C.2    76  THR76       0.2460
     98  O         -3.5300   -7.9910   12.9000 O.2    76  THR76      -0.2732
     99  CB        -3.2580   -4.8620   12.3050 C.3    76  THR76       0.1783
    100  OG1       -2.1420   -4.5890   13.1350 O.3    76  THR76      -0.2211
    101  CG2       -4.5340   -5.0120   13.1280 C.3    76  THR76       0.0376
    102  N         -1.3440   -7.5520   12.7120 N.am   77  PRO77      -0.2717
    103  CA        -1.0040   -8.6130   13.6700 C.3    77  PRO77       0.1535
    104  C         -1.5360   -8.4040   15.0750 C.2    77  PRO77       0.2598
    105  O         -1.7620   -9.3580   15.8010 O.2    77  PRO77      -0.2715
    106  CB         0.5250   -8.6230   13.6470 C.3    77  PRO77       0.0310
    107  CG         0.8990   -8.0280   12.2900 C.3    77  PRO77       0.0237
    108  CD        -0.1400   -7.0040   12.0430 C.3    77  PRO77       0.0939
    109  N         -1.6700   -7.1440   15.4700 N.am   78  VAL78      -0.1978
    110  CA        -2.0700   -6.7260   16.8170 C.3    78  VAL78       0.1596
    111  C         -2.9640   -5.4730   16.6850 C.2    78  VAL78       0.2287
    112  O         -2.6490   -4.6040   15.8830 O.2    78  VAL78      -0.2864
    113  CB        -0.7490   -6.3370   17.6140 C.3    78  VAL78       0.0276
    114  CG1       -1.0690   -5.9080   19.0380 C.3    78  VAL78       0.0022
    115  CG2        0.2550   -7.5020   17.6220 C.3    78  VAL78       0.0022
    116  N         -3.8210   -1.8760   17.4450 N.3    80  ILE80      -0.1245
    117  CA        -2.8960   -0.8460   17.8940 C.3    80  ILE80       0.1561
    118  C         -3.5950    0.5000   17.9550 C.2    80  ILE80       0.2260
    119  O         -4.3510    0.8710   17.0580 O.2    80  ILE80      -0.2867
    120  CB        -1.6190   -0.7850   17.1060 C.3    80  ILE80       0.0252
    121  CG1       -1.8920   -0.5170   15.6920 C.3    80  ILE80       0.0019
    122  CG2       -0.7280   -2.0100   17.3470 C.3    80  ILE80       0.0019
    123  CD1       -0.5710   -0.4330   14.8530 C.3    80  ILE80       0.0001
@<TRIPOS>BOND
     1    90    92   ar
     2    90    89   ar
     3    92    94   ar
     4    88    89    1
     5    88    85    1
     6    89    91   ar
     7    94    93   ar
     8    91    93   ar
     9    87    86    2
    10    85    86    1
    11    85    84    1
    12    60    61    1
    13    63    62    2
    14    61    62    1
    15    61    64    1
    16    62    68   am
    17    68    69    1
    18    69    70    1
    19    66    64    1
    20    64    65    1
    21    65    67    1
    22    70    72   am
    23    70    71    2
    24    75    74    2
    25    72    73    1
    26    78    79    2
    27    78    77    1
    28    74    73    1
    29    74    76   am
    30    77    76    1
    31    77    80    1
    32    52    50   ar
    33    44    42   ar
    34    50    51   ar
    35    50    49    1
    36    80    82    1
    37    80    81    1
    38    95    96    1
    39    58    57    1
    40    42    41    1
    41    42    43   ar
    42    96    99    1
    43    96    97    1
    44    81    83    1
    45    49    46    1
    46    41    38    1
    47   108   107    1
    48   108   102    1
    49    59    57    1
    50   107   106    1
    51    99   101    1
    52    99   100    1
    53    97   102   am
    54    97    98    2
    55    57    54    1
    56   102   103    1
    57    46    45    1
    58    46    47    1
    59    45    39   am
    60    54    55    1
    61    54    53    1
    62    38    39    1
    63    38    37    1
    64    39    40    2
    65    37    34   am
    66   106   103    1
    67   103   104    1
    68    47    48    2
    69    55    56    2
    70    31    30    2
    71    34    33    1
    72    34    35    2
    73   123   121    1
    74    33    36    1
    75    33    32    1
    76   104   109   am
    77   104   105    2
    78   109   110    1
    79   121   120    1
    80    30    32   am
    81    30    29    1
    82   112   111    2
    83   111   110    1
    84   110   113    1
    85    29    28    1
    86   119   118    2
    87   120   122    1
    88   120   117    1
    89    27    25   am
    90   116   117    1
    91   113   115    1
    92   113   114    1
    93   117   118    1
    94    25    26    2
    95    25    24    1
    96    23    22    2
    97    24    21    1
    98    22    21    1
    99    21    20    1
   100    19    17    1
   101    15    14    2
   102    16    17    1
   103    16    13    1
   104    17    18    1
   105    10     9    1
   106    12    13    1
   107    14    13    1
   108     9    11    1
   109     9     8    2
   110     7     8    1
   111     7     6    1
   112     6     5    1
   113     5     2    1
   114     2     3    1
   115     2     1    1
   116     3     4    2
