@<TRIPOS>MOLECULE
tmp/3iadD00.pdb
 246 235 0 0 0
SMALL
GASTEIGER

@<TRIPOS>ATOM
      1  N        -14.6010    2.0190  -13.2300 N.3    72  TYR72      -0.1227
      2  CA       -15.5370    3.0300  -12.7250 C.3    72  TYR72       0.1736
      3  C        -14.9730    3.8010  -11.5220 C.2    72  TYR72       0.2595
      4  O        -14.7720    5.0190  -11.6000 O.2    72  TYR72      -0.2718
      5  CB       -16.8750    2.3720  -12.3600 C.3    72  TYR72       0.0548
      6  CG       -17.9740    3.3270  -11.9240 C.ar   72  TYR72      -0.0200
      7  CD1      -18.9120    3.7950  -12.8310 C.ar   72  TYR72      -0.0009
      8  CD2      -18.0820    3.7410  -10.5970 C.ar   72  TYR72      -0.0009
      9  CE1      -19.9290    4.6620  -12.4340 C.ar   72  TYR72       0.0417
     10  CE2      -19.0910    4.6150  -10.1860 C.ar   72  TYR72       0.0417
     11  CZ       -20.0130    5.0730  -11.1080 C.ar   72  TYR72       0.1957
     12  OH       -21.0170    5.9290  -10.7080 O.3    72  TYR72      -0.2866
     13  N        -14.7110    3.0940  -10.4210 N.am   73  HIS73      -0.1975
     14  CA       -14.3530    3.7350   -9.1450 C.3    73  HIS73       0.1656
     15  C        -12.9430    4.3010   -9.1040 C.2    73  HIS73       0.2291
     16  O        -12.1510    3.9490   -8.2420 O.2    73  HIS73      -0.2864
     17  CB       -14.5840    2.7740   -7.9780 C.3    73  HIS73       0.0771
     18  CG       -16.0270    2.5760   -7.6760 C.ar   73  HIS73       0.0820
     19  ND1      -16.7530    1.5220   -8.1820 N.ar   73  HIS73      -0.2267
     20  CD2      -16.9010    3.3390   -6.9810 C.ar   73  HIS73       0.1154
     21  CE1      -18.0070    1.6250   -7.7820 C.ar   73  HIS73       0.1986
     22  NE2      -18.1240    2.7210   -7.0530 N.ar   73  HIS73      -0.2212
     23  N        -10.3520    2.5340   -3.8160 N.3   117  HIS117     -0.1241
     24  CA       -11.4060    1.5510   -4.0690 C.3   117  HIS117      0.1621
     25  C        -10.8050    0.4190   -4.8970 C.2   117  HIS117      0.2264
     26  O        -10.1930    0.6790   -5.9280 O.2   117  HIS117     -0.2867
     27  CB       -12.5620    2.2100   -4.8380 C.3   117  HIS117      0.0745
     28  CG       -13.8770    1.5060   -4.7050 C.ar  117  HIS117      0.0817
     29  ND1      -14.1290    0.2790   -5.2790 N.ar  117  HIS117     -0.2268
     30  CD2      -15.0280    1.8760   -4.0920 C.ar  117  HIS117      0.1154
     31  CE1      -15.3720   -0.0840   -5.0110 C.ar  117  HIS117      0.1986
     32  NE2      -15.9400    0.8680   -4.2940 N.ar  117  HIS117     -0.2212
     33  N        -12.4340   -1.9700   -6.5220 N.3   119  GLY119     -0.1210
     34  CA       -13.3230   -2.4020   -7.5970 C.3   119  GLY119      0.1956
     35  C        -14.1760   -3.5850   -7.1860 C.2   119  GLY119      0.2612
     36  O        -14.7310   -4.2820   -8.0330 O.2   119  GLY119     -0.2717
     37  N        -14.2840   -3.8090   -5.8780 N.am  120  VAL120     -0.1965
     38  CA       -15.1280   -4.8650   -5.3390 C.3   120  VAL120      0.1727
     39  C        -15.9960   -4.3380   -4.2050 C.2   120  VAL120      0.2617
     40  O        -15.6710   -3.3410   -3.5640 O.2   120  VAL120     -0.2715
     41  CB       -14.2960   -6.0780   -4.8360 C.3   120  VAL120      0.0290
     42  CG1      -13.5520   -6.7320   -5.9990 C.3   120  VAL120      0.0023
     43  CG2      -13.3270   -5.6570   -3.7390 C.3   120  VAL120      0.0023
     44  N        -17.0930   -5.0430   -3.9590 N.am  121  SER121     -0.1936
     45  CA       -18.1030   -4.6490   -2.9880 C.3   121  SER121      0.2055
     46  C        -17.6830   -4.9610   -1.5630 C.2   121  SER121      0.2643
     47  O        -16.7880   -5.7710   -1.3320 O.2   121  SER121     -0.2714
     48  CB       -19.3920   -5.4100   -3.2830 C.3   121  SER121      0.2130
     49  OG       -19.1720   -6.8120   -3.1770 O.3   121  SER121     -0.2179
     50  N        -18.3500   -4.3180   -0.6100 N.am  122  ASN122     -0.1971
     51  CA       -18.1810   -4.6470    0.7980 C.3   122  ASN122      0.1688
     52  C        -18.4070   -6.1330    1.0200 C.2   122  ASN122      0.2292
     53  O        -17.5990   -6.7920    1.6660 O.2   122  ASN122     -0.2864
     54  CB       -19.1470   -3.8370    1.6740 C.3   122  ASN122      0.1181
     55  CG       -18.6870   -2.4040    1.8860 C.2   122  ASN122      0.2629
     56  OD1      -17.4920   -2.1280    1.9490 O.2   122  ASN122     -0.2716
     57  ND2      -19.6350   -1.4900    2.0070 N.am  122  ASN122     -0.0877
     58  N        -15.6730   -0.4940    3.1270 N.3   142  LEU142     -0.1245
     59  CA       -14.9870    0.3740    2.1870 C.3   142  LEU142      0.1561
     60  C        -15.0810    1.8310    2.6070 C.2   142  LEU142      0.2260
     61  O        -14.1020    2.5770    2.4940 O.2   142  LEU142     -0.2867
     62  CB       -15.5360    0.1980    0.7690 C.3   142  LEU142      0.0270
     63  CG       -14.8920   -0.9300   -0.0330 C.3   142  LEU142      0.0019
     64  CD1      -15.6990   -1.2570   -1.2800 C.3   142  LEU142      0.0001
     65  CD2      -13.4860   -0.5460   -0.4090 C.3   142  LEU142      0.0001
     66  N        -23.9740    2.5090    0.1510 N.3   186  MET186     -0.1245
     67  CA       -25.1730    2.2870   -0.6610 C.3   186  MET186      0.1570
     68  C        -26.3170    1.6310    0.1160 C.2   186  MET186      0.2261
     69  O        -27.4840    1.9660   -0.0880 O.2   186  MET186     -0.2867
     70  CB       -24.8350    1.4230   -1.8830 C.3   186  MET186      0.0387
     71  CG       -23.8260    2.0230   -2.8610 C.3   186  MET186      0.0595
     72  SD       -24.1560    3.7210   -3.3850 S.3   186  MET186     -0.1393
     73  CE       -25.9220    3.7020   -3.5270 C.3   186  MET186      0.0692
     74  N        -23.4290   11.0430   -6.2330 N.3   231  ASP231     -0.1225
     75  CA       -22.9210    9.6830   -6.4280 C.3   231  ASP231      0.1805
     76  C        -23.8720    8.8500   -7.3200 C.2   231  ASP231      0.2597
     77  O        -23.4150    8.0330   -8.1240 O.2   231  ASP231     -0.2718
     78  CB       -22.7100    9.0080   -5.0570 C.3   231  ASP231      0.1424
     79  CG       -21.5910    7.9690   -5.0550 C.2   231  ASP231      0.3668
     80  OD1      -20.8120    7.8920   -6.0240 O.co2 231  ASP231     -0.2456
     81  OD2      -21.4800    7.2210   -4.0560 O.co2 231  ASP231     -0.2456
     82  N        -25.1810    9.0680   -7.1860 N.am  232  LEU232     -0.1979
     83  CA       -26.1760    8.4200   -8.0550 C.3   232  LEU232      0.1596
     84  C        -26.6650    9.3580   -9.1690 C.2   232  LEU232      0.2287
     85  O        -27.8490    9.3760   -9.4950 O.2   232  LEU232     -0.2864
     86  CB       -27.3740    7.9060   -7.2340 C.3   232  LEU232      0.0297
     87  CG       -27.0640    6.9430   -6.0780 C.3   232  LEU232      0.0022
     88  CD1      -28.3330    6.2720   -5.5680 C.3   232  LEU232      0.0001
     89  CD2      -26.0470    5.8840   -6.4850 C.3   232  LEU232      0.0001
     90  N        -25.1930    9.5830  -12.4230 N.3   234  ASN234     -0.1240
     91  CA       -24.9110    9.1330  -13.7920 C.3   234  ASN234      0.1653
     92  C        -26.1320    9.1610  -14.7280 C.2   234  ASN234      0.2266
     93  O        -26.0740    9.7870  -15.7830 O.2   234  ASN234     -0.2867
     94  CB       -24.2680    7.7330  -13.8140 C.3   234  ASN234      0.1155
     95  CG       -22.9140    7.6920  -13.1400 C.2   234  ASN234      0.2627
     96  OD1      -22.4490    6.6230  -12.7530 O.2   234  ASN234     -0.2716
     97  ND2      -22.2820    8.8510  -12.9810 N.am  234  ASN234     -0.0877
     98  N        -23.6180    9.3290  -19.6530 N.3   242  TYR242     -0.1241
     99  CA       -24.2970    8.2490  -18.9390 C.3   242  TYR242      0.1605
    100  C        -23.8790    6.8810  -19.4770 C.2   242  TYR242      0.2264
    101  O        -23.5910    5.9650  -18.7050 O.2   242  TYR242     -0.2867
    102  CB       -25.8180    8.4530  -19.0430 C.3   242  TYR242      0.0534
    103  CG       -26.7150    7.4070  -18.3990 C.ar  242  TYR242     -0.0201
    104  CD1      -26.2660    6.5760  -17.3730 C.ar  242  TYR242     -0.0009
    105  CD2      -28.0430    7.2830  -18.7970 C.ar  242  TYR242     -0.0009
    106  CE1      -27.1110    5.6320  -16.7900 C.ar  242  TYR242      0.0417
    107  CE2      -28.8990    6.3500  -18.2080 C.ar  242  TYR242      0.0417
    108  CZ       -28.4250    5.5270  -17.2140 C.ar  242  TYR242      0.1957
    109  OH       -29.2610    4.6050  -16.6310 O.3   242  TYR242     -0.2866
    110  N        -22.1330    3.6510  -17.5990 N.3   246  THR246     -0.1218
    111  CA       -22.7240    2.3150  -17.6080 C.3   246  THR246      0.1862
    112  C        -21.7250    1.2670  -18.1060 C.2   246  THR246      0.2287
    113  O        -21.5160    0.2580  -17.4410 O.2   246  THR246     -0.2866
    114  CB       -24.0050    2.2590  -18.4540 C.3   246  THR246      0.1770
    115  OG1      -24.9670    3.1710  -17.9170 O.3   246  THR246     -0.2211
    116  CG2      -24.5920    0.8680  -18.4320 C.3   246  THR246      0.0375
    117  N        -19.0820    0.8420  -15.2640 N.3   249  ILE249     -0.1231
    118  CA       -19.5510    0.1880  -14.0410 C.3   249  ILE249      0.1692
    119  C        -19.8450   -1.2900  -14.2730 C.2   249  ILE249      0.2591
    120  O        -19.6440   -2.1120  -13.3790 O.2   249  ILE249     -0.2718
    121  CB       -20.8090    0.8870  -13.4580 C.3   249  ILE249      0.0266
    122  CG1      -21.1500    0.3340  -12.0710 C.3   249  ILE249      0.0019
    123  CG2      -21.9990    0.7410  -14.3840 C.3   249  ILE249      0.0020
    124  CD1      -20.0510    0.5230  -11.0570 C.3   249  ILE249      0.0001
    125  N        -20.3310   -1.6200  -15.4680 N.am  250  MET250     -0.1979
    126  CA       -20.6160   -3.0070  -15.8180 C.3   250  MET250      0.1605
    127  C        -19.3220   -3.7960  -16.0030 C.2   250  MET250      0.2287
    128  O        -19.2260   -4.9480  -15.5760 O.2   250  MET250     -0.2864
    129  CB       -21.4810   -3.0990  -17.0760 C.3   250  MET250      0.0413
    130  CG       -22.9220   -2.6460  -16.8810 C.3   250  MET250      0.0598
    131  SD       -23.7900   -3.4000  -15.4890 S.3   250  MET250     -0.1393
    132  CE       -23.3300   -5.1250  -15.6690 C.3   250  MET250      0.0692
    133  N        -16.4840   -3.2110  -14.4990 N.3   252  GLU252     -0.1231
    134  CA       -16.0560   -3.4220  -13.1170 C.3   252  GLU252      0.1699
    135  C        -16.8850   -4.5150  -12.4230 C.2   252  GLU252      0.2592
    136  O        -16.3460   -5.3620  -11.7140 O.2   252  GLU252     -0.2718
    137  CB       -16.1510   -2.1050  -12.3460 C.3   252  GLU252      0.0402
    138  CG       -15.6120   -2.1650  -10.9400 C.3   252  GLU252      0.1161
    139  CD       -15.4980   -0.7920  -10.3000 C.2   252  GLU252      0.3649
    140  OE1      -14.9350    0.1300  -10.9310 O.co2 252  GLU252     -0.2457
    141  OE2      -15.9680   -0.6440   -9.1560 O.co2 252  GLU252     -0.2457
    142  N        -18.1950   -4.4920  -12.6310 N.am  253  PHE253     -0.1976
    143  CA       -19.0640   -5.5220  -12.0810 C.3   253  PHE253      0.1639
    144  C        -18.6860   -6.9100  -12.6040 C.2   253  PHE253      0.2290
    145  O        -18.5330   -7.8480  -11.8200 O.2   253  PHE253     -0.2864
    146  CB       -20.5330   -5.2050  -12.3950 C.3   253  PHE253      0.0560
    147  CG       -21.1740   -4.1990  -11.4530 C.ar  253  PHE253     -0.0200
    148  CD1      -20.4190   -3.4560  -10.5440 C.ar  253  PHE253     -0.0042
    149  CD2      -22.5490   -3.9890  -11.4980 C.ar  253  PHE253     -0.0042
    150  CE1      -21.0270   -2.5410   -9.6920 C.ar  253  PHE253     -0.0003
    151  CE2      -23.1610   -3.0700  -10.6490 C.ar  253  PHE253     -0.0003
    152  CZ       -22.3940   -2.3430   -9.7460 C.ar  253  PHE253     -0.0000
    153  N        -15.4780   -8.5090  -11.1030 N.3   256  GLN256     -0.1245
    154  CA       -15.7490   -9.1270   -9.8020 C.3   256  GLN256      0.1566
    155  C        -16.4430  -10.4780   -9.9770 C.2   256  GLN256      0.2260
    156  O        -16.0780  -11.4470   -9.3260 O.2   256  GLN256     -0.2867
    157  CB       -16.5950   -8.2230   -8.8980 C.3   256  GLN256      0.0367
    158  CG       -16.8380   -8.8310   -7.5010 C.3   256  GLN256      0.0905
    159  CD       -17.7310   -7.9850   -6.6200 C.2   256  GLN256      0.2608
    160  OE1      -18.7060   -8.4720   -6.0500 O.2   256  GLN256     -0.2717
    161  NE2      -17.4050   -6.7100   -6.5060 N.am  256  GLN256     -0.0878
    162  N        -25.9530   -8.9150  -11.2250 N.3   270  MET270     -0.1245
    163  CA       -25.3760   -8.0190  -12.2420 C.3   270  MET270      0.1570
    164  C        -23.8890   -8.2450  -12.5390 C.2   270  MET270      0.2261
    165  O        -23.2720   -7.4290  -13.2280 O.2   270  MET270     -0.2867
    166  CB       -25.5940   -6.5460  -11.8690 C.3   270  MET270      0.0387
    167  CG       -27.0330   -6.1640  -11.6830 C.3   270  MET270      0.0595
    168  SD       -27.9500   -6.3060  -13.2200 S.3   270  MET270     -0.1393
    169  CE       -29.6120   -6.2280  -12.5730 C.3   270  MET270      0.0692
    170  N        -28.0810   -5.4370  -19.3490 N.3   278  VAL278     -0.1245
    171  CA       -27.5880   -4.1100  -18.9790 C.3   278  VAL278      0.1561
    172  C        -28.6940   -3.0590  -19.1010 C.2   278  VAL278      0.2260
    173  O        -28.9210   -2.2810  -18.1720 O.2   278  VAL278     -0.2867
    174  CB       -26.3580   -3.7080  -19.8480 C.3   278  VAL278      0.0252
    175  CG1      -25.9550   -2.2600  -19.6110 C.3   278  VAL278      0.0019
    176  CG2      -25.1810   -4.6480  -19.5700 C.3   278  VAL278      0.0019
    177  N        -31.7360   -3.4010  -16.6230 N.3   281  SER281     -0.1202
    178  CA       -31.3220   -3.1140  -15.2540 C.3   281  SER281      0.2020
    179  C        -31.1650   -1.6300  -15.0050 C.2   281  SER281      0.2618
    180  O        -31.4010   -1.1640  -13.8930 O.2   281  SER281     -0.2717
    181  CB       -30.0160   -3.8340  -14.9380 C.3   281  SER281      0.2103
    182  OG       -30.1390   -5.2140  -15.2570 O.3   281  SER281     -0.2182
    183  N        -30.7630   -0.8880  -16.0350 N.am  282  GLN282     -0.1979
    184  CA       -30.7100    0.5680  -15.9450 C.3   282  GLN282      0.1601
    185  C        -32.1090    1.1560  -15.7440 C.2   282  GLN282      0.2287
    186  O        -32.2910    2.0720  -14.9420 O.2   282  GLN282     -0.2864
    187  CB       -30.0370    1.1770  -17.1850 C.3   282  GLN282      0.0394
    188  CG       -28.5290    1.0240  -17.2150 C.3   282  GLN282      0.0908
    189  CD       -27.8700    1.4900  -15.9250 C.2   282  GLN282      0.2608
    190  OE1      -28.1260    2.5930  -15.4440 O.2   282  GLN282     -0.2717
    191  NE2      -27.0260    0.6380  -15.3530 N.am  282  GLN282     -0.0878
    192  N        -32.9950    0.3470  -12.1350 N.3   285  PHE285     -0.1241
    193  CA       -32.2170    1.2890  -11.3370 C.3   285  PHE285      0.1605
    194  C        -32.8680    2.6750  -11.3390 C.2   285  PHE285      0.2264
    195  O        -33.0320    3.2970  -10.2840 O.2   285  PHE285     -0.2867
    196  CB       -30.7960    1.3500  -11.9130 C.3   285  PHE285      0.0534
    197  CG       -29.8330    2.2260  -11.1490 C.ar  285  PHE285     -0.0203
    198  CD1      -29.7570    2.1820   -9.7600 C.ar  285  PHE285     -0.0042
    199  CD2      -28.9510    3.0530  -11.8410 C.ar  285  PHE285     -0.0042
    200  CE1      -28.8430    2.9780   -9.0700 C.ar  285  PHE285     -0.0003
    201  CE2      -28.0280    3.8420  -11.1640 C.ar  285  PHE285     -0.0003
    202  CZ       -27.9760    3.8070   -9.7720 C.ar  285  PHE285     -0.0000
    203  N        -32.2860   -7.9210  -11.3930 N.3   329  VAL329     -0.1245
    204  CA       -32.5120   -6.5180  -11.0320 C.3   329  VAL329      0.1561
    205  C        -33.0540   -6.4220   -9.6110 C.2   329  VAL329      0.2260
    206  O        -32.5080   -5.7080   -8.7700 O.2   329  VAL329     -0.2867
    207  CB       -33.4910   -5.8360  -12.0100 C.3   329  VAL329      0.0252
    208  CG1      -33.7920   -4.4070  -11.5700 C.3   329  VAL329      0.0019
    209  CG2      -32.9250   -5.8640  -13.4270 C.3   329  VAL329      0.0019
    210  N        -30.3850   -7.3030   -7.1820 N.3   332  PHE332     -0.1227
    211  CA       -29.3720   -6.2530   -7.0470 C.3   332  PHE332      0.1736
    212  C        -29.8610   -5.1420   -6.1230 C.2   332  PHE332      0.2595
    213  O        -29.1620   -4.7550   -5.1900 O.2   332  PHE332     -0.2718
    214  CB       -28.9890   -5.6610   -8.4100 C.3   332  PHE332      0.0547
    215  CG       -27.9080   -4.6090   -8.3380 C.ar  332  PHE332     -0.0202
    216  CD1      -28.2300   -3.2710   -8.1410 C.ar  332  PHE332     -0.0042
    217  CD2      -26.5690   -4.9570   -8.4680 C.ar  332  PHE332     -0.0042
    218  CE1      -27.2440   -2.3040   -8.0740 C.ar  332  PHE332     -0.0003
    219  CE2      -25.5720   -3.9940   -8.4040 C.ar  332  PHE332     -0.0003
    220  CZ       -25.9110   -2.6620   -8.2060 C.ar  332  PHE332     -0.0000
    221  N        -31.0590   -4.6350   -6.3870 N.am  333  ILE333     -0.1980
    222  CA       -31.6160   -3.5300   -5.6120 C.3   333  ILE333      0.1595
    223  C        -31.7900   -3.9200   -4.1510 C.2   333  ILE333      0.2287
    224  O        -31.3510   -3.2040   -3.2520 O.2   333  ILE333     -0.2864
    225  CB       -32.9720   -3.0760   -6.1750 C.3   333  ILE333      0.0276
    226  CG1      -32.7750   -2.4340   -7.5510 C.3   333  ILE333      0.0022
    227  CG2      -33.6480   -2.1000   -5.2260 C.3   333  ILE333      0.0022
    228  CD1      -34.0480   -1.9200   -8.1680 C.3   333  ILE333      0.0001
    229  N        -28.2270   -4.3400   -2.5110 N.3   336  THR336     -0.1203
    230  CA       -27.3170   -3.1970   -2.5800 C.3   336  THR336      0.1994
    231  C        -27.7930   -1.9760   -1.7850 C.2   336  THR336      0.2617
    232  O        -26.9800   -1.3060   -1.1460 O.2   336  THR336     -0.2717
    233  CB       -27.0840   -2.7840   -4.0440 C.3   336  THR336      0.1784
    234  OG1      -26.5730   -3.9080   -4.7750 O.3   336  THR336     -0.2211
    235  CG2      -26.1050   -1.6170   -4.1350 C.3   336  THR336      0.0376
    236  N        -29.0970   -1.6970   -1.8230 N.am  337  PHE337     -0.1975
    237  CA       -29.6400   -0.4270   -1.3150 C.3   337  PHE337      0.1639
    238  C        -30.4810   -0.5190   -0.0330 C.2   337  PHE337      0.2290
    239  O        -30.7280    0.5010    0.6080 O.2   337  PHE337     -0.2864
    240  CB       -30.4450    0.2750   -2.4130 C.3   337  PHE337      0.0560
    241  CG       -29.6540    0.5560   -3.6580 C.ar  337  PHE337     -0.0200
    242  CD1      -29.9060   -0.1430   -4.8200 C.ar  337  PHE337     -0.0042
    243  CD2      -28.6460    1.5110   -3.6650 C.ar  337  PHE337     -0.0042
    244  CE1      -29.1810    0.1080   -5.9750 C.ar  337  PHE337     -0.0003
    245  CE2      -27.9180    1.7600   -4.8210 C.ar  337  PHE337     -0.0003
    246  CZ       -28.1860    1.0600   -5.9730 C.ar  337  PHE337     -0.0000
@<TRIPOS>BOND
     1   174   175    1
     2   174   176    1
     3   174   171    1
     4    98    99    1
     5   100    99    1
     6   100   101    2
     7   170   171    1
     8   172   171    1
     9   172   173    2
    10   102    99    1
    11   102   103    1
    12   105   103   ar
    13   105   107   ar
    14   114   116    1
    15   114   115    1
    16   114   111    1
    17   103   104   ar
    18   107   108   ar
    19   112   111    1
    20   112   113    2
    21   111   110    1
    22   104   106   ar
    23   188   187    1
    24   188   189    1
    25   108   106   ar
    26   108   109    1
    27   187   184    1
    28   129   130    1
    29   129   126    1
    30   130   131    1
    31   177   178    1
    32   183   184    1
    33   183   179   am
    34   127   126    1
    35   127   128    2
    36   184   185    1
    37   189   190    2
    38   189   191   am
    39   126   125    1
    40    93    92    2
    41   185   186    2
    42   132   131    1
    43   125   119   am
    44   117   118    1
    45   182   181    1
    46   178   179    1
    47   178   181    1
    48   179   180    2
    49    92    91    1
    50   133   134    1
    51   123   121    1
    52   119   118    1
    53   119   120    2
    54   118   121    1
    55    94    91    1
    56    94    95    1
    57    91    90    1
    58   121   122    1
    59   209   207    1
    60     1     2    1
    61   165   164    2
    62   168   169    1
    63   168   167    1
    64    95    97   am
    65    95    96    2
    66   134   135    1
    67   134   137    1
    68     7     9   ar
    69     7     6   ar
    70     2     5    1
    71     2     3    1
    72   142   135   am
    73   142   143    1
    74   144   143    1
    75   144   145    2
    76   164   163    1
    77     9    11   ar
    78   135   136    2
    79   146   143    1
    80   146   147    1
    81     5     6    1
    82   137   138    1
    83   163   166    1
    84   163   162    1
    85   192   193    1
    86   122   124    1
    87   207   208    1
    88   207   204    1
    89     6     8   ar
    90   196   193    1
    91   196   197    1
    92   166   167    1
    93   199   201   ar
    94   199   197   ar
    95     4     3    2
    96     3    13   am
    97   149   147   ar
    98   149   151   ar
    99   147   148   ar
   100   203   204    1
   101   194   193    1
   102   194   195    2
   103   201   202   ar
   104   197   198   ar
   105    11    12    1
   106    11    10   ar
   107   153   154    1
   108   204   205    1
   109   138   139    1
   110   140   139   ar
   111   151   152   ar
   112     8    10   ar
   113   148   150   ar
   114    13    14    1
   115   139   141   ar
   116   155   154    1
   117   155   156    2
   118   154   157    1
   119   202   200   ar
   120   198   200   ar
   121   152   150   ar
   122   205   206    2
   123    85    84    2
   124    84    83    1
   125    14    15    1
   126    14    17    1
   127    15    16    2
   128   157   158    1
   129   217   219   ar
   130   217   215   ar
   131   214   215    1
   132   214   211    1
   133   219   220   ar
   134   215   216   ar
   135   220   218   ar
   136    19    21   ar
   137    19    18   ar
   138   228   226    1
   139   216   218   ar
   140    77    76    2
   141    83    86    1
   142    83    82    1
   143    36    35    2
   144    17    18    1
   145    21    22   ar
   146    18    20   ar
   147    34    35    1
   148    34    33    1
   149   226   225    1
   150   158   159    1
   151    76    82   am
   152    76    75    1
   153    86    87    1
   154    35    37   am
   155   210   211    1
   156    22    20   ar
   157   211   212    1
   158   159   161   am
   159   159   160    2
   160    89    87    1
   161    75    74    1
   162    75    78    1
   163   221   212   am
   164   221   222    1
   165   225   222    1
   166   225   227    1
   167   212   213    2
   168    87    88    1
   169    80    79   ar
   170    42    41    1
   171   244   246   ar
   172   244   242   ar
   173   246   245   ar
   174    26    25    2
   175    37    38    1
   176   222   223    1
   177    38    41    1
   178    38    39    1
   179    29    31   ar
   180    29    28   ar
   181    78    79    1
   182    79    81   ar
   183    31    32   ar
   184    25    24    1
   185    27    28    1
   186    27    24    1
   187    41    43    1
   188   245   243   ar
   189   242   241   ar
   190   234   233    1
   191    28    30   ar
   192    32    30   ar
   193    39    44   am
   194    39    40    2
   195   223   224    2
   196   235   233    1
   197    24    23    1
   198   233   230    1
   199    44    45    1
   200   243   241   ar
   201   241   240    1
   202    73    72    1
   203    72    71    1
   204    48    49    1
   205    48    45    1
   206    45    46    1
   207    71    70    1
   208   230   229    1
   209   230   231    1
   210   240   237    1
   211    70    67    1
   212   236   231   am
   213   236   237    1
   214   231   232    2
   215    46    47    2
   216    46    50   am
   217   237   238    1
   218    64    63    1
   219    67    68    1
   220    67    66    1
   221    50    51    1
   222    65    63    1
   223    69    68    2
   224    63    62    1
   225   238   239    2
   226    62    59    1
   227    51    52    1
   228    51    54    1
   229    52    53    2
   230    54    55    1
   231    55    56    2
   232    55    57   am
   233    59    60    1
   234    59    58    1
   235    61    60    2
