@<TRIPOS>MOLECULE
tmp/3iaiD01.pdb
 124 121 0 0 0
SMALL
GASTEIGER

@<TRIPOS>ATOM
      1  N         58.1900   75.0410  -32.2140 N.3    29  ARG29      -0.1231
      2  CA        58.6250   76.4090  -32.4690 C.3    29  ARG29       0.1679
      3  C         58.8580   77.0170  -31.0890 C.2    29  ARG29       0.2434
      4  O         57.9140   77.4000  -30.3960 O.2    29  ARG29      -0.2733
      5  CB        57.5610   77.1780  -33.2500 C.3    29  ARG29       0.0321
      6  CG        57.1800   76.4900  -34.5530 C.3    29  ARG29       0.0489
      7  CD        56.4140   77.4120  -35.4780 C.3    29  ARG29       0.2205
      8  NE        57.2580   78.5070  -35.9370 N.pl3  29  ARG29      -0.0865
      9  CZ        56.8700   79.4450  -36.7940 C.cat  29  ARG29       0.5346
     10  NH1       55.6410   79.4240  -37.2920 N.pl3  29  ARG29       0.1354
     11  NH2       57.7150   80.4020  -37.1560 N.pl3  29  ARG29       0.1354
     12  N         60.1300   77.0900  -30.6670 N.am   30  PRO30      -0.2718
     13  CA        60.5470   77.6300  -29.3700 C.3    30  PRO30       0.1535
     14  C         59.8740   78.9270  -28.9430 C.2    30  PRO30       0.2598
     15  O         59.4390   79.0530  -27.8000 O.2    30  PRO30      -0.2715
     16  CB        62.0550   77.7810  -29.5300 C.3    30  PRO30       0.0310
     17  CG        62.3970   76.6450  -30.4390 C.3    30  PRO30       0.0237
     18  CD        61.3070   76.7430  -31.4830 C.3    30  PRO30       0.0939
     19  N         59.7840   79.8840  -29.8590 N.am   31  GLN31      -0.1978
     20  CA        59.1730   81.1710  -29.5520 C.3    31  GLN31       0.1601
     21  C         57.6970   81.0500  -29.1900 C.2    31  GLN31       0.2287
     22  O         57.1750   81.8610  -28.4290 O.2    31  GLN31      -0.2864
     23  CB        59.3260   82.1280  -30.7350 C.3    31  GLN31       0.0394
     24  CG        60.7620   82.3520  -31.1790 C.3    31  GLN31       0.0908
     25  CD        61.6710   82.7510  -30.0340 C.2    31  GLN31       0.2608
     26  OE1       61.3360   83.6270  -29.2350 O.2    31  GLN31      -0.2717
     27  NE2       62.8360   82.1150  -29.9550 N.am   31  GLN31      -0.0878
     28  N         62.5700   71.1300  -34.9360 N.3   103  VAL103     -0.1231
     29  CA        62.5740   72.3760  -34.1870 C.3   103  VAL103      0.1692
     30  C         62.7290   73.5130  -35.1870 C.2   103  VAL103      0.2591
     31  O         63.7530   73.6200  -35.8600 O.2   103  VAL103     -0.2718
     32  CB        63.7300   72.4260  -33.1670 C.3   103  VAL103      0.0266
     33  CG1       63.7270   73.7710  -32.4510 C.3   103  VAL103      0.0020
     34  CG2       63.5820   71.2920  -32.1500 C.3   103  VAL103      0.0020
     35  N         61.6990   74.3460  -35.2890 N.am  104  GLU104     -0.1979
     36  CA        61.7010   75.4680  -36.2170 C.3   104  GLU104      0.1602
     37  C         61.9180   74.9410  -37.6370 C.2   104  GLU104      0.2287
     38  O         62.6200   75.5520  -38.4370 O.2   104  GLU104     -0.2864
     39  CB        62.8060   76.4620  -35.8440 C.3   104  GLU104      0.0415
     40  CG        62.6030   77.8790  -36.3780 C.3   104  GLU104      0.1163
     41  CD        61.3370   78.5310  -35.8430 C.2   104  GLU104      0.3649
     42  OE1       60.9680   78.2590  -34.6810 O.co2 104  GLU104     -0.2457
     43  OE2       60.7150   79.3290  -36.5770 O.co2 104  GLU104     -0.2457
     44  N         66.7060   66.8570  -37.2440 N.3   108  PHE108     -0.1241
     45  CA        68.0210   66.4310  -36.7840 C.3   108  PHE108      0.1605
     46  C         68.3680   65.0580  -37.3550 C.2   108  PHE108      0.2264
     47  O         67.4880   64.3160  -37.8000 O.2   108  PHE108     -0.2867
     48  CB        68.0600   66.3940  -35.2500 C.3   108  PHE108      0.0534
     49  CG        67.7800   67.7250  -34.6060 C.ar  108  PHE108     -0.0203
     50  CD1       66.4810   68.2170  -34.5300 C.ar  108  PHE108     -0.0042
     51  CD2       68.8210   68.5030  -34.1040 C.ar  108  PHE108     -0.0042
     52  CE1       66.2190   69.4700  -33.9650 C.ar  108  PHE108     -0.0003
     53  CE2       68.5700   69.7600  -33.5360 C.ar  108  PHE108     -0.0003
     54  CZ        67.2670   70.2420  -33.4680 C.ar  108  PHE108     -0.0000
     55  N         67.3290   64.4450  -29.3730 N.3   140  PHE140     -0.1241
     56  CA        67.8710   64.5020  -30.7210 C.3   140  PHE140      0.1605
     57  C         69.3370   64.0880  -30.7320 C.2   140  PHE140      0.2264
     58  O         70.0880   64.4110  -29.8130 O.2   140  PHE140     -0.2867
     59  CB        67.7660   65.9200  -31.2800 C.3   140  PHE140      0.0534
     60  CG        66.3600   66.4360  -31.3760 C.ar  140  PHE140     -0.0203
     61  CD1       65.9510   67.5190  -30.6030 C.ar  140  PHE140     -0.0042
     62  CD2       65.4470   65.8470  -32.2430 C.ar  140  PHE140     -0.0042
     63  CE1       64.6500   68.0110  -30.6910 C.ar  140  PHE140     -0.0003
     64  CE2       64.1430   66.3300  -32.3410 C.ar  140  PHE140     -0.0003
     65  CZ        63.7450   67.4160  -31.5600 C.ar  140  PHE140     -0.0000
     66  N         65.8430   71.3390  -18.8460 N.3   185  ARG185     -0.1245
     67  CA        65.4370   72.0820  -20.0450 C.3   185  ARG185      0.1563
     68  C         64.7630   71.1740  -21.0600 C.2   185  ARG185      0.2260
     69  O         65.4230   70.3680  -21.7230 O.2   185  ARG185     -0.2867
     70  CB        66.6400   72.7450  -20.7260 C.3   185  ARG185      0.0307
     71  CG        67.6690   73.3530  -19.7940 C.3   185  ARG185      0.0489
     72  CD        67.9260   74.8150  -20.1160 C.3   185  ARG185      0.2205
     73  NE        67.9890   75.1030  -21.5490 N.pl3 185  ARG185     -0.0865
     74  CZ        67.8680   76.3300  -22.0540 C.cat 185  ARG185      0.5346
     75  NH1       67.6850   77.3600  -21.2360 N.pl3 185  ARG185      0.1354
     76  NH2       67.9090   76.5340  -23.3670 N.pl3 185  ARG185      0.1354
     77  N         60.8180   70.5250  -23.6070 N.3   187  PHE187     -0.1241
     78  CA        59.5100   70.9180  -24.1060 C.3   187  PHE187      0.1605
     79  C         58.5950   69.7500  -23.7500 C.2   187  PHE187      0.2264
     80  O         59.0500   68.6090  -23.6450 O.2   187  PHE187     -0.2867
     81  CB        59.5200   71.0960  -25.6300 C.3   187  PHE187      0.0534
     82  CG        60.4170   72.1950  -26.1080 C.ar  187  PHE187     -0.0203
     83  CD1       61.6490   71.9030  -26.6930 C.ar  187  PHE187     -0.0042
     84  CD2       60.0370   73.5280  -25.9660 C.ar  187  PHE187     -0.0042
     85  CE1       62.4880   72.9180  -27.1310 C.ar  187  PHE187     -0.0003
     86  CE2       60.8710   74.5550  -26.4010 C.ar  187  PHE187     -0.0003
     87  CZ        62.1000   74.2500  -26.9840 C.ar  187  PHE187     -0.0000
     88  N         63.9020   66.7820  -24.8740 N.3   207  PHE207     -0.1227
     89  CA        65.0250   67.5230  -24.3130 C.3   207  PHE207      0.1736
     90  C         65.4330   68.6790  -25.2050 C.2   207  PHE207      0.2595
     91  O         65.4610   68.5560  -26.4360 O.2   207  PHE207     -0.2718
     92  CB        66.2370   66.6160  -24.0930 C.3   207  PHE207      0.0547
     93  CG        66.0610   65.6240  -22.9800 C.ar  207  PHE207     -0.0202
     94  CD1       65.6450   64.3250  -23.2460 C.ar  207  PHE207     -0.0042
     95  CD2       66.3110   65.9910  -21.6640 C.ar  207  PHE207     -0.0042
     96  CE1       65.4820   63.4020  -22.2160 C.ar  207  PHE207     -0.0003
     97  CE2       66.1490   65.0740  -20.6250 C.ar  207  PHE207     -0.0003
     98  CZ        65.7340   63.7750  -20.9030 C.ar  207  PHE207     -0.0000
     99  N         65.7490   69.8070  -24.5790 N.am  208  ASN208     -0.1974
    100  CA        66.1750   70.9710  -25.3290 C.3   208  ASN208      0.1688
    101  C         67.6330   70.8240  -25.7630 C.2   208  ASN208      0.2292
    102  O         68.0500   71.3950  -26.7660 O.2   208  ASN208     -0.2864
    103  CB        66.0300   72.2610  -24.5200 C.3   208  ASN208      0.1181
    104  CG        66.4690   73.5160  -25.3120 C.2   208  ASN208      0.2629
    105  OD1       67.3000   74.2280  -24.7380 O.2   208  ASN208     -0.2716
    106  ND2       66.0420   73.7990  -26.5100 N.am  208  ASN208     -0.0877
    107  N         70.8480   68.4720  -27.0250 N.3   210  THR210     -0.1218
    108  CA        71.0340   67.2930  -27.8520 C.3   210  THR210      0.1862
    109  C         72.2260   66.4760  -27.3740 C.2   210  THR210      0.2287
    110  O         72.9380   66.8760  -26.4500 O.2   210  THR210     -0.2866
    111  CB        71.2810   67.7050  -29.3150 C.3   210  THR210      0.1770
    112  OG1       72.5410   68.3840  -29.4130 O.3   210  THR210     -0.2211
    113  CG2       70.1840   68.6520  -29.7900 C.3   210  THR210      0.0375
    114  N         61.6810   76.1320  -19.4660 N.3   252  PHE252     -0.1241
    115  CA        62.6210   77.2330  -19.3020 C.3   252  PHE252      0.1605
    116  C         62.1020   78.4800  -20.0140 C.2   252  PHE252      0.2264
    117  O         61.4100   78.3810  -21.0260 O.2   252  PHE252     -0.2867
    118  CB        63.9870   76.8410  -19.8710 C.3   252  PHE252      0.0534
    119  CG        63.9270   76.3420  -21.2900 C.ar  252  PHE252     -0.0203
    120  CD1       63.4800   75.0540  -21.5700 C.ar  252  PHE252     -0.0042
    121  CD2       64.2840   77.1740  -22.3510 C.ar  252  PHE252     -0.0042
    122  CE1       63.3850   74.5990  -22.8810 C.ar  252  PHE252     -0.0003
    123  CE2       64.1920   76.7320  -23.6700 C.ar  252  PHE252     -0.0003
    124  CZ        63.7410   75.4410  -23.9360 C.ar  252  PHE252     -0.0000
@<TRIPOS>BOND
     1    38    37    2
     2    47    46    2
     3    37    36    1
     4    46    45    1
     5    10     9    1
     6    44    45    1
     7    11     9    1
     8     9     8    2
     9    45    48    1
    10    43    41   ar
    11    40    39    1
    12    40    41    1
    13    36    39    1
    14    36    35    1
    15     8     7    1
    16    31    30    2
    17    41    42   ar
    18     7     6    1
    19    35    30   am
    20    48    49    1
    21    30    29    1
    22    28    29    1
    23    49    50   ar
    24    49    51   ar
    25     6     5    1
    26    50    52   ar
    27    29    32    1
    28    51    53   ar
    29    52    54   ar
    30    53    54   ar
    31     5     2    1
    32    32    33    1
    33    32    34    1
    34     2     1    1
    35     2     3    1
    36    64    62   ar
    37    64    65   ar
    38    62    60   ar
    39    65    63   ar
    40    18    12    1
    41    18    17    1
    42    60    59    1
    43    60    61   ar
    44    59    56    1
    45    24    23    1
    46    24    25    1
    47     3    12   am
    48     3     4    2
    49    23    20    1
    50    57    56    1
    51    57    58    2
    52    56    55    1
    53    63    61   ar
    54    12    13    1
    55    17    16    1
    56    25    27   am
    57    25    26    2
    58    19    20    1
    59    19    14   am
    60   113   111    1
    61    20    21    1
    62    16    13    1
    63   112   111    1
    64    13    14    1
    65   111   108    1
    66    21    22    2
    67    14    15    2
    68   108   109    1
    69   108   107    1
    70   109   110    2
    71    85    87   ar
    72    85    83   ar
    73    87    86   ar
    74   102   101    2
    75    83    82   ar
    76   106   104   am
    77    91    90    2
    78    86    84   ar
    79    82    84   ar
    80    82    81    1
    81   101   100    1
    82    81    78    1
    83   100    99    1
    84   100   103    1
    85   104   105    2
    86   104   103    1
    87    90    99   am
    88    90    89    1
    89    88    89    1
    90    89    92    1
    91    78    79    1
    92    78    77    1
    93    92    93    1
    94   124   123   ar
    95   124   122   ar
    96    79    80    2
    97   123   121   ar
    98    76    74    1
    99    94    93   ar
   100    94    96   ar
   101    93    95   ar
   102   122   120   ar
   103   121   119   ar
   104    96    98   ar
   105    74    73    2
   106    74    75    1
   107    69    68    2
   108    95    97   ar
   109   120   119   ar
   110    73    72    1
   111   119   118    1
   112    68    67    1
   113   117   116    2
   114    98    97   ar
   115    70    67    1
   116    70    71    1
   117    72    71    1
   118    67    66    1
   119   116   115    1
   120   118   115    1
   121   114   115    1
