@<TRIPOS>MOLECULE
tmp/3iaiD00.pdb
 134 130 0 0 0
SMALL
GASTEIGER

@<TRIPOS>ATOM
      1  N         60.2260   51.0380  -20.0950 N.3    85  LEU85      -0.1231
      2  CA        59.9330   49.7300  -20.6790 C.3    85  LEU85       0.1693
      3  C         60.9600   49.3580  -21.7410 C.2    85  LEU85       0.2591
      4  O         61.4240   48.2180  -21.8050 O.2    85  LEU85      -0.2718
      5  CB        58.5530   49.7340  -21.3430 C.3    85  LEU85       0.0284
      6  CG        57.3120   50.0950  -20.5260 C.3    85  LEU85       0.0019
      7  CD1       56.1050   50.1270  -21.4580 C.3    85  LEU85       0.0001
      8  CD2       57.1020   49.0770  -19.4100 C.3    85  LEU85       0.0001
      9  N         61.3010   50.3310  -22.5790 N.am   86  GLN86      -0.1979
     10  CA        62.2350   50.1070  -23.6730 C.3    86  GLN86       0.1601
     11  C         62.6350   51.4230  -24.3010 C.2    86  GLN86       0.2287
     12  O         62.0520   52.4690  -24.0100 O.2    86  GLN86      -0.2864
     13  CB        61.5690   49.2410  -24.7500 C.3    86  GLN86       0.0394
     14  CG        60.2010   49.7780  -25.1990 C.3    86  GLN86       0.0908
     15  CD        60.2290   50.5430  -26.5260 C.2    86  GLN86       0.2608
     16  OE1       61.2450   51.1300  -26.9110 O.2    86  GLN86      -0.2717
     17  NE2       59.0930   50.5500  -27.2240 N.am   86  GLN86      -0.0878
     18  N         64.2630   52.9630  -28.2740 N.3    88  HIS88      -0.1241
     19  CA        64.5130   52.6330  -29.6710 C.3    88  HIS88       0.1621
     20  C         64.8920   53.9290  -30.3610 C.2    88  HIS88       0.2264
     21  O         64.8860   54.9930  -29.7350 O.2    88  HIS88      -0.2867
     22  CB        63.2630   52.0310  -30.3310 C.3    88  HIS88       0.0745
     23  CG        62.0550   52.9100  -30.2410 C.ar   88  HIS88       0.0817
     24  ND1       61.2160   52.9110  -29.1480 N.ar   88  HIS88      -0.2268
     25  CD2       61.5830   53.8630  -31.0800 C.ar   88  HIS88       0.1154
     26  CE1       60.2780   53.8280  -29.3160 C.ar   88  HIS88       0.1986
     27  NE2       60.4780   54.4200  -30.4790 N.ar   88  HIS88      -0.2212
     28  N         65.0740   56.4550  -34.2280 N.3    90  HIS90      -0.1241
     29  CA        64.5430   56.8210  -35.5320 C.3    90  HIS90       0.1621
     30  C         65.6780   57.5430  -36.2380 C.2    90  HIS90       0.2264
     31  O         66.3400   58.3930  -35.6380 O.2    90  HIS90      -0.2867
     32  CB        63.3340   57.7360  -35.3690 C.3    90  HIS90       0.0745
     33  CG        62.1860   57.0810  -34.6650 C.ar   90  HIS90       0.0817
     34  ND1       61.2670   56.2910  -35.3180 N.ar   90  HIS90      -0.2268
     35  CD2       61.8310   57.0740  -33.3590 C.ar   90  HIS90       0.1154
     36  CE1       60.3890   55.8260  -34.4440 C.ar   90  HIS90       0.1986
     37  NE2       60.7090   56.2860  -33.2490 N.ar   90  HIS90      -0.2212
     38  N         64.1470   57.4350  -28.3390 N.3   113  HIS113     -0.1241
     39  CA        62.9210   57.4360  -27.5510 C.3   113  HIS113      0.1621
     40  C         62.9860   56.4280  -26.4080 C.2   113  HIS113      0.2264
     41  O         63.2690   55.2520  -26.6310 O.2   113  HIS113     -0.2867
     42  CB        61.7150   57.0770  -28.4290 C.3   113  HIS113      0.0745
     43  CG        61.3390   58.1350  -29.4170 C.ar  113  HIS113      0.0817
     44  ND1       60.4690   57.8980  -30.4610 N.ar  113  HIS113     -0.2268
     45  CD2       61.6950   59.4370  -29.5120 C.ar  113  HIS113      0.1154
     46  CE1       60.3080   59.0090  -31.1570 C.ar  113  HIS113      0.1986
     47  NE2       61.0410   59.9580  -30.6030 N.ar  113  HIS113     -0.2212
     48  N         60.5680   54.8660  -23.8390 N.3   115  VAL115     -0.1245
     49  CA        59.1500   54.6940  -23.5370 C.3   115  VAL115      0.1561
     50  C         58.8960   54.2580  -22.0970 C.2   115  VAL115      0.2260
     51  O         59.5060   53.3030  -21.6090 O.2   115  VAL115     -0.2867
     52  CB        58.5280   53.6610  -24.5170 C.3   115  VAL115      0.0252
     53  CG1       57.0190   53.5750  -24.3210 C.3   115  VAL115      0.0019
     54  CG2       58.8640   54.0540  -25.9550 C.3   115  VAL115      0.0019
     55  N         50.7870   47.7060  -20.5340 N.3   124  VAL124     -0.1245
     56  CA        50.7350   48.6790  -21.6100 C.3   124  VAL124      0.1561
     57  C         49.3640   48.7600  -22.2740 C.2   124  VAL124      0.2260
     58  O         48.8850   49.8550  -22.5630 O.2   124  VAL124     -0.2867
     59  CB        51.8000   48.3690  -22.6880 C.3   124  VAL124      0.0252
     60  CG1       51.5500   49.2110  -23.9350 C.3   124  VAL124      0.0019
     61  CG2       53.1870   48.6600  -22.1330 C.3   124  VAL124      0.0019
     62  N         47.2750   52.3190  -23.1390 N.3   128  LEU128     -0.1245
     63  CA        47.0270   52.8170  -24.4900 C.3   128  LEU128      0.1561
     64  C         45.7400   53.6230  -24.5890 C.2   128  LEU128      0.2260
     65  O         44.6690   53.1470  -24.2060 O.2   128  LEU128     -0.2867
     66  CB        46.9700   51.6610  -25.4910 C.3   128  LEU128      0.0270
     67  CG        48.2960   50.9950  -25.8550 C.3   128  LEU128      0.0019
     68  CD1       48.0280   49.7980  -26.7610 C.3   128  LEU128      0.0001
     69  CD2       49.2040   52.0020  -26.5510 C.3   128  LEU128      0.0001
     70  N         51.1130   56.5570  -21.0440 N.3   134  LEU134     -0.1245
     71  CA        52.4510   56.3520  -21.5750 C.3   134  LEU134      0.1561
     72  C         53.1550   57.7020  -21.6500 C.2   134  LEU134      0.2260
     73  O         52.5290   58.7280  -21.9300 O.2   134  LEU134     -0.2867
     74  CB        52.3820   55.7210  -22.9700 C.3   134  LEU134      0.0270
     75  CG        51.7320   54.3350  -23.0610 C.3   134  LEU134      0.0019
     76  CD1       51.5910   53.9170  -24.5160 C.3   134  LEU134      0.0001
     77  CD2       52.5790   53.3220  -22.2950 C.3   134  LEU134      0.0001
     78  N         56.9230   59.3780  -23.1270 N.3   136  VAL136     -0.1245
     79  CA        58.1390   59.1270  -23.8790 C.3   136  VAL136      0.1561
     80  C         59.1300   60.2780  -23.7170 C.2   136  VAL136      0.2260
     81  O         58.7560   61.4490  -23.8160 O.2   136  VAL136     -0.2867
     82  CB        57.8250   58.9450  -25.3870 C.3   136  VAL136      0.0252
     83  CG1       59.0930   58.5770  -26.1480 C.3   136  VAL136      0.0019
     84  CG2       56.7630   57.8680  -25.5750 C.3   136  VAL136      0.0019
     85  N         51.4570   57.9020  -30.1480 N.3   193  LEU193     -0.1231
     86  CA        52.5920   57.0670  -30.5080 C.3   193  LEU193      0.1693
     87  C         52.8400   57.4570  -31.9670 C.2   193  LEU193      0.2593
     88  O         51.8970   57.8310  -32.6700 O.2   193  LEU193     -0.2718
     89  CB        52.2220   55.5850  -30.4090 C.3   193  LEU193      0.0284
     90  CG        51.9260   55.0710  -28.9980 C.3   193  LEU193      0.0019
     91  CD1       51.4570   53.6190  -29.0550 C.3   193  LEU193      0.0001
     92  CD2       53.1800   55.1990  -28.1460 C.3   193  LEU193      0.0001
     93  N         54.0870   57.3800  -32.4260 N.am  194  THR194     -0.1939
     94  CA        54.3950   57.7610  -33.8010 C.3   194  THR194      0.2028
     95  C         54.2830   56.6140  -34.7990 C.2   194  THR194      0.2643
     96  O         54.6070   56.7730  -35.9730 O.2   194  THR194     -0.2714
     97  CB        55.8000   58.3970  -33.9090 C.3   194  THR194      0.1808
     98  OG1       56.8010   57.4240  -33.5900 O.3   194  THR194     -0.2208
     99  CG2       55.9160   59.5700  -32.9470 C.3   194  THR194      0.0379
    100  N         53.8270   55.4580  -34.3270 N.am  195  THR195     -0.1937
    101  CA        53.6320   54.3000  -35.1910 C.3   195  THR195      0.2013
    102  C         52.3170   53.6560  -34.7640 C.2   195  THR195      0.2484
    103  O         51.8650   53.8570  -33.6350 O.2   195  THR195     -0.2729
    104  CB        54.7700   53.2480  -35.0420 C.3   195  THR195      0.1807
    105  OG1       54.7690   52.7220  -33.7100 O.3   195  THR195     -0.2208
    106  CG2       56.1290   53.8720  -35.3370 C.3   195  THR195      0.0379
    107  N         51.6740   52.8910  -35.6630 N.am  196  PRO196     -0.2715
    108  CA        50.4070   52.2390  -35.3140 C.3   196  PRO196      0.1521
    109  C         50.5830   51.4790  -33.9990 C.2   196  PRO196      0.2440
    110  O         51.6390   50.8950  -33.7630 O.2   196  PRO196     -0.2731
    111  CB        50.1740   51.2960  -36.4930 C.3   196  PRO196      0.0310
    112  CG        50.7870   52.0450  -37.6460 C.3   196  PRO196      0.0237
    113  CD        52.0760   52.5720  -37.0460 C.3   196  PRO196      0.0939
    114  N         49.5460   51.4360  -33.1430 N.am  197  PRO197     -0.2727
    115  CA        48.1940   52.0020  -33.2550 C.3   197  PRO197      0.1402
    116  C         48.0520   53.5210  -33.1140 C.2   197  PRO197      0.2269
    117  O         46.9350   54.0390  -33.1240 O.2   197  PRO197     -0.2865
    118  CB        47.4250   51.2570  -32.1690 C.3   197  PRO197      0.0296
    119  CG        48.4540   51.1370  -31.0860 C.3   197  PRO197      0.0237
    120  CD        49.7030   50.7200  -31.8600 C.3   197  PRO197      0.0939
    121  N         54.6080   63.6210  -24.2900 N.3   204  TRP204     -0.1241
    122  CA        55.9220   63.7210  -24.9070 C.3   204  TRP204      0.1605
    123  C         56.7860   64.7740  -24.2230 C.2   204  TRP204      0.2264
    124  O         56.3490   65.9040  -24.0000 O.2   204  TRP204     -0.2867
    125  CB        55.8040   64.0610  -26.4020 C.3   204  TRP204      0.0550
    126  CG        55.4170   62.8910  -27.2660 C.ar  204  TRP204      0.0003
    127  CD1       54.1550   62.4990  -27.6050 C.ar  204  TRP204      0.0946
    128  CD2       56.3060   61.9300  -27.8490 C.ar  204  TRP204      0.0152
    129  NE1       54.2000   61.3500  -28.3610 N.ar  204  TRP204     -0.2442
    130  CE2       55.5080   60.9790  -28.5270 C.ar  204  TRP204      0.0810
    131  CE3       57.7010   61.7800  -27.8630 C.ar  204  TRP204      0.0012
    132  CZ2       56.0580   59.8890  -29.2130 C.ar  204  TRP204      0.0191
    133  CZ3       58.2490   60.6940  -28.5480 C.ar  204  TRP204      0.0001
    134  CH2       57.4250   59.7640  -29.2120 C.ar  204  TRP204      0.0015
@<TRIPOS>BOND
     1   112   113    1
     2   112   111    1
     3   113   107    1
     4   111   108    1
     5    30    31    2
     6    30    29    1
     7    96    95    2
     8   107   108    1
     9   107   102   am
    10    29    32    1
    11    29    28    1
    12    32    33    1
    13   106   104    1
    14    34    33   ar
    15    34    36   ar
    16   108   109    1
    17   101   104    1
    18   101   102    1
    19   101   100    1
    20   104   105    1
    21    95   100   am
    22    95    94    1
    23   102   103    2
    24    33    35   ar
    25    36    37   ar
    26   109   110    2
    27   109   114   am
    28    97    94    1
    29    97    98    1
    30    97    99    1
    31    94    93    1
    32    35    37   ar
    33   115   114    1
    34   115   116    1
    35   115   118    1
    36   114   120    1
    37   117   116    2
    38    88    87    2
    39    93    87   am
    40   118   119    1
    41    87    86    1
    42   120   119    1
    43    46    47   ar
    44    46    44   ar
    45    25    27   ar
    46    25    23   ar
    47    47    45   ar
    48    86    89    1
    49    86    85    1
    50    27    26   ar
    51    44    43   ar
    52    89    90    1
    53    20    21    2
    54    20    19    1
    55    22    23    1
    56    22    19    1
    57    23    24   ar
    58    19    18    1
    59    45    43   ar
    60    43    42    1
    61    26    24   ar
    62   132   134   ar
    63   132   130   ar
    64   134   133   ar
    65    91    90    1
    66    90    92    1
    67   133   131   ar
    68   130   129   ar
    69   130   128   ar
    70    42    39    1
    71   129   127   ar
    72    38    39    1
    73   131   128   ar
    74   128   126   ar
    75   127   126   ar
    76    39    40    1
    77   126   125    1
    78    17    15   am
    79    16    15    2
    80    68    67    1
    81    41    40    2
    82    69    67    1
    83    15    14    1
    84   125   122    1
    85    83    82    1
    86    54    52    1
    87    67    66    1
    88    84    82    1
    89    66    63    1
    90    82    79    1
    91    14    13    1
    92   122   121    1
    93   122   123    1
    94    13    10    1
    95    64    63    1
    96    64    65    2
    97    52    53    1
    98    52    49    1
    99    76    75    1
   100    63    62    1
   101    11    12    2
   102    11    10    1
   103   123   124    2
   104    60    59    1
   105    79    80    1
   106    79    78    1
   107    48    49    1
   108    81    80    2
   109    10     9    1
   110    49    50    1
   111    75    74    1
   112    75    77    1
   113    74    71    1
   114    59    61    1
   115    59    56    1
   116     9     3   am
   117    58    57    2
   118    57    56    1
   119    50    51    2
   120    73    72    2
   121     4     3    2
   122     3     2    1
   123    72    71    1
   124    56    55    1
   125    71    70    1
   126     7     6    1
   127     5     2    1
   128     5     6    1
   129     2     1    1
   130     6     8    1
