@<TRIPOS>MOLECULE
tmp/3iakA00.pdb
 168 163 0 0 0
SMALL
GASTEIGER

@<TRIPOS>ATOM
      1  N         33.7220   -6.3180   13.4450 N.3    75  TYR75      -0.1227
      2  CA        32.5120   -5.4900   13.4280 C.3    75  TYR75       0.1736
      3  C         32.5750   -4.2890   14.3640 C.2    75  TYR75       0.2595
      4  O         32.3910   -3.1580   13.9250 O.2    75  TYR75      -0.2718
      5  CB        31.2710   -6.3340   13.7320 C.3    75  TYR75       0.0548
      6  CG        29.9740   -5.5580   13.6860 C.ar   75  TYR75      -0.0200
      7  CD1       29.2230   -5.4840   12.5120 C.ar   75  TYR75      -0.0009
      8  CD2       29.4920   -4.9030   14.8170 C.ar   75  TYR75      -0.0009
      9  CE1       28.0280   -4.7740   12.4660 C.ar   75  TYR75       0.0417
     10  CE2       28.3040   -4.1920   14.7840 C.ar   75  TYR75       0.0417
     11  CZ        27.5770   -4.1290   13.6060 C.ar   75  TYR75       0.1957
     12  OH        26.3990   -3.4180   13.5810 O.3    75  TYR75      -0.2866
     13  N         32.8200   -4.5340   15.6490 N.am   76  HIS76      -0.1975
     14  CA        32.8010   -3.4690   16.6500 C.3    76  HIS76       0.1656
     15  C         34.0930   -2.6530   16.6320 C.2    76  HIS76       0.2291
     16  O         34.8840   -2.6830   17.5830 O.2    76  HIS76      -0.2864
     17  CB        32.5290   -4.0400   18.0400 C.3    76  HIS76       0.0771
     18  CG        31.1620   -4.6260   18.1960 C.ar   76  HIS76       0.0820
     19  ND1       30.9280   -5.9840   18.1740 N.ar   76  HIS76      -0.2267
     20  CD2       29.9540   -4.0390   18.3740 C.ar   76  HIS76       0.1154
     21  CE1       29.6360   -6.2090   18.3340 C.ar   76  HIS76       0.1986
     22  NE2       29.0230   -5.0450   18.4560 N.ar   76  HIS76      -0.2212
     23  N         32.2280    0.9390   12.1720 N.3    80  HIS80      -0.1241
     24  CA        30.9180    0.8260   12.8220 C.3    80  HIS80       0.1621
     25  C         30.6150    2.0560   13.6770 C.2    80  HIS80       0.2264
     26  O         29.4900    2.5530   13.6870 O.2    80  HIS80      -0.2867
     27  CB        30.8710   -0.4330   13.6830 C.3    80  HIS80       0.0745
     28  CG        29.6730   -0.5140   14.5740 C.ar   80  HIS80       0.0817
     29  ND1       28.4260   -0.8800   14.1140 N.ar   80  HIS80      -0.2268
     30  CD2       29.5320   -0.2850   15.9010 C.ar   80  HIS80       0.1154
     31  CE1       27.5680   -0.8700   15.1190 C.ar   80  HIS80       0.1986
     32  NE2       28.2140   -0.5120   16.2150 N.ar   80  HIS80      -0.2212
     33  N         22.3010   -4.5370   24.7730 N.3   189  MET189     -0.1245
     34  CA        21.2650   -5.2890   24.0710 C.3   189  MET189      0.1570
     35  C         20.2510   -5.9580   25.0020 C.2   189  MET189      0.2261
     36  O         19.1340   -6.2600   24.5880 O.2   189  MET189     -0.2867
     37  CB        21.8740   -6.3140   23.1070 C.3   189  MET189      0.0387
     38  CG        22.7740   -5.7430   21.9940 C.3   189  MET189      0.0595
     39  SD        22.1510   -4.3940   20.9350 S.3   189  MET189     -0.1393
     40  CE        20.4480   -4.8590   20.6080 C.3   189  MET189      0.0692
     41  N         17.1230   -3.7810   25.2940 N.3   192  HIS192     -0.1241
     42  CA        16.3140   -3.6170   24.0830 C.3   192  HIS192      0.1621
     43  C         14.8080   -3.7200   24.3370 C.2   192  HIS192      0.2264
     44  O         14.0430   -2.8610   23.8940 O.2   192  HIS192     -0.2867
     45  CB        16.7480   -4.6160   23.0020 C.3   192  HIS192      0.0745
     46  CG        15.8320   -4.6640   21.8170 C.ar  192  HIS192      0.0817
     47  ND1       15.8770   -3.7330   20.8010 N.ar  192  HIS192     -0.2268
     48  CD2       14.8450   -5.5300   21.4880 C.ar  192  HIS192      0.1154
     49  CE1       14.9570   -4.0230   19.8990 C.ar  192  HIS192      0.1986
     50  NE2       14.3160   -5.1090   20.2930 N.ar  192  HIS192     -0.2212
     51  N         22.3740    2.0450   16.0680 N.3   234  ASP234     -0.1225
     52  CA        23.1840    0.8750   16.3910 C.3   234  ASP234      0.1805
     53  C         22.6610   -0.3710   15.6770 C.2   234  ASP234      0.2597
     54  O         23.4320   -1.2760   15.3650 O.2   234  ASP234     -0.2718
     55  CB        23.2070    0.6520   17.9090 C.3   234  ASP234      0.1424
     56  CG        24.3610   -0.2300   18.3610 C.2   234  ASP234      0.3668
     57  OD1       25.5310    0.1780   18.2020 O.co2 234  ASP234     -0.2456
     58  OD2       24.0950   -1.3280   18.8940 O.co2 234  ASP234     -0.2456
     59  N         21.3540   -0.4080   15.4220 N.am  235  LEU235     -0.1979
     60  CA        20.7250   -1.5270   14.7170 C.3   235  LEU235      0.1596
     61  C         20.1600   -1.0730   13.3730 C.2   235  LEU235      0.2287
     62  O         18.9900   -1.3110   13.0650 O.2   235  LEU235     -0.2864
     63  CB        19.6180   -2.1600   15.5740 C.3   235  LEU235      0.0297
     64  CG        19.9710   -2.7210   16.9550 C.3   235  LEU235      0.0022
     65  CD1       18.7100   -3.1290   17.6910 C.3   235  LEU235      0.0001
     66  CD2       20.9300   -3.8960   16.8500 C.3   235  LEU235      0.0001
     67  N         22.0640   -1.4760   10.2720 N.3   237  ASN237     -0.1240
     68  CA        22.6500   -2.2460    9.1710 C.3   237  ASN237      0.1653
     69  C         21.6140   -2.8000    8.1890 C.2   237  ASN237      0.2266
     70  O         21.7480   -2.5950    6.9830 O.2   237  ASN237     -0.2867
     71  CB        23.5400   -3.3800    9.6880 C.3   237  ASN237      0.1155
     72  CG        24.7060   -2.8850   10.5160 C.2   237  ASN237      0.2627
     73  OD1       25.3260   -3.6620   11.2350 O.2   237  ASN237     -0.2716
     74  ND2       25.0180   -1.5960   10.4170 N.am  237  ASN237     -0.0877
     75  N         24.6830   -3.5060    3.7940 N.3   245  TYR245     -0.1241
     76  CA        24.1360   -4.4750    4.7400 C.3   245  TYR245      0.1605
     77  C         24.8990   -5.8020    4.7320 C.2   245  TYR245      0.2264
     78  O         25.2240   -6.3440    5.7930 O.2   245  TYR245     -0.2867
     79  CB        22.6430   -4.6810    4.4490 C.3   245  TYR245      0.0534
     80  CG        21.9000   -5.6660    5.3330 C.ar  245  TYR245     -0.0201
     81  CD1       22.4060   -6.0750    6.5690 C.ar  245  TYR245     -0.0009
     82  CD2       20.6590   -6.1570    4.9420 C.ar  245  TYR245     -0.0009
     83  CE1       21.7110   -6.9730    7.3730 C.ar  245  TYR245      0.0417
     84  CE2       19.9510   -7.0470    5.7390 C.ar  245  TYR245      0.0417
     85  CZ        20.4820   -7.4540    6.9510 C.ar  245  TYR245      0.1957
     86  OH        19.7770   -8.3410    7.7320 O.3   245  TYR245     -0.2866
     87  N         28.2610   -5.5950    6.4470 N.3   248  TRP248     -0.1227
     88  CA        28.0360   -5.5390    7.8920 C.3   248  TRP248      0.1737
     89  C         27.7230   -6.9260    8.4430 C.2   248  TRP248      0.2596
     90  O         28.1530   -7.2800    9.5440 O.2   248  TRP248     -0.2718
     91  CB        26.9100   -4.5580    8.2430 C.3   248  TRP248      0.0564
     92  CG        27.2970   -3.1020    8.1450 C.ar  248  TRP248      0.0003
     93  CD1       26.6350   -2.1260    7.4600 C.ar  248  TRP248      0.0946
     94  CD2       28.4310   -2.4640    8.7520 C.ar  248  TRP248      0.0152
     95  NE1       27.2840   -0.9220    7.5970 N.ar  248  TRP248     -0.2442
     96  CE2       28.3890   -1.1030    8.3860 C.ar  248  TRP248      0.0810
     97  CE3       29.4780   -2.9120    9.5700 C.ar  248  TRP248      0.0012
     98  CZ2       29.3550   -0.1850    8.8070 C.ar  248  TRP248      0.0191
     99  CZ3       30.4340   -2.0010    9.9880 C.ar  248  TRP248      0.0001
    100  CH2       30.3660   -0.6530    9.6070 C.ar  248  TRP248      0.0015
    101  N         26.9870   -7.7070    7.6570 N.am  249  THR249     -0.1953
    102  CA        26.6700   -9.0890    7.9920 C.3   249  THR249      0.1897
    103  C         27.9120   -9.9920    7.9640 C.2   249  THR249      0.2313
    104  O         28.0490  -10.8860    8.7950 O.2   249  THR249     -0.2863
    105  CB        25.5900   -9.6410    7.0510 C.3   249  THR249      0.1794
    106  OG1       24.5120   -8.6990    6.9710 O.3   249  THR249     -0.2208
    107  CG2       25.0620  -10.9740    7.5530 C.3   249  THR249      0.0378
    108  N         29.9670   -9.1040   11.1730 N.3   252  ILE252     -0.1245
    109  CA        29.3870   -9.5690   12.4350 C.3   252  ILE252      0.1561
    110  C         29.5250  -11.0830   12.6050 C.2   252  ILE252      0.2260
    111  O         29.6780  -11.5730   13.7230 O.2   252  ILE252     -0.2867
    112  CB        27.9200   -9.0820   12.6570 C.3   252  ILE252      0.0252
    113  CG1       27.4850   -9.2930   14.1130 C.3   252  ILE252      0.0019
    114  CG2       26.9480   -9.7640   11.7070 C.3   252  ILE252      0.0019
    115  CD1       28.1790   -8.3860   15.1130 C.3   252  ILE252      0.0001
    116  N         31.5820  -13.0240   15.5120 N.3   256  PHE256     -0.1241
    117  CA        30.8360  -14.0230   16.2730 C.3   256  PHE256      0.1605
    118  C         31.5430  -15.3750   16.2510 C.2   256  PHE256      0.2264
    119  O         31.6480  -16.0450   17.2750 O.2   256  PHE256     -0.2867
    120  CB        29.4120  -14.1590   15.7240 C.3   256  PHE256      0.0534
    121  CG        28.4290  -13.1620   16.2930 C.ar  256  PHE256     -0.0203
    122  CD1       28.8620  -11.9970   16.9280 C.ar  256  PHE256     -0.0042
    123  CD2       27.0590  -13.3800   16.1680 C.ar  256  PHE256     -0.0042
    124  CE1       27.9480  -11.0820   17.4460 C.ar  256  PHE256     -0.0003
    125  CE2       26.1370  -12.4680   16.6810 C.ar  256  PHE256     -0.0003
    126  CZ        26.5850  -11.3170   17.3200 C.ar  256  PHE256     -0.0000
    127  N         24.6010  -18.4080   17.3920 N.3   273  MET273     -0.1245
    128  CA        25.1490  -17.7960   16.1690 C.3   273  MET273      0.1570
    129  C         26.6770  -17.7120   16.1250 C.2   273  MET273      0.2261
    130  O         27.2390  -17.0800   15.2270 O.2   273  MET273     -0.2867
    131  CB        24.5250  -16.4190   15.9050 C.3   273  MET273      0.0387
    132  CG        23.0370  -16.4590   15.5890 C.3   273  MET273      0.0595
    133  SD        22.3550  -14.8130   15.3160 S.3   273  MET273     -0.1393
    134  CE        23.4020  -14.2460   13.9720 C.3   273  MET273      0.0692
    135  N         19.4140  -16.5660    9.9530 N.3   284  SER284     -0.1202
    136  CA        19.6830  -15.7700   11.1420 C.3   284  SER284      0.2020
    137  C         19.3040  -14.3170   10.9150 C.2   284  SER284      0.2618
    138  O         18.6770  -13.6920   11.7720 O.2   284  SER284     -0.2717
    139  CB        21.1540  -15.8740   11.5310 C.3   284  SER284      0.2103
    140  OG        21.4740  -17.1990   11.9090 O.3   284  SER284     -0.2182
    141  N         19.6730  -13.7910    9.7530 N.am  285  GLN285     -0.1979
    142  CA        19.3550  -12.4130    9.3990 C.3   285  GLN285      0.1601
    143  C         17.8530  -12.1590    9.2870 C.2   285  GLN285      0.2287
    144  O         17.3670  -11.1280    9.7470 O.2   285  GLN285     -0.2864
    145  CB        20.0770  -12.0060    8.1180 C.3   285  GLN285      0.0394
    146  CG        21.5700  -11.8090    8.3060 C.3   285  GLN285      0.0908
    147  CD        21.8910  -10.7640    9.3570 C.2   285  GLN285      0.2608
    148  OE1       21.4040   -9.6360    9.2980 O.2   285  GLN285     -0.2717
    149  NE2       22.7140  -11.1370   10.3280 N.am  285  GLN285     -0.0878
    150  N         16.6380  -11.9920   12.7760 N.3   288  PHE288     -0.1241
    151  CA        17.1180  -10.7340   13.3540 C.3   288  PHE288      0.1605
    152  C         16.2260   -9.5500   12.9800 C.2   288  PHE288      0.2264
    153  O         15.9720   -8.6680   13.7990 O.2   288  PHE288     -0.2867
    154  CB        18.5620  -10.4770   12.9110 C.3   288  PHE288      0.0534
    155  CG        19.2130   -9.2830   13.5660 C.ar  288  PHE288     -0.0203
    156  CD1       19.2200   -9.1370   14.9530 C.ar  288  PHE288     -0.0042
    157  CD2       19.8610   -8.3250   12.7920 C.ar  288  PHE288     -0.0042
    158  CE1       19.8400   -8.0360   15.5540 C.ar  288  PHE288     -0.0003
    159  CE2       20.4840   -7.2250   13.3840 C.ar  288  PHE288     -0.0003
    160  CZ        20.4720   -7.0800   14.7650 C.ar  288  PHE288     -0.0000
    161  N         13.7950   -8.3810   16.0840 N.3   292  ILE292     -0.1245
    162  CA        14.5600   -7.3100   16.7110 C.3   292  ILE292      0.1561
    163  C         14.4160   -6.0030   15.9450 C.2   292  ILE292      0.2260
    164  O         13.8620   -5.0320   16.4620 O.2   292  ILE292     -0.2867
    165  CB        16.0730   -7.6530   16.8400 C.3   292  ILE292      0.0252
    166  CG1       16.2990   -9.1130   17.2700 C.3   292  ILE292      0.0019
    167  CG2       16.7840   -6.6450   17.7490 C.3   292  ILE292      0.0019
    168  CD1       15.7550   -9.4840   18.6400 C.3   292  ILE292      0.0001
@<TRIPOS>BOND
     1    75    76    1
     2    79    76    1
     3    79    80    1
     4    77    76    1
     5    77    78    2
     6    82    80   ar
     7    82    84   ar
     8    80    81   ar
     9    84    85   ar
    10    87    88    1
    11    81    83   ar
    12    85    83   ar
    13    85    86    1
    14   106   105    1
    15    70    69    2
    16   105   107    1
    17   105   102    1
    18    93    95   ar
    19    93    92   ar
    20    95    96   ar
    21   101   102    1
    22   101    89   am
    23    88    91    1
    24    88    89    1
    25   103   102    1
    26   103   104    2
    27   145   146    1
    28   145   142    1
    29    92    91    1
    30    92    94   ar
    31    69    68    1
    32   146   147    1
    33    96    94   ar
    34    96    98   ar
    35    89    90    2
    36    94    97   ar
    37    98   100   ar
    38    68    71    1
    39    68    67    1
    40   143   142    1
    41   143   144    2
    42   148   147    2
    43   147   149   am
    44   142   141    1
    45    97    99   ar
    46   100    99   ar
    47    71    72    1
    48   141   137   am
    49   135   136    1
    50    74    72   am
    51    72    73    2
    52   137   136    1
    53   137   138    2
    54   136   139    1
    55   108   109    1
    56   139   140    1
    57   114   112    1
    58    23    24    1
    59   109   110    1
    60   109   112    1
    61     9     7   ar
    62     9    11   ar
    63     7     6   ar
    64   110   111    2
    65   112   113    1
    66   150   151    1
    67   157   159   ar
    68   157   155   ar
    69    24    25    1
    70    24    27    1
    71   154   151    1
    72   154   155    1
    73   152   151    1
    74   152   153    2
    75    62    61    2
    76    61    60    1
    77   159   160   ar
    78     2     1    1
    79     2     5    1
    80     2     3    1
    81   155   156   ar
    82    12    11    1
    83    11    10   ar
    84    25    26    2
    85    27    28    1
    86     6     5    1
    87     6     8   ar
    88     4     3    2
    89   134   133    1
    90   113   115    1
    91    29    28   ar
    92    29    31   ar
    93     3    13   am
    94    28    30   ar
    95    60    59    1
    96    60    63    1
    97   160   158   ar
    98    10     8   ar
    99   156   158   ar
   100    31    32   ar
   101   130   129    2
   102   133   132    1
   103    54    53    2
   104    59    53   am
   105   116   117    1
   106    63    64    1
   107   132   131    1
   108    13    14    1
   109    53    52    1
   110   120   117    1
   111   120   121    1
   112    30    32   ar
   113   131   128    1
   114   163   164    2
   115   163   162    1
   116    51    52    1
   117   161   162    1
   118   129   128    1
   119   123   121   ar
   120   123   125   ar
   121   128   127    1
   122   118   117    1
   123   118   119    2
   124   121   122   ar
   125    52    55    1
   126    15    14    1
   127    15    16    2
   128    14    17    1
   129   125   126   ar
   130   162   165    1
   131   165   166    1
   132   165   167    1
   133    66    64    1
   134   122   124   ar
   135    64    65    1
   136   166   168    1
   137   126   124   ar
   138    55    56    1
   139    17    18    1
   140    19    18   ar
   141    19    21   ar
   142    18    20   ar
   143    57    56   ar
   144    21    22   ar
   145    56    58   ar
   146    20    22   ar
   147    49    50   ar
   148    49    47   ar
   149    50    48   ar
   150    40    39    1
   151    47    46   ar
   152    39    38    1
   153    48    46   ar
   154    46    45    1
   155    38    37    1
   156    45    42    1
   157    37    34    1
   158    44    43    2
   159    34    33    1
   160    34    35    1
   161    42    43    1
   162    42    41    1
   163    36    35    2
