@<TRIPOS>MOLECULE
tmp/3ialB00.pdb
 213 205 0 0 0
SMALL
GASTEIGER

@<TRIPOS>ATOM
      1  N         86.2360   74.4720   23.0440 N.3    85  PHE85      -0.1241
      2  CA        84.8600   74.9690   23.1500 C.3    85  PHE85       0.1605
      3  C         83.8410   74.0480   23.8400 C.2    85  PHE85       0.2264
      4  O         82.7690   74.5150   24.2210 O.2    85  PHE85      -0.2867
      5  CB        84.3520   75.3490   21.7500 C.3    85  PHE85       0.0534
      6  CG        84.9600   76.6230   21.2130 C.ar   85  PHE85      -0.0203
      7  CD1       84.6590   77.8410   21.7970 C.ar   85  PHE85      -0.0042
      8  CD2       85.8310   76.6010   20.1300 C.ar   85  PHE85      -0.0042
      9  CE1       85.2160   79.0160   21.3150 C.ar   85  PHE85      -0.0003
     10  CE2       86.3930   77.7740   19.6400 C.ar   85  PHE85      -0.0003
     11  CZ        86.0880   78.9810   20.2360 C.ar   85  PHE85      -0.0000
     12  N         80.5170   79.1770   17.9120 N.3   109  THR109     -0.1218
     13  CA        81.2280   79.8180   16.8210 C.3   109  THR109      0.1862
     14  C         80.9850   78.8030   15.7050 C.2   109  THR109      0.2287
     15  O         80.6870   77.6350   15.9920 O.2   109  THR109     -0.2866
     16  CB        82.7390   80.0230   17.1170 C.3   109  THR109      0.1770
     17  OG1       83.3770   80.6020   15.9690 O.3   109  THR109     -0.2211
     18  CG2       83.4070   78.6960   17.4840 C.3   109  THR109      0.0375
     19  N         82.6820   77.5950   12.7630 N.3   111  GLU111     -0.1245
     20  CA        83.6420   76.8820   11.9030 C.3   111  GLU111      0.1567
     21  C         83.1600   75.4940   11.4830 C.2   111  GLU111      0.2260
     22  O         83.1410   75.1870   10.2960 O.2   111  GLU111     -0.2867
     23  CB        85.0210   76.7510   12.5620 C.3   111  GLU111      0.0388
     24  CG        85.8550   78.0290   12.5220 C.3   111  GLU111      0.1160
     25  CD        85.4490   79.0620   13.5660 C.2   111  GLU111      0.3649
     26  OE1       84.6090   78.7590   14.4430 O.co2 111  GLU111     -0.2457
     27  OE2       85.9780   80.1850   13.5050 O.co2 111  GLU111     -0.2457
     28  N         77.7710   80.7980   24.6260 N.3   140  ARG140     -0.1245
     29  CA        78.8960   80.3340   25.4410 C.3   140  ARG140      0.1563
     30  C         78.4400   80.0980   26.8770 C.2   140  ARG140      0.2260
     31  O         78.2360   81.0500   27.6320 O.2   140  ARG140     -0.2867
     32  CB        80.0270   81.3700   25.4450 C.3   140  ARG140      0.0307
     33  CG        80.5330   81.8050   24.0810 C.3   140  ARG140      0.0489
     34  CD        81.6290   80.9260   23.5640 C.3   140  ARG140      0.2205
     35  NE        82.0300   81.3080   22.2080 N.pl3 140  ARG140     -0.0865
     36  CZ        83.0820   82.0600   21.8800 C.cat 140  ARG140      0.5346
     37  NH1       83.9030   82.5530   22.8000 N.pl3 140  ARG140      0.1354
     38  NH2       83.3210   82.3160   20.5980 N.pl3 140  ARG140      0.1354
     39  N         80.8360   81.0970   30.3410 N.3   143  THR143     -0.1218
     40  CA        81.0950   82.4930   30.6580 C.3   143  THR143      0.1862
     41  C         80.6180   82.8170   32.0720 C.2   143  THR143      0.2287
     42  O         79.4530   82.5980   32.4240 O.2   143  THR143     -0.2866
     43  CB        80.4420   83.4430   29.6560 C.3   143  THR143      0.1770
     44  OG1       81.0120   83.2170   28.3660 O.3   143  THR143     -0.2211
     45  CG2       80.6840   84.8950   30.0660 C.3   143  THR143      0.0375
     46  N         77.4430   93.2800   27.1190 N.3   149  LEU149     -0.1231
     47  CA        78.2840   93.6230   25.9680 C.3   149  LEU149      0.1693
     48  C         79.6920   93.0160   26.0160 C.2   149  LEU149      0.2592
     49  O         80.2460   92.6830   24.9770 O.2   149  LEU149     -0.2718
     50  CB        78.3900   95.1430   25.7670 C.3   149  LEU149      0.0284
     51  CG        77.1020   95.9600   25.8060 C.3   149  LEU149      0.0019
     52  CD1       77.4020   97.4110   25.5440 C.3   149  LEU149      0.0001
     53  CD2       76.1020   95.4420   24.7810 C.3   149  LEU149      0.0001
     54  N         80.2570   92.8750   27.2080 N.am  150  ILE150     -0.1966
     55  CA        81.6670   92.5210   27.3860 C.3   150  ILE150      0.1727
     56  C         81.8500   91.0170   27.6170 C.2   150  ILE150      0.2616
     57  O         82.7190   90.4080   27.0160 O.2   150  ILE150     -0.2715
     58  CB        82.2840   93.3490   28.5570 C.3   150  ILE150      0.0290
     59  CG1       82.4880   94.8000   28.1140 C.3   150  ILE150      0.0022
     60  CG2       83.5950   92.7540   29.0450 C.3   150  ILE150      0.0023
     61  CD1       82.7300   95.7530   29.2520 C.3   150  ILE150      0.0001
     62  N         81.0390   90.4350   28.4940 N.am  151  ARG151     -0.1963
     63  CA        81.0950   89.0010   28.7910 C.3   151  ARG151      0.1729
     64  C         79.6840   88.4810   29.0080 C.2   151  ARG151      0.2616
     65  O         79.1620   88.5730   30.1080 O.2   151  ARG151     -0.2715
     66  CB        81.9170   88.7160   30.0580 C.3   151  ARG151      0.0348
     67  CG        83.4210   88.6690   29.8670 C.3   151  ARG151      0.0492
     68  CD        84.0830   87.9350   31.0420 C.3   151  ARG151      0.2205
     69  NE        83.7020   88.5440   32.3200 N.pl3 151  ARG151     -0.0865
     70  CZ        84.4190   89.4430   32.9920 C.cat 151  ARG151      0.5346
     71  NH1       85.6070   89.8490   32.5470 N.pl3 151  ARG151      0.1354
     72  NH2       83.9460   89.9360   34.1340 N.pl3 151  ARG151      0.1354
     73  N         79.0770   87.9410   27.9530 N.am  152  VAL152     -0.1977
     74  CA        77.7060   87.4470   28.0130 C.3   152  VAL152      0.1596
     75  C         77.6460   86.0020   27.5160 C.2   152  VAL152      0.2287
     76  O         78.5950   85.5020   26.9250 O.2   152  VAL152     -0.2864
     77  CB        76.7240   88.3610   27.2160 C.3   152  VAL152      0.0276
     78  CG1       76.5100   89.6880   27.9520 C.3   152  VAL152      0.0022
     79  CG2       77.2090   88.6050   25.7970 C.3   152  VAL152      0.0022
     80  N         75.8210   86.0150   22.6490 N.3   155  ILE155     -0.1245
     81  CA        76.6470   87.0850   22.1400 C.3   155  ILE155      0.1561
     82  C         76.2460   87.4400   20.7130 C.2   155  ILE155      0.2260
     83  O         76.3570   86.6150   19.8110 O.2   155  ILE155     -0.2867
     84  CB        78.1290   86.6620   22.1390 C.3   155  ILE155      0.0252
     85  CG1       78.5260   86.0390   23.4840 C.3   155  ILE155      0.0019
     86  CG2       79.0360   87.8640   21.7940 C.3   155  ILE155      0.0019
     87  CD1       79.6890   85.0540   23.3630 C.3   155  ILE155      0.0001
     88  N         77.0210   89.0320   17.2690 N.3   157  TRP157     -0.1241
     89  CA        78.2980   89.2220   16.5930 C.3   157  TRP157      0.1605
     90  C         78.2000   89.1050   15.0840 C.2   157  TRP157      0.2264
     91  O         77.1480   88.7720   14.5530 O.2   157  TRP157     -0.2867
     92  CB        79.3470   88.2490   17.1680 C.3   157  TRP157      0.0550
     93  CG        79.4790   86.8640   16.5420 C.ar  157  TRP157      0.0003
     94  CD1       78.5830   86.2050   15.7480 C.ar  157  TRP157      0.0946
     95  CD2       80.5750   85.9610   16.7370 C.ar  157  TRP157      0.0152
     96  NE1       79.0700   84.9670   15.4140 N.ar  157  TRP157     -0.2442
     97  CE2       80.2890   84.7910   16.0150 C.ar  157  TRP157      0.0810
     98  CE3       81.7760   86.0360   17.4530 C.ar  157  TRP157      0.0012
     99  CZ2       81.1660   83.7110   15.9690 C.ar  157  TRP157      0.0191
    100  CZ3       82.6510   84.9630   17.4050 C.ar  157  TRP157      0.0001
    101  CH2       82.3380   83.8170   16.6680 C.ar  157  TRP157      0.0015
    102  N         80.6090   87.0920   12.1090 N.3   159  GLU159     -0.1245
    103  CA        81.7300   86.2150   11.7790 C.3   159  GLU159      0.1567
    104  C         81.8560   86.0530   10.2660 C.2   159  GLU159      0.2260
    105  O         80.8850   85.7200    9.5860 O.2   159  GLU159     -0.2867
    106  CB        81.5810   84.8390   12.4480 C.3   159  GLU159      0.0388
    107  CG        80.3290   84.0400   12.0770 C.3   159  GLU159      0.1160
    108  CD        80.1900   82.7570   12.8940 C.2   159  GLU159      0.3649
    109  OE1       79.0860   82.4830   13.4230 O.co2 159  GLU159     -0.2457
    110  OE2       81.1900   82.0160   13.0030 O.co2 159  GLU159     -0.2457
    111  N         84.1090   84.1240    7.1910 N.3   161  HIS161     -0.1241
    112  CA        84.8830   82.9020    6.9260 C.3   161  HIS161      0.1621
    113  C         85.1780   82.8440    5.4270 C.2   161  HIS161      0.2264
    114  O         84.2480   82.9290    4.6030 O.2   161  HIS161     -0.2867
    115  CB        84.0940   81.6430    7.3160 C.3   161  HIS161      0.0745
    116  CG        83.7560   81.5520    8.7720 C.ar  161  HIS161      0.0817
    117  ND1       84.4790   80.7810    9.6610 N.ar  161  HIS161     -0.2268
    118  CD2       82.7590   82.1230    9.4940 C.ar  161  HIS161      0.1154
    119  CE1       83.9480   80.8930   10.8670 C.ar  161  HIS161      0.1986
    120  NE2       82.9050   81.7040   10.7960 N.ar  161  HIS161     -0.2212
    121  N         93.4890   81.0570   18.8540 N.3   204  PHE204     -0.1241
    122  CA        92.1440   80.5300   18.6290 C.3   204  PHE204      0.1605
    123  C         92.2460   79.0110   18.4250 C.2   204  PHE204      0.2264
    124  O         93.1290   78.5460   17.6970 O.2   204  PHE204     -0.2867
    125  CB        91.4980   81.1950   17.4100 C.3   204  PHE204      0.0534
    126  CG        90.0850   80.7400   17.1320 C.ar  204  PHE204     -0.0203
    127  CD1       89.0270   81.2100   17.8980 C.ar  204  PHE204     -0.0042
    128  CD2       89.8130   79.8570   16.0970 C.ar  204  PHE204     -0.0042
    129  CE1       87.7330   80.7980   17.6480 C.ar  204  PHE204     -0.0003
    130  CE2       88.5050   79.4390   15.8370 C.ar  204  PHE204     -0.0003
    131  CZ        87.4700   79.9110   16.6100 C.ar  204  PHE204     -0.0000
    132  N         89.7180   92.2150   24.2990 N.3   224  GLN224     -0.1231
    133  CA        89.9130   91.7010   22.9420 C.3   224  GLN224      0.1698
    134  C         88.6410   91.9550   22.1600 C.2   224  GLN224      0.2593
    135  O         87.5940   91.3760   22.4490 O.2   224  GLN224     -0.2718
    136  CB        90.2540   90.2080   22.9110 C.3   224  GLN224      0.0381
    137  CG        90.5010   89.6860   21.4990 C.3   224  GLN224      0.0905
    138  CD        90.6840   88.1870   21.4280 C.2   224  GLN224      0.2608
    139  OE1       91.4220   87.6040   22.2150 O.2   224  GLN224     -0.2717
    140  NE2       90.0200   87.5550   20.4680 N.am  224  GLN224     -0.0878
    141  N         88.7510   92.8060   21.1520 N.am  225  THR225     -0.1939
    142  CA        87.5960   93.3920   20.4710 C.3   225  THR225      0.2028
    143  C         87.5440   93.0260   18.9850 C.2   225  THR225      0.2642
    144  O         86.5430   93.2610   18.3160 O.2   225  THR225     -0.2714
    145  CB        87.6370   94.9200   20.6800 C.3   225  THR225      0.1808
    146  OG1       87.6330   95.1810   22.0920 O.3   225  THR225     -0.2208
    147  CG2       86.4560   95.6400   20.0260 C.3   225  THR225      0.0379
    148  N         88.6240   92.4480   18.4700 N.am  226  ALA226     -0.1963
    149  CA        88.5930   91.7850   17.1730 C.3   226  ALA226      0.1728
    150  C         89.4450   90.5370   17.2630 C.2   226  ALA226      0.2616
    151  O         90.4660   90.5330   17.9440 O.2   226  ALA226     -0.2715
    152  CB        89.1140   92.6970   16.0820 C.3   226  ALA226      0.0334
    153  N         89.0090   89.4830   16.5850 N.am  227  GLY227     -0.1955
    154  CA        89.8030   88.2740   16.4270 C.3   227  GLY227      0.1869
    155  C         89.8700   87.9140   14.9640 C.2   227  GLY227      0.2309
    156  O         88.8360   87.7030   14.3270 O.2   227  GLY227     -0.2863
    157  N         91.9060   85.4060   12.2330 N.3   229  HIS229     -0.1241
    158  CA        92.6560   84.1460   12.2930 C.3   229  HIS229      0.1621
    159  C         92.9890   83.5180   10.9480 C.2   229  HIS229      0.2264
    160  O         92.1700   83.4990   10.0320 O.2   229  HIS229     -0.2867
    161  CB        91.8660   83.1410   13.1250 C.3   229  HIS229      0.0745
    162  CG        91.3190   83.7240   14.3890 C.ar  229  HIS229      0.0817
    163  ND1       92.0780   83.8620   15.5280 N.ar  229  HIS229     -0.2268
    164  CD2       90.1050   84.2440   14.6810 C.ar  229  HIS229      0.1154
    165  CE1       91.3520   84.4300   16.4710 C.ar  229  HIS229      0.1986
    166  NE2       90.1500   84.6720   15.9850 N.ar  229  HIS229     -0.2212
    167  N         89.2720   83.4400    9.1150 N.3   257  CYS257     -0.1221
    168  CA        88.0440   83.9960    9.6900 C.3   257  CYS257      0.1808
    169  C         88.2920   85.2350   10.5210 C.2   257  CYS257      0.2601
    170  O         89.4080   85.5030   10.9410 O.2   257  CYS257     -0.2717
    171  CB        87.2840   82.9590   10.5100 C.3   257  CYS257      0.0970
    172  SG        88.1840   82.2270   11.8600 S.3   257  CYS257     -0.0800
    173  N         87.2310   86.0030   10.7210 N.am  258  ALA258     -0.1965
    174  CA        87.3030   87.2500   11.4630 C.3   258  ALA258      0.1728
    175  C         86.0210   87.4340   12.2390 C.2   258  ALA258      0.2617
    176  O         84.9390   87.1710   11.7200 O.2   258  ALA258     -0.2715
    177  CB        87.5300   88.4300   10.5260 C.3   258  ALA258      0.0334
    178  N         86.1510   87.8950   13.4780 N.am  259  GLY259     -0.1940
    179  CA        85.0030   88.0580   14.3610 C.3   259  GLY259      0.2014
    180  C         85.0290   89.3660   15.1250 C.2   259  GLY259      0.2639
    181  O         86.0640   89.7570   15.6700 O.2   259  GLY259     -0.2714
    182  N         83.8880   90.0440   15.1340 N.am  260  ILE260     -0.1963
    183  CA        83.6290   91.1790   16.0220 C.3   260  ILE260      0.1727
    184  C         82.2550   91.0040   16.6750 C.2   260  ILE260      0.2617
    185  O         81.3220   90.4860   16.0640 O.2   260  ILE260     -0.2715
    186  CB        83.7010   92.5500   15.3040 C.3   260  ILE260      0.0290
    187  CG1       82.7180   92.6290   14.1300 C.3   260  ILE260      0.0022
    188  CG2       85.1150   92.8250   14.8420 C.3   260  ILE260      0.0023
    189  CD1       82.3750   94.0730   13.7080 C.3   260  ILE260      0.0001
    190  N         82.1500   91.4220   17.9290 N.am  261  SER261     -0.1936
    191  CA        80.9470   91.2390   18.7040 C.3   261  SER261      0.2055
    192  C         80.4820   92.5770   19.2950 C.2   261  SER261      0.2644
    193  O         80.9490   93.6450   18.8850 O.2   261  SER261     -0.2714
    194  CB        81.2310   90.2430   19.8220 C.3   261  SER261      0.2130
    195  OG        81.9680   90.8640   20.8670 O.3   261  SER261     -0.2179
    196  N         79.5750   92.4870   20.2680 N.am  262  THR262     -0.1936
    197  CA        79.0790   93.6250   21.0480 C.3   262  THR262      0.2028
    198  C         80.1700   94.3760   21.8250 C.2   262  THR262      0.2642
    199  O         79.9470   95.5040   22.2890 O.2   262  THR262     -0.2714
    200  CB        78.0540   93.1450   22.0830 C.3   262  THR262      0.1808
    201  OG1       78.6540   92.1390   22.9080 O.3   262  THR262     -0.2208
    202  CG2       76.8100   92.5740   21.3980 C.3   262  THR262      0.0379
    203  N         81.3310   93.7450   21.9880 N.am  263  ARG263     -0.1977
    204  CA        82.5000   94.3980   22.5930 C.3   263  ARG263      0.1597
    205  C         82.9500   95.6700   21.8720 C.2   263  ARG263      0.2287
    206  O         83.5200   96.5560   22.4960 O.2   263  ARG263     -0.2864
    207  CB        83.6760   93.4220   22.6570 C.3   263  ARG263      0.0334
    208  CG        83.4710   92.3320   23.6610 C.3   263  ARG263      0.0492
    209  CD        84.6600   91.4160   23.6990 C.3   263  ARG263      0.2205
    210  NE        84.6450   90.5880   24.8900 N.pl3 263  ARG263     -0.0865
    211  CZ        85.6190   89.7710   25.2570 C.cat 263  ARG263      0.5346
    212  NH1       86.7230   89.6490   24.5180 N.pl3 263  ARG263      0.1354
    213  NH2       85.4860   89.0750   26.3830 N.pl3 263  ARG263      0.1354
@<TRIPOS>BOND
     1   114   113    2
     2   113   112    1
     3   112   111    1
     4   112   115    1
     5   115   116    1
     6   116   118   ar
     7   116   117   ar
     8   167   168    1
     9   118   120   ar
    10   105   104    2
    11   117   119   ar
    12   168   171    1
    13   168   169    1
    14   160   159    2
    15   104   103    1
    16    22    21    2
    17   171   172    1
    18   169   173   am
    19   169   170    2
    20   177   174    1
    21   173   174    1
    22   120   119   ar
    23   159   158    1
    24   174   175    1
    25    21    20    1
    26   176   175    2
    27   103   102    1
    28   103   106    1
    29    20    23    1
    30    20    19    1
    31   107   106    1
    32   107   108    1
    33   157   158    1
    34   175   178   am
    35   158   161    1
    36    24    23    1
    37    24    25    1
    38   108   110   ar
    39   108   109   ar
    40   161   162    1
    41   178   179    1
    42    27    25   ar
    43    25    26   ar
    44   189   187    1
    45   187   186    1
    46   156   155    2
    47   179   180    1
    48   162   164   ar
    49   162   163   ar
    50    91    90    2
    51   164   166   ar
    52   188   186    1
    53   155   154    1
    54    90    89    1
    55   180   182   am
    56   180   181    2
    57   182   183    1
    58   186   183    1
    59    96    94   ar
    60    96    97   ar
    61   163   165   ar
    62    14    15    2
    63    14    13    1
    64    94    93   ar
    65   130   128   ar
    66   130   131   ar
    67    99    97   ar
    68    99   101   ar
    69    17    16    1
    70   166   165   ar
    71    97    95   ar
    72   183   184    1
    73   185   184    2
    74   152   149    1
    75   128   126   ar
    76   154   153    1
    77    93    95   ar
    78    93    92    1
    79   153   150   am
    80    89    92    1
    81    89    88    1
    82   131   129   ar
    83   101   100   ar
    84   184   190   am
    85    95    98   ar
    86    13    16    1
    87    13    12    1
    88    16    18    1
    89   126   125    1
    90   126   127   ar
    91   149   150    1
    92   149   148    1
    93   150   151    2
    94   100    98   ar
    95   125   122    1
    96   129   127   ar
    97   124   123    2
    98   190   191    1
    99   144   143    2
   100   123   122    1
   101   148   143   am
   102   122   121    1
   103   191   192    1
   104   191   194    1
   105   193   192    2
   106   143   142    1
   107   192   196   am
   108    10     8   ar
   109    10    11   ar
   110    83    82    2
   111   194   195    1
   112   147   145    1
   113     8     6   ar
   114    11     9   ar
   115   196   197    1
   116   140   138   am
   117   142   145    1
   118   142   141    1
   119    38    36    1
   120   145   146    1
   121    82    81    1
   122   197   198    1
   123   197   200    1
   124   141   134   am
   125     6     5    1
   126     6     7   ar
   127     9     7   ar
   128   202   200    1
   129   138   137    1
   130   138   139    2
   131   137   136    1
   132     5     2    1
   133    86    84    1
   134   198   203   am
   135   198   199    2
   136   205   206    2
   137   205   204    1
   138    36    35    2
   139    36    37    1
   140   203   204    1
   141   200   201    1
   142    84    81    1
   143    84    85    1
   144    81    80    1
   145   134   135    2
   146   134   133    1
   147    35    34    1
   148   204   207    1
   149   207   208    1
   150   136   133    1
   151   133   132    1
   152     1     2    1
   153     2     3    1
   154    87    85    1
   155    34    33    1
   156   208   209    1
   157   209   210    1
   158     3     4    2
   159    33    32    1
   160   212   211    1
   161    28    29    1
   162    53    51    1
   163   210   211    2
   164    49    48    2
   165   211   213    1
   166    29    32    1
   167    29    30    1
   168    52    51    1
   169    50    51    1
   170    50    47    1
   171    79    77    1
   172    47    48    1
   173    47    46    1
   174    48    54   am
   175    30    31    2
   176    76    75    2
   177    57    56    2
   178    54    55    1
   179    77    78    1
   180    77    74    1
   181    55    56    1
   182    55    58    1
   183    75    74    1
   184    56    62   am
   185    73    74    1
   186    73    64   am
   187    59    58    1
   188    59    61    1
   189    44    43    1
   190    62    63    1
   191    58    60    1
   192    63    64    1
   193    63    66    1
   194    64    65    2
   195    43    45    1
   196    43    40    1
   197    67    66    1
   198    67    68    1
   199    39    40    1
   200    40    41    1
   201    68    69    1
   202    41    42    2
   203    69    70    2
   204    71    70    1
   205    70    72    1
