@<TRIPOS>MOLECULE
tmp/3iarA00.pdb
 172 164 0 0 0
SMALL
GASTEIGER

@<TRIPOS>ATOM
      1  N          2.6810    2.5290    1.6490 N.3    13  HIS13      -0.1241
      2  CA         4.0520    2.4010    2.1970 C.3    13  HIS13       0.1621
      3  C          4.7350    3.7840    2.1150 C.2    13  HIS13       0.2264
      4  O          4.7710    4.4220    1.0640 O.2    13  HIS13      -0.2867
      5  CB         4.8350    1.4080    1.3330 C.3    13  HIS13       0.0745
      6  CG         4.2950    0.0080    1.3560 C.ar   13  HIS13       0.0817
      7  ND1        4.9680   -1.0360    1.9610 N.ar   13  HIS13      -0.2268
      8  CD2        3.1640   -0.5410    0.8290 C.ar   13  HIS13       0.1154
      9  CE1        4.2810   -2.1610    1.8020 C.ar   13  HIS13       0.1986
     10  NE2        3.1770   -1.8870    1.1220 N.ar   13  HIS13      -0.2212
     11  N          7.9000    4.5530    2.1950 N.3    15  ASP15      -0.1239
     12  CA         9.0350    4.5290    1.2660 C.3    15  ASP15       0.1674
     13  C          8.6180    4.3480   -0.2080 C.2    15  ASP15       0.2266
     14  O          9.4210    4.4840   -1.1120 O.2    15  ASP15      -0.2867
     15  CB        10.1150    3.5010    1.6950 C.3    15  ASP15       0.1410
     16  CG         9.6000    2.0930    1.9170 C.2    15  ASP15       0.3668
     17  OD1        8.3770    1.8260    1.9660 O.co2  15  ASP15      -0.2456
     18  OD2       10.5070    1.2240    2.0810 O.co2  15  ASP15      -0.2456
     19  N          6.1960   -8.8400   -9.1820 N.3    54  LEU54      -0.1245
     20  CA         6.4720   -8.2480   -7.8550 C.3    54  LEU54       0.1561
     21  C          7.9890   -8.0010   -7.6500 C.2    54  LEU54       0.2260
     22  O          8.4040   -6.9410   -7.1790 O.2    54  LEU54      -0.2867
     23  CB         5.8500   -9.1100   -6.7300 C.3    54  LEU54       0.0270
     24  CG         5.9530   -8.5190   -5.3150 C.3    54  LEU54       0.0019
     25  CD1        5.1620   -7.2280   -5.2550 C.3    54  LEU54       0.0001
     26  CD2        5.4450   -9.5040   -4.2420 C.3    54  LEU54       0.0001
     27  N          8.9640   -4.8780   -9.5700 N.3    57  PHE57      -0.1227
     28  CA         8.4800   -3.7560   -8.7740 C.3    57  PHE57       0.1736
     29  C          9.3960   -3.4440   -7.5820 C.2    57  PHE57       0.2595
     30  O          9.7880   -2.2830   -7.3560 O.2    57  PHE57      -0.2718
     31  CB         7.0330   -4.0170   -8.3230 C.3    57  PHE57       0.0547
     32  CG         6.6440   -3.2650   -7.0950 C.ar   57  PHE57      -0.0202
     33  CD1        6.4020   -1.9140   -7.1530 C.ar   57  PHE57      -0.0042
     34  CD2        6.5660   -3.9130   -5.8620 C.ar   57  PHE57      -0.0042
     35  CE1        6.0750   -1.2080   -6.0340 C.ar   57  PHE57      -0.0003
     36  CE2        6.2340   -3.2150   -4.7230 C.ar   57  PHE57      -0.0003
     37  CZ         5.9850   -1.8650   -4.7930 C.ar   57  PHE57      -0.0000
     38  N          9.7530   -4.4730   -6.8090 N.am   58  LEU58      -0.1980
     39  CA        10.5510   -4.2450   -5.6050 C.3    58  LEU58       0.1596
     40  C         11.9090   -3.6580   -5.9340 C.2    58  LEU58       0.2287
     41  O         12.4840   -2.9340   -5.1100 O.2    58  LEU58      -0.2864
     42  CB        10.7330   -5.5530   -4.8170 C.3    58  LEU58       0.0297
     43  CG         9.4030   -6.0130   -4.1890 C.3    58  LEU58       0.0022
     44  CD1        9.5000   -7.4530   -3.6670 C.3    58  LEU58       0.0001
     45  CD2        9.0430   -5.0820   -3.0300 C.3    58  LEU58       0.0001
     46  N         12.8950    0.3330   -5.8000 N.3    61  PHE61      -0.1241
     47  CA        13.3430    1.0080   -4.5870 C.3    61  PHE61       0.1605
     48  C         14.8360    1.2890   -4.6090 C.2    61  PHE61       0.2264
     49  O         15.3050    2.2750   -3.9910 O.2    61  PHE61      -0.2867
     50  CB        12.9790    0.1520   -3.3510 C.3    61  PHE61       0.0534
     51  CG        11.5210    0.1710   -3.0340 C.ar   61  PHE61      -0.0203
     52  CD1       11.0360    1.0390   -2.0600 C.ar   61  PHE61      -0.0042
     53  CD2       10.6230   -0.6530   -3.7290 C.ar   61  PHE61      -0.0042
     54  CE1        9.6710    1.0680   -1.7720 C.ar   61  PHE61      -0.0003
     55  CE2        9.2780   -0.5920   -3.4440 C.ar   61  PHE61      -0.0003
     56  CZ         8.8080    0.2700   -2.4740 C.ar   61  PHE61      -0.0000
     57  N         16.0740    4.8400   -2.7490 N.3    65  MET65      -0.1245
     58  CA        16.2090    4.7080   -1.3100 C.3    65  MET65       0.1570
     59  C         17.6030    5.1420   -0.7790 C.2    65  MET65       0.2261
     60  O         17.6680    5.6900    0.3210 O.2    65  MET65      -0.2867
     61  CB        15.8850    3.2870   -0.8460 C.3    65  MET65       0.0387
     62  CG        14.3990    2.9240   -0.9210 C.3    65  MET65       0.0595
     63  SD        13.4720    3.8510    0.3390 S.3    65  MET65      -0.1393
     64  CE        13.8130    2.7740    1.7610 C.3    65  MET65       0.0692
     65  N          6.0480    1.0760    6.8900 N.3    98  TYR98      -0.1227
     66  CA         7.4260    1.0900    6.3860 C.3    98  TYR98       0.1736
     67  C          8.2770    0.1460    7.2340 C.2    98  TYR98       0.2596
     68  O          7.8790   -0.2500    8.3490 O.2    98  TYR98      -0.2718
     69  CB         8.0410    2.5170    6.4440 C.3    98  TYR98       0.0548
     70  CG         8.1790    3.0460    7.8400 C.ar   98  TYR98      -0.0200
     71  CD1        9.3970    2.9810    8.5110 C.ar   98  TYR98      -0.0009
     72  CD2        7.0650    3.5520    8.5270 C.ar   98  TYR98      -0.0009
     73  CE1        9.5320    3.4390    9.8150 C.ar   98  TYR98       0.0417
     74  CE2        7.1780    4.0000    9.8480 C.ar   98  TYR98       0.0417
     75  CZ         8.4360    3.9140   10.5010 C.ar   98  TYR98       0.1957
     76  OH         8.5800    4.3680   11.7840 O.3    98  TYR98      -0.2866
     77  N          9.4320   -0.2320    6.6880 N.am   99  SER99      -0.1952
     78  CA        10.4520   -0.9550    7.4430 C.3    99  SER99       0.1924
     79  C         11.4480    0.0300    8.0170 C.2    99  SER99       0.2314
     80  O         12.1710    0.6700    7.2720 O.2    99  SER99      -0.2863
     81  CB        11.2270   -1.8940    6.4870 C.3    99  SER99       0.2116
     82  OG        12.3950   -2.3840    7.1420 O.3    99  SER99      -0.2180
     83  N         15.0160   -0.5640    6.8210 N.3   102  LEU102     -0.1245
     84  CA        15.4030   -0.1370    5.4720 C.3   102  LEU102      0.1561
     85  C         15.7340    1.3550    5.3830 C.2   102  LEU102      0.2260
     86  O         16.1870    1.8180    4.3420 O.2   102  LEU102     -0.2867
     87  CB        14.3330   -0.5300    4.4440 C.3   102  LEU102      0.0270
     88  CG        14.2280   -2.0290    4.2690 C.3   102  LEU102      0.0019
     89  CD1       13.0810   -2.2830    3.2690 C.3   102  LEU102      0.0001
     90  CD2       15.5130   -2.5800    3.7580 C.3   102  LEU102      0.0001
     91  N         21.1490   -0.8230    1.0350 N.3   113  TRP113     -0.1241
     92  CA        21.4530    0.2270    0.0520 C.3   113  TRP113      0.1605
     93  C         22.9360    0.5560   -0.0730 C.2   113  TRP113      0.2264
     94  O         23.2970    1.6730   -0.4730 O.2   113  TRP113     -0.2867
     95  CB        20.6350    1.5250    0.3060 C.3   113  TRP113      0.0550
     96  CG        19.2080    1.2250    0.7360 C.ar  113  TRP113      0.0003
     97  CD1       18.6270    1.5450    1.9340 C.ar  113  TRP113      0.0946
     98  CD2       18.2070    0.5030   -0.0170 C.ar  113  TRP113      0.0152
     99  NE1       17.3300    1.0840    1.9660 N.ar  113  TRP113     -0.2442
    100  CE2       17.0470    0.4350    0.7900 C.ar  113  TRP113      0.0810
    101  CE3       18.1530   -0.0320   -1.3200 C.ar  113  TRP113      0.0012
    102  CZ2       15.8610   -0.1700    0.3590 C.ar  113  TRP113      0.0191
    103  CZ3       17.0010   -0.6630   -1.7280 C.ar  113  TRP113      0.0001
    104  CH2       15.8590   -0.7400   -0.8880 C.ar  113  TRP113      0.0015
    105  N          6.8620   -2.6360    9.3140 N.3   149  CYS149     -0.1235
    106  CA         6.9600   -3.8760    8.5340 C.3   149  CYS149      0.1677
    107  C          8.1230   -4.7890    8.9120 C.2   149  CYS149      0.2270
    108  O          9.2890   -4.3820    8.8250 O.2   149  CYS149     -0.2867
    109  CB         7.1360   -3.5380    7.0330 C.3   149  CYS149      0.0956
    110  SG         5.8240   -2.5310    6.3190 S.3   149  CYS149     -0.0801
    111  N         10.0750   -7.8400    7.1870 N.3   151  MET151     -0.1245
    112  CA        10.3120   -8.1520    5.7820 C.3   151  MET151      0.1570
    113  C         10.5530   -9.6500    5.6130 C.2   151  MET151      0.2261
    114  O         11.3040  -10.2270    6.4030 O.2   151  MET151     -0.2867
    115  CB        11.5470   -7.3860    5.2930 C.3   151  MET151      0.0387
    116  CG        11.3560   -5.8260    5.3210 C.3   151  MET151      0.0595
    117  SD         9.9130   -5.2620    4.4140 S.3   151  MET151     -0.1393
    118  CE        10.4250   -5.7110    2.7710 C.3   151  MET151      0.0692
    119  N          5.8830   -7.7390    4.9010 N.3   179  ALA179     -0.1231
    120  CA         5.9190   -7.3320    3.5150 C.3   179  ALA179      0.1694
    121  C          7.1340   -7.9880    2.8420 C.2   179  ALA179      0.2592
    122  O          7.8260   -8.8030    3.4630 O.2   179  ALA179     -0.2718
    123  CB         5.9510   -5.7690    3.3870 C.3   179  ALA179      0.0304
    124  N          7.3770   -7.6090    1.5900 N.am  180  GLY180     -0.1957
    125  CA         8.4830   -8.1950    0.8270 C.3   180  GLY180      0.1869
    126  C          7.9780   -9.2610   -0.1350 C.2   180  GLY180      0.2309
    127  O          6.7930   -9.3070   -0.5140 O.2   180  GLY180     -0.2863
    128  N          0.8490   -8.9040    4.4310 N.3   210  HIS210     -0.1241
    129  CA         0.6970   -8.9770    2.9790 C.3   210  HIS210      0.1621
    130  C          0.5660  -10.4530    2.6040 C.2   210  HIS210      0.2264
    131  O          1.5100  -11.2250    2.8390 O.2   210  HIS210     -0.2867
    132  CB         1.9450   -8.4440    2.2870 C.3   210  HIS210      0.0745
    133  CG         2.0400   -6.9330    2.1660 C.ar  210  HIS210      0.0817
    134  ND1        2.3680   -6.0830    3.2270 N.ar  210  HIS210     -0.2268
    135  CD2        1.9910   -6.1410    1.0620 C.ar  210  HIS210      0.1154
    136  CE1        2.4620   -4.8400    2.7690 C.ar  210  HIS210      0.1986
    137  NE2        2.2470   -4.8490    1.4640 N.ar  210  HIS210     -0.2212
    138  N         -1.2590  -11.6430   -2.5550 N.3   213  GLU213     -0.1245
    139  CA        -1.0500  -10.5760   -3.5360 C.3   213  GLU213      0.1567
    140  C         -0.6090  -11.2880   -4.7820 C.2   213  GLU213      0.2260
    141  O         -1.2890  -11.2370   -5.8200 O.2   213  GLU213     -0.2867
    142  CB         0.0230   -9.6010   -3.0700 C.3   213  GLU213      0.0388
    143  CG         0.3800   -8.4940   -4.0990 C.3   213  GLU213      0.1160
    144  CD         1.4500   -7.5580   -3.5810 C.2   213  GLU213      0.3649
    145  OE1        2.0630   -7.7980   -2.4690 O.co2 213  GLU213     -0.2457
    146  OE2        1.7380   -6.5360   -4.2600 O.co2 213  GLU213     -0.2457
    147  N         -3.7850   -6.8550    0.4360 N.3   234  HIS234     -0.1241
    148  CA        -4.1410   -7.4010   -0.8700 C.3   234  HIS234      0.1621
    149  C         -5.1520   -8.5380   -0.7290 C.2   234  HIS234      0.2264
    150  O         -6.3580   -8.2950   -0.7890 O.2   234  HIS234     -0.2867
    151  CB        -2.8850   -7.8080   -1.6900 C.3   234  HIS234      0.0745
    152  CG        -1.9440   -6.6730   -1.9740 C.ar  234  HIS234      0.0817
    153  ND1       -2.2270   -5.6800   -2.8860 N.ar  234  HIS234     -0.2268
    154  CD2       -0.7150   -6.3890   -1.4820 C.ar  234  HIS234      0.1154
    155  CE1       -1.2140   -4.8330   -2.9470 C.ar  234  HIS234      0.1986
    156  NE2       -0.2890   -5.2320   -2.0950 N.ar  234  HIS234     -0.2212
    157  N         -1.0550    1.7790   -2.0120 N.3   291  ASP291     -0.1225
    158  CA         0.0960    0.8760   -1.8350 C.3   291  ASP291      0.1805
    159  C          1.4410    1.5880   -2.0240 C.2   291  ASP291      0.2597
    160  O          2.1130    1.9500   -1.0270 O.2   291  ASP291     -0.2718
    161  CB        -0.0700   -0.3720   -2.7710 C.3   291  ASP291      0.1424
    162  CG         0.7850   -1.5500   -2.3640 C.2   291  ASP291      0.3668
    163  OD1        1.2770   -1.5890   -1.2040 O.co2 291  ASP291     -0.2456
    164  OD2        0.8650   -2.5060   -3.1920 O.co2 291  ASP291     -0.2456
    165  N          1.8450    1.8490   -3.2660 N.am  292  ASP292     -0.1974
    166  CA         3.1230    2.5120   -3.5370 C.3   292  ASP292      0.1709
    167  C          2.9530    3.5710   -4.6300 C.2   292  ASP292      0.2293
    168  O          3.4620    3.4320   -5.7410 O.2   292  ASP292     -0.2864
    169  CB         4.2010    1.4940   -3.9540 C.3   292  ASP292      0.1436
    170  CG         4.4860    0.4960   -2.8310 C.2   292  ASP292      0.3671
    171  OD1        5.3500    0.7910   -1.9830 O.co2 292  ASP292     -0.2456
    172  OD2        3.7620   -0.5320   -2.7280 O.co2 292  ASP292     -0.2456
@<TRIPOS>BOND
     1    27    28    1
     2    19    20    1
     3    28    31    1
     4    28    29    1
     5    31    32    1
     6    20    21    1
     7    20    23    1
     8    21    22    2
     9    29    30    2
    10    29    38   am
    11    33    32   ar
    12    33    35   ar
    13    32    34   ar
    14    38    39    1
    15    23    24    1
    16    35    37   ar
    17    40    39    1
    18    40    41    2
    19    34    36   ar
    20   141   140    2
    21    46    47    1
    22   168   167    2
    23    39    42    1
    24    24    25    1
    25    24    26    1
    26    42    43    1
    27    37    36   ar
    28   140   139    1
    29   167   166    1
    30    48    47    1
    31    48    49    2
    32    47    50    1
    33   146   144   ar
    34    43    44    1
    35    43    45    1
    36   143   144    1
    37   143   142    1
    38   169   166    1
    39   169   170    1
    40    53    55   ar
    41    53    51   ar
    42   144   145   ar
    43   166   165    1
    44   139   142    1
    45   139   138    1
    46    55    56   ar
    47    50    51    1
    48   165   159   am
    49   164   162   ar
    50    51    52   ar
    51   155   153   ar
    52   155   156   ar
    53   153   152   ar
    54   170   172   ar
    55   170   171   ar
    56   161   162    1
    57   161   158    1
    58    57    58    1
    59    56    54   ar
    60   162   163   ar
    61   156   154   ar
    62    52    54   ar
    63   159   158    1
    64   159   160    2
    65   157   158    1
    66   152   151    1
    67   152   154   ar
    68   103   101   ar
    69   103   104   ar
    70   151   148    1
    71   101    98   ar
    72    58    61    1
    73    58    59    1
    74    14    13    2
    75    62    61    1
    76    62    63    1
    77   104   102   ar
    78   148   149    1
    79   148   147    1
    80   150   149    2
    81    59    60    2
    82   127   126    2
    83    94    93    2
    84    13    12    1
    85   126   125    1
    86    93    92    1
    87    98    96   ar
    88    98   100   ar
    89    92    95    1
    90    92    91    1
    91    95    96    1
    92    63    64    1
    93   102   100   ar
    94    96    97   ar
    95   100    99   ar
    96   125   124    1
    97     8    10   ar
    98     8     6   ar
    99   135   137   ar
   100   135   133   ar
   101     4     3    2
   102    10     9   ar
   103    12    15    1
   104    12    11    1
   105     5     6    1
   106     5     2    1
   107     6     7   ar
   108   137   136   ar
   109   124   121   am
   110     1     2    1
   111    15    16    1
   112     9     7   ar
   113    16    17   ar
   114    16    18   ar
   115    97    99   ar
   116     3     2    1
   117   133   132    1
   118   133   134   ar
   119   132   129    1
   120   130   131    2
   121   130   129    1
   122   136   134   ar
   123   118   117    1
   124   121   122    2
   125   121   120    1
   126   129   128    1
   127    89    88    1
   128   123   120    1
   129   120   119    1
   130    90    88    1
   131    88    87    1
   132    86    85    2
   133   117   116    1
   134    87    84    1
   135   115   116    1
   136   115   112    1
   137    85    84    1
   138    84    83    1
   139   113   112    1
   140   113   114    2
   141   112   111    1
   142   110   109    1
   143    66    69    1
   144    66    65    1
   145    66    67    1
   146    69    70    1
   147    81    82    1
   148    81    78    1
   149    77    67   am
   150    77    78    1
   151   109   106    1
   152    67    68    2
   153    80    79    2
   154    78    79    1
   155    70    71   ar
   156    70    72   ar
   157    71    73   ar
   158    72    74   ar
   159   106   107    1
   160   106   105    1
   161   108   107    2
   162    73    75   ar
   163    74    75   ar
   164    75    76    1
