@<TRIPOS>MOLECULE
tmp/3iauA00.pdb
 95 92 0 0 0
SMALL
GASTEIGER

@<TRIPOS>ATOM
      1  N         51.0600  -37.2760    4.1670 N.3    29  LEU29      -0.1245
      2  CA        51.9920  -37.1970    5.2880 C.3    29  LEU29       0.1561
      3  C         52.3960  -38.5750    5.7970 C.2    29  LEU29       0.2260
      4  O         51.5460  -39.3900    6.1500 O.2    29  LEU29      -0.2867
      5  CB        51.3730  -36.4160    6.4470 C.3    29  LEU29       0.0270
      6  CG        52.2320  -35.4310    7.2460 C.3    29  LEU29       0.0019
      7  CD1       51.8760  -35.4960    8.7220 C.3    29  LEU29       0.0001
      8  CD2       53.7290  -35.6080    7.0240 C.3    29  LEU29       0.0001
      9  N         53.5930  -39.9510    8.8470 N.3    31  VAL31      -0.1245
     10  CA        53.6040  -39.4400   10.2120 C.3    31  VAL31       0.1561
     11  C         54.8370  -39.8470   11.0200 C.2    31  VAL31       0.2260
     12  O         55.2450  -41.0130   11.0230 O.2    31  VAL31      -0.2867
     13  CB        52.3220  -39.8630   10.9580 C.3    31  VAL31       0.0252
     14  CG1       52.4050  -39.4920   12.4370 C.3    31  VAL31       0.0019
     15  CG2       51.1040  -39.2200   10.2960 C.3    31  VAL31       0.0019
     16  N         50.5140  -22.8050    9.5460 N.3   209  HIS209     -0.1241
     17  CA        50.0240  -24.1770    9.6490 C.3   209  HIS209      0.1621
     18  C         51.1690  -25.1820    9.4950 C.2   209  HIS209      0.2264
     19  O         51.2990  -26.1100   10.2900 O.2   209  HIS209     -0.2867
     20  CB        48.9200  -24.4570    8.6230 C.3   209  HIS209      0.0745
     21  CG        48.4800  -25.8890    8.5910 C.ar  209  HIS209      0.0817
     22  ND1       47.5930  -26.4170    9.5040 N.ar  209  HIS209     -0.2268
     23  CD2       48.8200  -26.9080    7.7640 C.ar  209  HIS209      0.1154
     24  CE1       47.4000  -27.6960    9.2380 C.ar  209  HIS209      0.1986
     25  NE2       48.1320  -28.0200    8.1870 N.ar  209  HIS209     -0.2212
     26  N         53.3530  -27.2280   12.1980 N.3   236  LYS236     -0.1245
     27  CA        53.9170  -28.4930   11.7530 C.3   236  LYS236      0.1561
     28  C         55.2260  -28.2690   11.0210 C.2   236  LYS236      0.2260
     29  O         55.3420  -27.3710   10.1920 O.2   236  LYS236     -0.2867
     30  CB        52.9440  -29.2260   10.8360 C.3   236  LYS236      0.0271
     31  CG        51.6120  -29.5140   11.4740 C.3   236  LYS236      0.0035
     32  CD        50.7270  -30.3440   10.5540 C.3   236  LYS236      0.0206
     33  CE        49.4940  -30.8380   11.3030 C.3   236  LYS236      0.1093
     34  NZ        48.8350  -31.9570   10.5800 N.3   236  LYS236     -0.1314
     35  N         50.7550  -31.4510   -0.5850 N.3   327  TYR327     -0.1241
     36  CA        50.1300  -31.6100    0.7170 C.3   327  TYR327      0.1605
     37  C         48.8300  -30.8000    0.8040 C.2   327  TYR327      0.2264
     38  O         47.8150  -31.2910    1.2920 O.2   327  TYR327     -0.2867
     39  CB        51.1280  -31.1740    1.7900 C.3   327  TYR327      0.0534
     40  CG        50.6030  -31.0910    3.2050 C.ar  327  TYR327     -0.0201
     41  CD1       50.8890  -32.0950    4.1320 C.ar  327  TYR327     -0.0009
     42  CD2       49.8660  -29.9900    3.6340 C.ar  327  TYR327     -0.0009
     43  CE1       50.4480  -32.0120    5.4430 C.ar  327  TYR327      0.0417
     44  CE2       49.4130  -29.8990    4.9480 C.ar  327  TYR327      0.0417
     45  CZ        49.7100  -30.9160    5.8470 C.ar  327  TYR327      0.1957
     46  OH        49.2690  -30.8440    7.1500 O.3   327  TYR327     -0.2866
     47  N         46.2300  -32.5760   -1.3190 N.3   330  PHE330     -0.1227
     48  CA        45.8340  -33.8650   -0.7710 C.3   330  PHE330      0.1736
     49  C         44.8990  -33.7110    0.4240 C.2   330  PHE330      0.2595
     50  O         43.9390  -34.4630    0.5660 O.2   330  PHE330     -0.2718
     51  CB        47.0500  -34.7060   -0.3770 C.3   330  PHE330      0.0547
     52  CG        46.6970  -36.0990    0.0840 C.ar  330  PHE330     -0.0202
     53  CD1       46.6010  -36.3970    1.4380 C.ar  330  PHE330     -0.0042
     54  CD2       46.4490  -37.1040   -0.8370 C.ar  330  PHE330     -0.0042
     55  CE1       46.2730  -37.6830    1.8690 C.ar  330  PHE330     -0.0003
     56  CE2       46.1180  -38.3920   -0.4140 C.ar  330  PHE330     -0.0003
     57  CZ        46.0310  -38.6790    0.9430 C.ar  330  PHE330     -0.0000
     58  N         45.1830  -32.7360    1.2820 N.am  331  TYR331     -0.1962
     59  CA        44.3880  -32.5340    2.4890 C.3   331  TYR331      0.1771
     60  C         43.3440  -31.4240    2.3570 C.2   331  TYR331      0.2619
     61  O         42.6990  -31.0540    3.3360 O.2   331  TYR331     -0.2715
     62  CB        45.3030  -32.2840    3.6960 C.3   331  TYR331      0.0574
     63  CG        46.1150  -33.5010    4.0550 C.ar  331  TYR331     -0.0198
     64  CD1       45.5180  -34.6050    4.6600 C.ar  331  TYR331     -0.0009
     65  CD2       47.4730  -33.5620    3.7680 C.ar  331  TYR331     -0.0009
     66  CE1       46.2550  -35.7330    4.9720 C.ar  331  TYR331      0.0417
     67  CE2       48.2160  -34.6820    4.0760 C.ar  331  TYR331      0.0417
     68  CZ        47.6040  -35.7660    4.6770 C.ar  331  TYR331      0.1957
     69  OH        48.3500  -36.8810    4.9820 O.3   331  TYR331     -0.2866
     70  N         43.1780  -30.9000    1.1470 N.am  332  LYS332     -0.1963
     71  CA        42.2290  -29.8140    0.9060 C.3   332  LYS332      0.1728
     72  C         42.3710  -28.6750    1.9160 C.2   332  LYS332      0.2616
     73  O         41.3800  -28.1490    2.4240 O.2   332  LYS332     -0.2715
     74  CB        40.7890  -30.3320    0.9040 C.3   332  LYS332      0.0311
     75  CG        40.3740  -30.9750   -0.4040 C.3   332  LYS332      0.0038
     76  CD        40.5440  -32.4820   -0.3690 C.3   332  LYS332      0.0206
     77  CE        39.4430  -33.1360    0.4560 C.3   332  LYS332      0.1093
     78  NZ        39.3000  -34.5860    0.1310 N.3   332  LYS332     -0.1314
     79  N         43.6110  -28.3050    2.2060 N.am  333  ILE333     -0.1977
     80  CA        43.8840  -27.1810    3.0850 C.3   333  ILE333      0.1596
     81  C         43.3240  -25.9090    2.4560 C.2   333  ILE333      0.2287
     82  O         43.5140  -25.6680    1.2680 O.2   333  ILE333     -0.2864
     83  CB        45.3920  -27.0170    3.3060 C.3   333  ILE333      0.0276
     84  CG1       45.9910  -28.3130    3.8720 C.3   333  ILE333      0.0022
     85  CG2       45.6660  -25.8460    4.2240 C.3   333  ILE333      0.0022
     86  CD1       45.4940  -28.6670    5.2690 C.3   333  ILE333      0.0001
     87  N         44.8720  -21.2250    5.0890 N.3   336  GLU336     -0.1245
     88  CA        45.9040  -21.3680    6.1080 C.3   336  GLU336      0.1567
     89  C         47.1980  -20.7890    5.5730 C.2   336  GLU336      0.2260
     90  O         47.3770  -20.6860    4.3570 O.2   336  GLU336     -0.2867
     91  CB        46.1340  -22.8420    6.4470 C.3   336  GLU336      0.0388
     92  CG        44.8820  -23.6140    6.8050 C.3   336  GLU336      0.1160
     93  CD        44.6760  -23.7370    8.2930 C.2   336  GLU336      0.3649
     94  OE1       45.2280  -22.9060    9.0480 O.co2 336  GLU336     -0.2457
     95  OE2       43.9600  -24.6710    8.7080 O.co2 336  GLU336     -0.2457
@<TRIPOS>BOND
     1    47    48    1
     2    54    56   ar
     3    54    52   ar
     4    48    51    1
     5    48    49    1
     6    35    36    1
     7    56    57   ar
     8    75    76    1
     9    75    74    1
    10    51    52    1
    11    76    77    1
    12    52    53   ar
    13    78    77    1
    14    49    50    2
    15    49    58   am
    16    36    37    1
    17    36    39    1
    18    37    38    2
    19    74    71    1
    20    71    70    1
    21    71    72    1
    22    57    55   ar
    23    70    60   am
    24    82    81    2
    25    58    59    1
    26    53    55   ar
    27    39    40    1
    28    72    79   am
    29    72    73    2
    30    79    80    1
    31    60    59    1
    32    60    61    2
    33    81    80    1
    34    59    62    1
    35    80    83    1
    36    40    42   ar
    37    40    41   ar
    38    83    84    1
    39    83    85    1
    40    42    44   ar
    41    62    63    1
    42    65    63   ar
    43    65    67   ar
    44    84    86    1
    45    63    64   ar
    46    67    68   ar
    47    41    43   ar
    48     1     2    1
    49    90    89    2
    50    64    66   ar
    51    68    66   ar
    52    68    69    1
    53    44    45   ar
    54    87    88    1
    55     2     3    1
    56     2     5    1
    57    43    45   ar
    58    89    88    1
    59     3     4    2
    60    45    46    1
    61    88    91    1
    62    91    92    1
    63     5     6    1
    64    92    93    1
    65     8     6    1
    66     6     7    1
    67    23    25   ar
    68    23    21   ar
    69    25    24   ar
    70    93    95   ar
    71    93    94   ar
    72    21    20    1
    73    21    22   ar
    74    20    17    1
    75     9    10    1
    76    24    22   ar
    77    18    17    1
    78    18    19    2
    79    16    17    1
    80    29    28    2
    81    10    13    1
    82    10    11    1
    83    15    13    1
    84    32    33    1
    85    32    31    1
    86    34    33    1
    87    30    31    1
    88    30    27    1
    89    13    14    1
    90    11    12    2
    91    28    27    1
    92    27    26    1
