@<TRIPOS>MOLECULE
tmp/3iaxA00.pdb
 210 198 0 0 0
SMALL
GASTEIGER

@<TRIPOS>ATOM
      1  N        -38.5750   -7.1100   -2.8520 N.3   169  GLN169     -0.1231
      2  CA       -38.8610   -7.6730   -4.1430 C.3   169  GLN169      0.1683
      3  C        -38.1630   -7.0380   -5.3070 C.2   169  GLN169      0.2434
      4  O        -37.4210   -6.1470   -5.1550 O.2   169  GLN169     -0.2733
      5  CB       -40.3460   -7.7350   -4.3750 C.3   169  GLN169      0.0380
      6  CG       -41.0880   -8.2200   -3.2100 C.3   169  GLN169      0.0905
      7  CD       -40.9210   -9.6820   -2.9440 C.2   169  GLN169      0.2608
      8  OE1      -40.6670  -10.4410   -3.8250 O.2   169  GLN169     -0.2717
      9  NE2      -41.0640  -10.0650   -1.7150 N.am  169  GLN169     -0.0878
     10  N        -38.4170   -7.5220   -6.4870 N.am  170  PRO170     -0.2729
     11  CA       -37.7460   -7.0140   -7.6430 C.3   170  PRO170      0.1401
     12  C        -38.2730   -5.7140   -8.1790 C.2   170  PRO170      0.2269
     13  O        -39.4110   -5.4060   -8.1120 O.2   170  PRO170     -0.2865
     14  CB       -37.9050   -8.1460   -8.6300 C.3   170  PRO170      0.0296
     15  CG       -38.0640   -9.2090   -7.9130 C.3   170  PRO170      0.0237
     16  CD       -38.7990   -8.8940   -6.7240 C.3   170  PRO170      0.0939
     17  N        -38.0490   -3.3400  -11.7280 N.3   172  MET172     -0.1230
     18  CA       -37.7240   -3.3780  -13.1310 C.3   172  MET172      0.1702
     19  C        -37.8950   -2.0750  -13.7970 C.2   172  MET172      0.2593
     20  O        -38.6200   -1.2360  -13.3600 O.2   172  MET172     -0.2718
     21  CB       -38.6020   -4.3520  -13.8430 C.3   172  MET172      0.0401
     22  CG       -38.7670   -5.6390  -13.1770 C.3   172  MET172      0.0596
     23  SD       -39.6820   -6.7310  -14.1660 S.3   172  MET172     -0.1393
     24  CE       -38.5540   -7.9470  -14.2440 C.3   172  MET172      0.0692
     25  N        -37.1860   -1.9650  -14.8980 N.am  173  SER173     -0.1952
     26  CA       -37.3290   -0.9970  -15.9400 C.3   173  SER173      0.1924
     27  C        -37.5650    0.4450  -15.6140 C.2   173  SER173      0.2314
     28  O        -38.5810    0.9700  -15.9400 O.2   173  SER173     -0.2863
     29  CB       -38.4920   -1.3990  -16.7970 C.3   173  SER173      0.2116
     30  OG       -38.5050   -2.7220  -17.1070 O.3   173  SER173     -0.2180
     31  N        -41.1640   -0.3290  -12.2510 N.3   186  VAL186     -0.1245
     32  CA       -42.0250   -1.4240  -11.8200 C.3   186  VAL186      0.1561
     33  C        -41.4830   -1.9270  -10.5060 C.2   186  VAL186      0.2260
     34  O        -40.2790   -2.1310  -10.3730 O.2   186  VAL186     -0.2867
     35  CB       -41.9820   -2.5800  -12.8220 C.3   186  VAL186      0.0252
     36  CG1      -42.9380   -3.6910  -12.4120 C.3   186  VAL186      0.0019
     37  CG2      -42.2970   -2.0680  -14.2220 C.3   186  VAL186      0.0019
     38  N        -42.3500   -4.8900   -7.2700 N.3   188  PHE188     -0.1241
     39  CA       -43.1430   -6.0410   -6.8380 C.3   188  PHE188      0.1605
     40  C        -43.3150   -6.0730   -5.3220 C.2   188  PHE188      0.2264
     41  O        -43.8550   -7.0360   -4.7700 O.2   188  PHE188     -0.2867
     42  CB       -42.5150   -7.3400   -7.3370 C.3   188  PHE188      0.0534
     43  CG       -42.6590   -7.5570   -8.8200 C.ar  188  PHE188     -0.0203
     44  CD1      -41.7830   -6.9360   -9.7170 C.ar  188  PHE188     -0.0042
     45  CD2      -43.6680   -8.3950   -9.3220 C.ar  188  PHE188     -0.0042
     46  CE1      -41.9010   -7.1410  -11.0980 C.ar  188  PHE188     -0.0003
     47  CE2      -43.8130   -8.6140  -10.6990 C.ar  188  PHE188     -0.0003
     48  CZ       -42.9300   -7.9810  -11.5960 C.ar  188  PHE188     -0.0000
     49  N        -46.3240   -7.9030   -3.6520 N.3   191  GLY191     -0.1225
     50  CA       -46.5070   -9.3030   -3.8300 C.3   191  GLY191      0.1811
     51  C        -46.8030   -9.3810   -5.2830 C.2   191  GLY191      0.2280
     52  O        -46.6130  -10.3680   -5.9360 O.2   191  GLY191     -0.2866
     53  N        -52.8710   -8.8110  -12.9370 N.3   213  ARG213     -0.1231
     54  CA       -51.8380   -9.2760  -13.7890 C.3   213  ARG213      0.1694
     55  C        -50.6790   -8.3180  -13.7840 C.2   213  ARG213      0.2592
     56  O        -50.1280   -7.9960  -12.7990 O.2   213  ARG213     -0.2718
     57  CB       -52.3180   -9.4750  -15.2290 C.3   213  ARG213      0.0321
     58  CG       -53.7430   -9.8330  -15.3810 C.3   213  ARG213      0.0489
     59  CD       -53.9630  -11.1160  -16.1040 C.3   213  ARG213      0.2205
     60  NE       -52.8450  -12.0110  -15.9370 N.pl3 213  ARG213     -0.0865
     61  CZ       -52.2460  -12.6790  -16.9180 C.cat 213  ARG213      0.5346
     62  NH1      -52.6480  -12.5700  -18.1630 N.pl3 213  ARG213      0.1354
     63  NH2      -51.2230  -13.4590  -16.6390 N.pl3 213  ARG213      0.1354
     64  N        -50.3270   -7.8480  -14.9400 N.am  214  HIS214     -0.1976
     65  CA       -48.9940   -7.2860  -15.1240 C.3   214  HIS214      0.1656
     66  C        -49.0550   -5.7740  -15.3170 C.2   214  HIS214      0.2291
     67  O        -50.0160   -5.2490  -15.8790 O.2   214  HIS214     -0.2864
     68  CB       -48.2950   -7.9410  -16.3170 C.3   214  HIS214      0.0771
     69  CG       -46.8370   -7.6170  -16.4160 C.ar  214  HIS214      0.0820
     70  ND1      -45.9390   -7.9150  -15.4130 N.ar  214  HIS214     -0.2267
     71  CD2      -46.1210   -7.0210  -17.3980 C.ar  214  HIS214      0.1154
     72  CE1      -44.7320   -7.5160  -15.7740 C.ar  214  HIS214      0.1986
     73  NE2      -44.8150   -6.9700  -16.9740 N.ar  214  HIS214     -0.2212
     74  N        -46.0810   -2.9500  -16.3640 N.3   216  GLY216     -0.1210
     75  CA       -44.6900   -2.6290  -16.5420 C.3   216  GLY216      0.1956
     76  C        -44.2280   -1.8130  -17.7050 C.2   216  GLY216      0.2611
     77  O        -44.9840   -1.3480  -18.4370 O.2   216  GLY216     -0.2717
     78  N        -42.9350   -1.6640  -17.8300 N.am  217  ALA217     -0.1979
     79  CA       -42.2800   -0.9730  -18.9180 C.3   217  ALA217      0.1597
     80  C        -42.5770    0.4540  -19.1890 C.2   217  ALA217      0.2287
     81  O        -43.0220    0.7750  -20.2220 O.2   217  ALA217     -0.2864
     82  CB       -42.4180   -1.7350  -20.1260 C.3   217  ALA217      0.0319
     83  N        -51.1800   -6.2560  -18.9210 N.3   232  SER232     -0.1217
     84  CA       -51.6150   -7.5360  -19.4900 C.3   232  SER232      0.1889
     85  C        -52.9470   -8.0580  -18.9270 C.2   232  SER232      0.2288
     86  O        -53.2390   -9.2560  -19.0370 O.2   232  SER232     -0.2866
     87  CB       -50.5080   -8.6080  -19.3690 C.3   232  SER232      0.2089
     88  OG       -50.3360   -9.0730  -18.0420 O.3   232  SER232     -0.2183
     89  N        -50.1280   -8.6520  -23.0430 N.3   237  LEU237     -0.1245
     90  CA       -49.6370   -7.3300  -22.8460 C.3   237  LEU237      0.1561
     91  C        -50.0210   -6.4120  -23.9610 C.2   237  LEU237      0.2260
     92  O        -49.8860   -6.7240  -25.0860 O.2   237  LEU237     -0.2867
     93  CB       -48.1450   -7.3680  -22.6690 C.3   237  LEU237      0.0270
     94  CG       -47.5520   -7.9980  -21.4360 C.3   237  LEU237      0.0019
     95  CD1      -46.2730   -8.5560  -21.8250 C.3   237  LEU237      0.0001
     96  CD2      -47.3790   -6.9580  -20.3830 C.3   237  LEU237      0.0001
     97  N        -48.6420  -10.2140  -27.3630 N.3   258  ASN258     -0.1240
     98  CA       -48.0520   -9.3580  -26.3480 C.3   258  ASN258      0.1653
     99  C        -47.3490   -8.1850  -26.9560 C.2   258  ASN258      0.2266
    100  O        -46.4950   -8.3390  -27.8340 O.2   258  ASN258     -0.2867
    101  CB       -47.1000  -10.1410  -25.4650 C.3   258  ASN258      0.1155
    102  CG       -47.8140  -11.2160  -24.6980 C.2   258  ASN258      0.2627
    103  OD1      -48.6220  -10.9370  -23.8120 O.2   258  ASN258     -0.2716
    104  ND2      -47.5470  -12.4520  -25.0560 N.am  258  ASN258     -0.0877
    105  N        -45.2590   -4.8760  -25.6710 N.3   260  THR260     -0.1203
    106  CA       -44.5950   -4.2580  -24.5440 C.3   260  THR260      0.1994
    107  C        -43.3760   -3.4400  -24.9470 C.2   260  THR260      0.2617
    108  O        -43.0790   -3.3130  -26.1420 O.2   260  THR260     -0.2717
    109  CB       -44.2590   -5.2960  -23.4690 C.3   260  THR260      0.1784
    110  OG1      -43.8510   -4.6150  -22.2790 O.3   260  THR260     -0.2211
    111  CG2      -43.1780   -6.2820  -23.9410 C.3   260  THR260      0.0376
    112  N        -42.7130   -2.8550  -23.9420 N.am  261  GLU261     -0.1979
    113  CA       -41.4890   -2.0540  -24.1110 C.3   261  GLU261      0.1602
    114  C        -41.6760   -0.8410  -25.0290 C.2   261  GLU261      0.2287
    115  O        -40.9530   -0.6850  -26.0120 O.2   261  GLU261     -0.2864
    116  CB       -40.3060   -2.9310  -24.5690 C.3   261  GLU261      0.0415
    117  CG       -40.1010   -4.1750  -23.7050 C.3   261  GLU261      0.1163
    118  CD       -39.0800   -5.1340  -24.2810 C.2   261  GLU261      0.3649
    119  OE1      -39.1710   -5.4930  -25.4790 O.co2 261  GLU261     -0.2457
    120  OE2      -38.1800   -5.5420  -23.5220 O.co2 261  GLU261     -0.2457
    121  N        -42.2630   -3.5930  -28.7930 N.3   274  THR274     -0.1203
    122  CA       -41.9920   -4.9660  -29.2030 C.3   274  THR274      0.1994
    123  C        -43.2620   -5.8000  -29.1770 C.2   274  THR274      0.2619
    124  O        -44.0640   -5.6900  -28.2490 O.2   274  THR274     -0.2717
    125  CB       -40.9550   -5.6170  -28.3070 C.3   274  THR274      0.1784
    126  OG1      -39.9860   -4.6340  -27.9270 O.3   274  THR274     -0.2211
    127  CG2      -40.2720   -6.7650  -29.0370 C.3   274  THR274      0.0376
    128  N        -43.4410   -6.6220  -30.2120 N.am  275  SER275     -0.1937
    129  CA       -44.5990   -7.5150  -30.3130 C.3   275  SER275      0.2055
    130  C        -44.1970   -8.9020  -30.7880 C.2   275  SER275      0.2643
    131  O        -43.3590   -9.0330  -31.6700 O.2   275  SER275     -0.2714
    132  CB       -45.6430   -6.9310  -31.2580 C.3   275  SER275      0.2130
    133  OG       -46.8840   -7.7150  -31.1500 O.3   275  SER275     -0.2179
    134  N        -44.7890   -9.9330  -30.1910 N.am  276  ASP276     -0.1971
    135  CA       -44.5310  -11.3260  -30.5980 C.3   276  ASP276      0.1709
    136  C        -45.5860  -11.8340  -31.5890 C.2   276  ASP276      0.2293
    137  O        -45.5440  -12.9840  -32.0330 O.2   276  ASP276     -0.2864
    138  CB       -44.4540  -12.2550  -29.3770 C.3   276  ASP276      0.1436
    139  CG       -45.6560  -12.1220  -28.4570 C.2   276  ASP276      0.3671
    140  OD1      -46.7290  -11.6630  -28.9100 O.co2 276  ASP276     -0.2456
    141  OD2      -45.5330  -12.4890  -27.2670 O.co2 276  ASP276     -0.2456
    142  N        -40.1080  -11.9960  -31.3450 N.3   281  PRO281     -0.2116
    143  CA       -40.2250  -10.5500  -31.1270 C.3   281  PRO281      0.1372
    144  C        -39.7130   -9.6780  -32.2880 C.2   281  PRO281      0.2244
    145  O        -38.6500   -9.9410  -32.8520 O.2   281  PRO281     -0.2868
    146  CB       -39.3610  -10.3280  -29.8850 C.3   281  PRO281      0.0268
    147  CG       -39.4680  -11.5760  -29.1650 C.3   281  PRO281      0.0207
    148  CD       -39.4840  -12.6530  -30.1860 C.3   281  PRO281      0.0892
    149  N        -35.0890  -11.6090  -34.8360 N.3   302  GLN302     -0.1245
    150  CA       -35.6660  -11.1650  -33.6010 C.3   302  GLN302      0.1566
    151  C        -35.1240   -9.8110  -33.2830 C.2   302  GLN302      0.2260
    152  O        -33.9660   -9.6200  -33.2620 O.2   302  GLN302     -0.2867
    153  CB       -35.3410  -12.1530  -32.4890 C.3   302  GLN302      0.0367
    154  CG       -36.3200  -12.2210  -31.3790 C.3   302  GLN302      0.0905
    155  CD       -36.0960  -13.3900  -30.5580 C.2   302  GLN302      0.2608
    156  OE1      -35.6490  -14.3710  -31.0410 O.2   302  GLN302     -0.2717
    157  NE2      -36.3760  -13.3030  -29.3000 N.am  302  GLN302     -0.0878
    158  N        -35.9730   -6.6740  -30.3910 N.3   304  GLN304     -0.1231
    159  CA       -36.7970   -6.2660  -29.2920 C.3   304  GLN304      0.1698
    160  C        -36.1580   -5.1450  -28.5100 C.2   304  GLN304      0.2592
    161  O        -35.0460   -4.8590  -28.7250 O.2   304  GLN304     -0.2718
    162  CB       -36.9630   -7.4610  -28.3900 C.3   304  GLN304      0.0381
    163  CG       -35.7240   -8.2340  -28.3180 C.3   304  GLN304      0.0905
    164  CD       -35.8150   -9.4740  -27.5700 C.2   304  GLN304      0.2608
    165  OE1      -35.1620  -10.3860  -27.8830 O.2   304  GLN304     -0.2717
    166  NE2      -36.5770   -9.5020  -26.5540 N.am  304  GLN304     -0.0878
    167  N        -36.8990   -4.5300  -27.6130 N.am  305  ASP305     -0.1974
    168  CA       -36.4110   -3.4960  -26.7070 C.3   305  ASP305      0.1709
    169  C        -35.8260   -2.2230  -27.3430 C.2   305  ASP305      0.2293
    170  O        -34.6850   -1.9090  -27.2090 O.2   305  ASP305     -0.2864
    171  CB       -35.3940   -4.1890  -25.8540 C.3   305  ASP305      0.1436
    172  CG       -35.5510   -3.9190  -24.4620 C.2   305  ASP305      0.3671
    173  OD1      -36.3150   -3.0590  -24.1040 O.co2 305  ASP305     -0.2456
    174  OD2      -34.8530   -4.5560  -23.7420 O.co2 305  ASP305     -0.2456
    175  N        -28.4940   -6.8710  -23.3650 N.3   347  GLU347     -0.1231
    176  CA       -29.8460   -6.4970  -23.1250 C.3   347  GLU347      0.1699
    177  C        -30.0260   -5.0510  -22.8160 C.2   347  GLU347      0.2592
    178  O        -29.1490   -4.3560  -22.5400 O.2   347  GLU347     -0.2718
    179  CB       -30.4290   -7.3160  -21.9630 C.3   347  GLU347      0.0402
    180  CG       -30.0550   -8.7390  -21.9160 C.3   347  GLU347      0.1161
    181  CD       -30.7570   -9.5300  -20.8410 C.2   347  GLU347      0.3649
    182  OE1      -31.1050   -8.9960  -19.8110 O.co2 347  GLU347     -0.2457
    183  OE2      -30.9260  -10.7200  -20.9980 O.co2 347  GLU347     -0.2457
    184  N        -31.2460   -4.6390  -22.8750 N.am  348  THR348     -0.1953
    185  CA       -31.7000   -3.3260  -22.5160 C.3   348  THR348      0.1897
    186  C        -30.9290   -2.0850  -22.9390 C.2   348  THR348      0.2313
    187  O        -30.4850   -1.3980  -22.1030 O.2   348  THR348     -0.2863
    188  CB       -32.0360   -3.3070  -21.0360 C.3   348  THR348      0.1794
    189  OG1      -30.9620   -3.8250  -20.2770 O.3   348  THR348     -0.2208
    190  CG2      -33.1470   -4.1670  -20.7970 C.3   348  THR348      0.0378
    191  N        -28.8990   -4.6260  -13.7820 N.3   391  LYS391     -0.1231
    192  CA       -29.7760   -4.6450  -14.9150 C.3   391  LYS391      0.1693
    193  C        -30.5590   -3.3760  -15.1290 C.2   391  LYS391      0.2592
    194  O        -30.6880   -2.5630  -14.2910 O.2   391  LYS391     -0.2718
    195  CB       -30.8170   -5.7570  -14.7770 C.3   391  LYS391      0.0285
    196  CG       -30.3410   -7.0360  -14.3570 C.3   391  LYS391      0.0035
    197  CD       -30.7170   -8.0290  -15.3760 C.3   391  LYS391      0.0206
    198  CE       -31.7360   -9.0180  -14.9240 C.3   391  LYS391      0.1093
    199  NZ       -31.0740  -10.1410  -14.2750 N.3   391  LYS391     -0.1314
    200  N        -31.1210   -3.2770  -16.3020 N.am  392  PHE392     -0.1976
    201  CA       -32.0140   -2.2260  -16.6700 C.3   392  PHE392      0.1639
    202  C        -31.5250   -0.8060  -16.6750 C.2   392  PHE392      0.2290
    203  O        -32.1280    0.0130  -16.0740 O.2   392  PHE392     -0.2864
    204  CB       -33.2020   -2.2580  -15.7630 C.3   392  PHE392      0.0560
    205  CG       -34.0950   -3.3960  -15.9450 C.ar  392  PHE392     -0.0200
    206  CD1      -34.7330   -3.6190  -17.1010 C.ar  392  PHE392     -0.0042
    207  CD2      -34.3230   -4.2440  -14.9170 C.ar  392  PHE392     -0.0042
    208  CE1      -35.5700   -4.6690  -17.1950 C.ar  392  PHE392     -0.0003
    209  CE2      -35.1210   -5.2600  -15.0460 C.ar  392  PHE392     -0.0003
    210  CZ       -35.7550   -5.4640  -16.1690 C.ar  392  PHE392     -0.0000
@<TRIPOS>BOND
     1   149   150    1
     2   150   151    1
     3   150   153    1
     4   151   152    2
     5   145   144    2
     6   153   154    1
     7   144   143    1
     8   137   136    2
     9   131   130    2
    10   136   135    1
    11   154   155    1
    12   142   143    1
    13   142   148    1
    14   132   133    1
    15   132   129    1
    16   143   146    1
    17   156   155    2
    18   130   129    1
    19   130   134   am
    20   135   134    1
    21   135   138    1
    22   155   157   am
    23   158   159    1
    24   129   128    1
    25   128   123   am
    26   148   147    1
    27   146   147    1
    28   138   139    1
    29   159   160    1
    30   159   162    1
    31   122   123    1
    32   122   121    1
    33   122   125    1
    34   123   124    2
    35   127   125    1
    36   140   139   ar
    37   161   160    2
    38   160   167   am
    39   139   141   ar
    40   162   163    1
    41   163   164    1
    42   125   126    1
    43   165   164    2
    44   100    99    2
    45   167   168    1
    46   164   166   am
    47    97    98    1
    48   169   170    2
    49   169   168    1
    50    99    98    1
    51   168   171    1
    52    98   101    1
    53   108   107    2
    54   115   114    2
    55   171   172    1
    56   105   106    1
    57   119   118   ar
    58   101   102    1
    59    92    91    2
    60   104   102   am
    61   114   113    1
    62   107   106    1
    63   107   112   am
    64   102   103    2
    65   116   113    1
    66   116   117    1
    67   106   109    1
    68   172   173   ar
    69   172   174   ar
    70   118   117    1
    71   118   120   ar
    72   113   112    1
    73    91    90    1
    74   111   109    1
    75   109   110    1
    76   175   176    1
    77   176   177    1
    78   176   179    1
    79    89    90    1
    80   186   185    1
    81   186   187    2
    82   184   177   am
    83   184   185    1
    84    90    93    1
    85   177   178    2
    86    93    94    1
    87   185   188    1
    88   179   180    1
    89   180   181    1
    90    95    94    1
    91    94    96    1
    92   188   190    1
    93   188   189    1
    94   183   181   ar
    95   181   182   ar
    96    81    80    2
    97    82    79    1
    98    84    87    1
    99    84    85    1
   100    84    83    1
   101    87    88    1
   102    80    79    1
   103    86    85    2
   104    79    78    1
   105    77    76    2
   106    62    61    1
   107    78    76   am
   108    76    75    1
   109    71    73   ar
   110    71    69   ar
   111   208   206   ar
   112   208   210   ar
   113    30    29    1
   114   206   205   ar
   115    73    72   ar
   116    61    63    1
   117    61    60    2
   118    29    26    1
   119   202   201    1
   120   202   203    2
   121   201   200    1
   122   201   204    1
   123    75    74    1
   124    69    68    1
   125    69    70   ar
   126    68    65    1
   127   200   193   am
   128   210   209   ar
   129    59    60    1
   130    59    58    1
   131   205   204    1
   132   205   207   ar
   133    28    27    2
   134    26    27    1
   135    26    25    1
   136    67    66    2
   137    72    70   ar
   138    58    57    1
   139   197   198    1
   140   197   196    1
   141    66    65    1
   142    57    54    1
   143   193   192    1
   144   193   194    2
   145    65    64    1
   146   209   207   ar
   147    64    55   am
   148   198   199    1
   149   192   195    1
   150   192   191    1
   151    25    19   am
   152   195   196    1
   153    24    23    1
   154    37    35    1
   155    23    22    1
   156    21    22    1
   157    21    18    1
   158    19    20    2
   159    19    18    1
   160    54    55    1
   161    54    53    1
   162    55    56    2
   163    18    17    1
   164    35    36    1
   165    35    32    1
   166    31    32    1
   167    32    33    1
   168    48    46   ar
   169    48    47   ar
   170    46    44   ar
   171    47    45   ar
   172    33    34    2
   173    44    43   ar
   174    45    43   ar
   175    43    42    1
   176    14    15    1
   177    14    11    1
   178    12    13    2
   179    12    11    1
   180    15    16    1
   181    11    10    1
   182    42    39    1
   183    38    39    1
   184    39    40    1
   185    16    10    1
   186    10     3   am
   187    52    51    2
   188    40    41    2
   189     3     4    2
   190     3     2    1
   191    51    50    1
   192     5     2    1
   193     5     6    1
   194     2     1    1
   195    50    49    1
   196     8     7    2
   197     6     7    1
   198     7     9   am
