@<TRIPOS>MOLECULE
tmp/3iayC00.pdb
 142 136 0 0 0
SMALL
GASTEIGER

@<TRIPOS>ATOM
      1  N          3.9390    4.0840   46.8850 N.3   508  ASP508     -0.1225
      2  CA         4.0590    3.1250   45.7790 C.3   508  ASP508      0.1805
      3  C          5.4140    2.4220   45.6710 C.2   508  ASP508      0.2598
      4  O          6.4410    2.9520   46.0860 O.2   508  ASP508     -0.2718
      5  CB         3.5680    3.6910   44.4450 C.3   508  ASP508      0.1424
      6  CG         4.6400    4.3730   43.6620 C.2   508  ASP508      0.3668
      7  OD1        5.1700    3.7350   42.7300 O.co2 508  ASP508     -0.2456
      8  OD2        4.9360    5.5590   43.9590 O.co2 508  ASP508     -0.2456
      9  N          5.3850    1.2080   45.1320 N.am  509  PHE509     -0.1962
     10  CA         6.5720    0.3670   45.0530 C.3   509  PHE509      0.1771
     11  C          7.4920    0.8520   43.9320 C.2   509  PHE509      0.2620
     12  O          7.0320    1.0790   42.7880 O.2   509  PHE509     -0.2715
     13  CB         6.1630   -1.0990   44.8030 C.3   509  PHE509      0.0574
     14  CG         5.5770   -1.8100   46.0320 C.ar  509  PHE509     -0.0200
     15  CD1        4.2010   -1.9330   46.1920 C.ar  509  PHE509     -0.0042
     16  CD2        6.4040   -2.3760   46.9830 C.ar  509  PHE509     -0.0042
     17  CE1        3.6480   -2.5870   47.3000 C.ar  509  PHE509     -0.0003
     18  CE2        5.8700   -3.0420   48.1080 C.ar  509  PHE509     -0.0003
     19  CZ         4.4930   -3.1550   48.2520 C.ar  509  PHE509     -0.0000
     20  N          8.7780    1.0060   44.2510 N.am  510  ASN510     -0.1958
     21  CA         9.7910    1.3020   43.2440 C.3   510  ASN510      0.1819
     22  C          9.8870    0.1240   42.2640 C.2   510  ASN510      0.2622
     23  O         10.0100   -1.0320   42.6970 O.2   510  ASN510     -0.2715
     24  CB        11.1660    1.4620   43.8820 C.3   510  ASN510      0.1195
     25  CG        11.2300    2.6020   44.8760 C.2   510  ASN510      0.2630
     26  OD1       10.7980    3.7180   44.5960 O.2   510  ASN510     -0.2716
     27  ND2       11.7970    2.3330   46.0350 N.am  510  ASN510     -0.0877
     28  N          9.8490    0.4070   40.9600 N.am  511  SER511     -0.1936
     29  CA        10.0850   -0.6510   39.9720 C.3   511  SER511      0.2055
     30  C          9.3530   -1.9510   40.3190 C.2   511  SER511      0.2643
     31  O          9.9850   -2.9780   40.4430 O.2   511  SER511     -0.2714
     32  CB        11.5900   -0.9570   39.8800 C.3   511  SER511      0.2130
     33  OG        12.3770    0.1900   39.5490 O.3   511  SER511     -0.2179
     34  N          8.0290   -1.9380   40.4780 N.am  512  LEU512     -0.1963
     35  CA         7.4010   -3.1040   41.1160 C.3   512  LEU512      0.1728
     36  C          7.6610   -4.4260   40.3900 C.2   512  LEU512      0.2616
     37  O          8.2250   -5.3410   40.9790 O.2   512  LEU512     -0.2715
     38  CB         5.8890   -2.9380   41.3300 C.3   512  LEU512      0.0311
     39  CG         5.2760   -4.2170   41.9490 C.3   512  LEU512      0.0022
     40  CD1        5.7460   -4.4180   43.4090 C.3   512  LEU512      0.0001
     41  CD2        3.7500   -4.2500   41.8490 C.3   512  LEU512      0.0001
     42  N          7.2180   -4.5520   39.1440 N.am  513  TYR513     -0.1974
     43  CA         7.2850   -5.8680   38.4880 C.3   513  TYR513      0.1639
     44  C          8.7150   -6.4310   38.3540 C.2   513  TYR513      0.2290
     45  O          8.9510   -7.5990   38.6480 O.2   513  TYR513     -0.2864
     46  CB         6.5550   -5.8610   37.1540 C.3   513  TYR513      0.0560
     47  CG         5.0470   -5.9140   37.2850 C.ar  513  TYR513     -0.0198
     48  CD1        4.4180   -5.6960   38.5090 C.ar  513  TYR513     -0.0009
     49  CD2        4.2500   -6.1420   36.1680 C.ar  513  TYR513     -0.0009
     50  CE1        3.0180   -5.7250   38.6190 C.ar  513  TYR513      0.0417
     51  CE2        2.8630   -6.1560   36.2570 C.ar  513  TYR513      0.0417
     52  CZ         2.2490   -5.9640   37.4910 C.ar  513  TYR513      0.1957
     53  OH         0.8660   -5.9810   37.5720 O.3   513  TYR513     -0.2866
     54  N         18.9410    3.1320   35.1610 N.3   574  ARG574     -0.1245
     55  CA        17.8580    4.0540   35.4960 C.3   574  ARG574      0.1563
     56  C         18.2250    4.8790   36.7290 C.2   574  ARG574      0.2260
     57  O         17.9780    6.0840   36.7910 O.2   574  ARG574     -0.2867
     58  CB        16.5380    3.3040   35.7260 C.3   574  ARG574      0.0307
     59  CG        15.3570    4.2390   35.9220 C.3   574  ARG574      0.0489
     60  CD        14.0440    3.5190   36.2730 C.3   574  ARG574      0.2205
     61  NE        13.0600    4.5210   36.6750 N.pl3 574  ARG574     -0.0865
     62  CZ        11.9910    4.3000   37.4310 C.cat 574  ARG574      0.5346
     63  NH1       11.7060    3.0800   37.8740 N.pl3 574  ARG574      0.1354
     64  NH2       11.1870    5.3150   37.7290 N.pl3 574  ARG574      0.1354
     65  N         18.3390    8.8430   37.3310 N.3   578  LYS578     -0.1245
     66  CA        17.5800    9.5050   38.3840 C.3   578  LYS578      0.1561
     67  C         18.4700   10.4020   39.2310 C.2   578  LYS578      0.2260
     68  O         18.0630   11.4990   39.6260 O.2   578  LYS578     -0.2867
     69  CB        16.9180    8.4860   39.2970 C.3   578  LYS578      0.0271
     70  CG        15.6870    7.8290   38.7400 C.3   578  LYS578      0.0035
     71  CD        15.2460    6.7440   39.7080 C.3   578  LYS578      0.0206
     72  CE        13.8090    6.3650   39.4990 C.3   578  LYS578      0.1093
     73  NZ        12.9030    7.1550   40.3700 N.3   578  LYS578     -0.1314
     74  N         12.5660    7.5290   32.4580 N.3   598  LEU598     -0.1245
     75  CA        11.3320    6.8370   32.0790 C.3   598  LEU598      0.1561
     76  C         11.5910    5.8190   30.9630 C.2   598  LEU598      0.2260
     77  O         11.0370    4.7260   30.9670 O.2   598  LEU598     -0.2867
     78  CB        10.2720    7.8350   31.6110 C.3   598  LEU598      0.0270
     79  CG         9.2730    8.4170   32.6220 C.3   598  LEU598      0.0019
     80  CD1        9.6750    8.1660   34.0780 C.3   598  LEU598      0.0001
     81  CD2        9.1510    9.8990   32.3600 C.3   598  LEU598      0.0001
     82  N         12.8850    2.7980   32.4540 N.3   601  LYS601     -0.1231
     83  CA        11.8310    2.1280   33.2120 C.3   601  LYS601      0.1693
     84  C         10.9680    1.2900   32.2590 C.2   601  LYS601      0.2591
     85  O         10.6770    0.1290   32.5160 O.2   601  LYS601     -0.2718
     86  CB        10.9810    3.1650   33.9660 C.3   601  LYS601      0.0285
     87  CG         9.6390    2.6240   34.5000 C.3   601  LYS601      0.0035
     88  CD         8.7830    3.7700   35.0800 C.3   601  LYS601      0.0206
     89  CE         7.3160    3.3530   35.1860 C.3   601  LYS601      0.1093
     90  NZ         6.5440    4.3930   35.9210 N.3   601  LYS601     -0.1314
     91  N         10.5730    1.8730   31.1360 N.am  602  ILE602     -0.1980
     92  CA         9.7830    1.1200   30.1750 C.3   602  ILE602      0.1595
     93  C         10.5850   -0.0820   29.6540 C.2   602  ILE602      0.2287
     94  O         10.0190   -1.1360   29.3910 O.2   602  ILE602     -0.2864
     95  CB         9.3280    1.9980   28.9980 C.3   602  ILE602      0.0276
     96  CG1        8.2280    2.9640   29.4700 C.3   602  ILE602      0.0022
     97  CG2        8.8250    1.1100   27.8480 C.3   602  ILE602      0.0022
     98  CD1        8.1550    4.2550   28.6520 C.3   602  ILE602      0.0001
     99  N         10.2790   -2.7210   32.3040 N.3   605  ASN605     -0.1240
    100  CA         8.9370   -3.2740   32.3470 C.3   605  ASN605      0.1653
    101  C          8.6740   -4.1040   31.0910 C.2   605  ASN605      0.2266
    102  O          7.9000   -5.0660   31.1130 O.2   605  ASN605     -0.2867
    103  CB         7.9000   -2.1710   32.5710 C.3   605  ASN605      0.1155
    104  CG         7.9210   -1.6510   34.0230 C.2   605  ASN605      0.2627
    105  OD1        8.3840   -2.3460   34.9220 O.2   605  ASN605     -0.2716
    106  ND2        7.4750   -0.4190   34.2330 N.am  605  ASN605     -0.0877
    107  N          9.4480   -7.8300   31.5600 N.3   608  TYR608     -0.1241
    108  CA         8.2180   -8.5010   32.0400 C.3   608  TYR608      0.1605
    109  C          7.2350   -8.6960   30.8660 C.2   608  TYR608      0.2264
    110  O          6.7460   -9.8100   30.6460 O.2   608  TYR608     -0.2867
    111  CB         7.5440   -7.7170   33.1820 C.3   608  TYR608      0.0534
    112  CG         6.0310   -7.8770   33.2070 C.ar  608  TYR608     -0.0201
    113  CD1        5.4390   -9.0500   33.6740 C.ar  608  TYR608     -0.0009
    114  CD2        5.2140   -6.8630   32.7470 C.ar  608  TYR608     -0.0009
    115  CE1        4.0650   -9.2130   33.6820 C.ar  608  TYR608      0.0417
    116  CE2        3.8210   -6.9970   32.7600 C.ar  608  TYR608      0.0417
    117  CZ         3.2620   -8.1740   33.2130 C.ar  608  TYR608      0.1957
    118  OH         1.9080   -8.2990   33.1930 O.3   608  TYR608     -0.2866
    119  N         -2.6450   -1.0540   41.3360 N.3   663  THR663     -0.1203
    120  CA        -1.5350   -1.9450   40.9750 C.3   663  THR663      0.1994
    121  C         -0.4670   -2.0920   42.0590 C.2   663  THR663      0.2617
    122  O         -0.2390   -3.1970   42.5550 O.2   663  THR663     -0.2717
    123  CB        -0.8660   -1.5460   39.6240 C.3   663  THR663      0.1784
    124  OG1       -1.8640   -1.4790   38.5890 O.3   663  THR663     -0.2211
    125  CG2        0.2100   -2.5830   39.2360 C.3   663  THR663      0.0376
    126  N          0.1830   -0.9850   42.4120 N.am  664  ASP664     -0.1973
    127  CA         1.3000   -1.0180   43.3380 C.3   664  ASP664      0.1709
    128  C          1.3260    0.2210   44.2330 C.2   664  ASP664      0.2293
    129  O          2.3670    0.5570   44.7820 O.2   664  ASP664     -0.2864
    130  CB         2.6230   -1.0740   42.5750 C.3   664  ASP664      0.1436
    131  CG         2.9530    0.2450   41.8780 C.2   664  ASP664      0.3671
    132  OD1        4.1550    0.5210   41.7080 O.co2 664  ASP664     -0.2456
    133  OD2        2.0230    1.0110   41.5130 O.co2 664  ASP664     -0.2456
    134  N          5.4630    8.6800   48.0760 N.3   702  GLU702     -0.1245
    135  CA         5.6990    9.3600   46.8080 C.3   702  GLU702      0.1567
    136  C          5.2990   10.8320   46.8810 C.2   702  GLU702      0.2260
    137  O          6.0780   11.7220   46.5320 O.2   702  GLU702     -0.2867
    138  CB         4.8990    8.6390   45.7020 C.3   702  GLU702      0.0388
    139  CG         5.2270    8.9900   44.2920 C.3   702  GLU702      0.1160
    140  CD         4.5470    8.0220   43.3160 C.2   702  GLU702      0.3649
    141  OE1        3.3870    7.5840   43.5780 O.co2 702  GLU702     -0.2457
    142  OE2        5.1840    7.6880   42.2970 O.co2 702  GLU702     -0.2457
@<TRIPOS>BOND
     1    97    95    1
     2    98    96    1
     3    95    96    1
     4    95    92    1
     5    94    93    2
     6    93    92    1
     7    92    91    1
     8   110   109    2
     9   109   108    1
    10    76    77    2
    11    76    75    1
    12   101   102    2
    13   101   100    1
    14    91    84   am
    15   107   108    1
    16    78    75    1
    17    78    79    1
    18   108   111    1
    19    75    74    1
    20    84    85    2
    21    84    83    1
    22    99   100    1
    23   100   103    1
    24    81    79    1
    25    82    83    1
    26   103   104    1
    27    79    80    1
    28   114   116   ar
    29   114   112   ar
    30   116   117   ar
    31   111   112    1
    32   118   117    1
    33   112   113   ar
    34    83    86    1
    35   117   115   ar
    36   113   115   ar
    37    86    87    1
    38   104   106   am
    39   104   105    2
    40    87    88    1
    41    88    89    1
    42    54    55    1
    43    89    90    1
    44    55    58    1
    45    55    56    1
    46    58    59    1
    47    59    60    1
    48    49    51   ar
    49    49    47   ar
    50    51    52   ar
    51    60    61    1
    52    61    62    2
    53    56    57    2
    54    46    47    1
    55    46    43    1
    56    47    48   ar
    57    65    66    1
    58    62    64    1
    59    62    63    1
    60    52    53    1
    61    52    50   ar
    62    44    43    1
    63    44    45    2
    64    66    67    1
    65    66    69    1
    66    43    42    1
    67    48    50   ar
    68   124   123    1
    69    70    69    1
    70    70    71    1
    71    42    36   am
    72    67    68    2
    73   125   123    1
    74    72    71    1
    75    72    73    1
    76    33    32    1
    77   123   120    1
    78    32    29    1
    79    29    30    1
    80    29    28    1
    81    30    31    2
    82    30    34   am
    83    36    37    2
    84    36    35    1
    85    34    35    1
    86    28    22   am
    87   120   119    1
    88   120   121    1
    89    35    38    1
    90    38    39    1
    91   133   131   ar
    92   132   131   ar
    93    41    39    1
    94   131   130    1
    95    39    40    1
    96   121   126   am
    97   121   122    2
    98    22    23    2
    99    22    21    1
   100   142   140   ar
   101   126   127    1
   102   130   127    1
   103     7     6   ar
   104    12    11    2
   105    21    24    1
   106    21    20    1
   107   140   141   ar
   108   140   139    1
   109   127   128    1
   110     6     8   ar
   111     6     5    1
   112    24    25    1
   113    11    20   am
   114    11    10    1
   115   128   129    2
   116   139   138    1
   117     5     2    1
   118    26    25    2
   119    13    10    1
   120    13    14    1
   121    25    27   am
   122    10     9    1
   123     9     3   am
   124     3     2    1
   125     3     4    2
   126   138   135    1
   127     2     1    1
   128    14    15   ar
   129    14    16   ar
   130    15    17   ar
   131   137   136    2
   132   135   136    1
   133   135   134    1
   134    16    18   ar
   135    17    19   ar
   136    18    19   ar
