@<TRIPOS>MOLECULE
tmp/3ib0A00.pdb
 103 101 0 0 0
SMALL
GASTEIGER

@<TRIPOS>ATOM
      1  N         18.2550   15.6840   10.1850 N.3    89  THR89      -0.1218
      2  CA        17.8530   14.3260    9.8850 C.3    89  THR89       0.1862
      3  C         16.4420   14.2910    9.2960 C.2    89  THR89       0.2287
      4  O         15.6740   15.2440    9.4360 O.2    89  THR89      -0.2866
      5  CB        17.9540   13.4500   11.1360 C.3    89  THR89       0.1770
      6  OG1       17.0120   13.9010   12.1200 O.3    89  THR89      -0.2211
      7  CG2       19.3530   13.5620   11.7060 C.3    89  THR89       0.0375
      8  N         13.2450   11.5900    9.4690 N.3    91  GLY91      -0.1225
      9  CA        12.9970   10.3500   10.1610 C.3    91  GLY91       0.1811
     10  C         12.8390    9.2120    9.1750 C.2    91  GLY91       0.2280
     11  O         12.7040    9.4280    7.9640 O.2    91  GLY91      -0.2866
     12  N          6.2990    8.0850   10.9160 N.3   250  VAL250     -0.1231
     13  CA         7.6670    8.5640   10.6710 C.3   250  VAL250      0.1692
     14  C          8.3530    8.4560   12.0270 C.2   250  VAL250      0.2592
     15  O          7.8510    8.9980   13.0120 O.2   250  VAL250     -0.2718
     16  CB         7.7060   10.0120   10.1950 C.3   250  VAL250      0.0266
     17  CG1        9.1400   10.4900   10.0760 C.3   250  VAL250      0.0020
     18  CG2        6.9920   10.1660    8.8650 C.3   250  VAL250      0.0020
     19  N          9.4820    7.7670   12.0820 N.am  251  ALA251     -0.1966
     20  CA        10.1880    7.5220   13.3340 C.3   251  ALA251      0.1713
     21  C         11.3750    8.4460   13.4660 C.2   251  ALA251      0.2458
     22  O         12.0300    8.7500   12.4820 O.2   251  ALA251     -0.2730
     23  CB        10.6690    6.1010   13.3710 C.3   251  ALA251      0.0333
     24  N         11.6890    8.8600   14.7030 N.am  252  PRO252     -0.2716
     25  CA        12.9230    9.6020   14.8950 C.3   252  PRO252      0.1536
     26  C         14.1120    8.6620   14.7280 C.2   252  PRO252      0.2598
     27  O         14.0510    7.5010   15.1490 O.2   252  PRO252     -0.2715
     28  CB        12.8030   10.0890   16.3390 C.3   252  PRO252      0.0310
     29  CG        12.0030    9.0140   17.0150 C.3   252  PRO252      0.0237
     30  CD        10.9990    8.5760   15.9740 C.3   252  PRO252      0.0939
     31  N         15.1720    9.1410   14.1280 N.am  253  ASN253     -0.1973
     32  CA        16.3540    8.3140   13.8820 C.3   253  ASN253      0.1688
     33  C         16.9840    7.7820   15.1580 C.2   253  ASN253      0.2292
     34  O         16.9380    8.4250   16.1940 O.2   253  ASN253     -0.2864
     35  CB        17.3770    9.0950   13.0760 C.3   253  ASN253      0.1181
     36  CG        17.0850    9.0320   11.6020 C.2   253  ASN253      0.2629
     37  OD1       16.2950    8.2070   11.1470 O.2   253  ASN253     -0.2716
     38  ND2       17.7120    9.9240   10.8400 N.am  253  ASN253     -0.0877
     39  N         18.4750   19.1780   22.4030 N.3   314  PRO314     -0.2116
     40  CA        17.1490   18.7030   22.7270 C.3   314  PRO314      0.1372
     41  C         17.0950   17.7460   23.8680 C.2   314  PRO314      0.2244
     42  O         17.9750   16.9680   24.0710 O.2   314  PRO314     -0.2868
     43  CB        16.6860   18.0210   21.4570 C.3   314  PRO314      0.0268
     44  CG        17.9120   17.5360   20.8420 C.3   314  PRO314      0.0207
     45  CD        18.9910   18.5390   21.1900 C.3   314  PRO314      0.0892
     46  N         12.5440   14.1510   25.0130 N.3   317  GLU317     -0.1231
     47  CA        11.1730   14.3210   24.5640 C.3   317  GLU317      0.1699
     48  C         11.1220   15.1860   23.3200 C.2   317  GLU317      0.2592
     49  O         10.3230   14.9350   22.4140 O.2   317  GLU317     -0.2718
     50  CB        10.3350   14.9620   25.6530 C.3   317  GLU317      0.0402
     51  CG         9.9250   13.9770   26.7290 C.3   317  GLU317      0.1161
     52  CD         9.2490   14.5990   27.9070 C.2   317  GLU317      0.3649
     53  OE1        9.9360   15.3260   28.6570 O.co2 317  GLU317     -0.2457
     54  OE2        8.0310   14.3780   28.0840 O.co2 317  GLU317     -0.2457
     55  N         11.9640   16.2090   23.2690 N.am  318  GLU318     -0.1966
     56  CA        12.0460   17.0270   22.0750 C.3   318  GLU318      0.1733
     57  C         12.6000   16.2180   20.9160 C.2   318  GLU318      0.2616
     58  O         12.1480   16.3600   19.7770 O.2   318  GLU318     -0.2715
     59  CB        12.9280   18.2480   22.3240 C.3   318  GLU318      0.0429
     60  CG        12.2750   19.3160   23.1750 C.3   318  GLU318      0.1163
     61  CD        13.2190   20.4560   23.4870 C.2   318  GLU318      0.3649
     62  OE1       14.3810   20.2190   23.8760 O.co2 318  GLU318     -0.2457
     63  OE2       12.8080   21.6180   23.3330 O.co2 318  GLU318     -0.2457
     64  N         13.5870   15.3720   21.2000 N.am  319  TYR319     -0.1960
     65  CA        14.2010   14.5710   20.1520 C.3   319  TYR319      0.1771
     66  C         13.1970   13.5850   19.5530 C.2   319  TYR319      0.2619
     67  O         13.1010   13.4410   18.3310 O.2   319  TYR319     -0.2715
     68  CB        15.4360   13.8160   20.6630 C.3   319  TYR319      0.0574
     69  CG        16.0330   13.0210   19.5350 C.ar  319  TYR319     -0.0198
     70  CD1       16.7880   13.6510   18.5580 C.ar  319  TYR319     -0.0009
     71  CD2       15.7640   11.6690   19.3960 C.ar  319  TYR319     -0.0009
     72  CE1       17.3050   12.9500   17.4910 C.ar  319  TYR319      0.0417
     73  CE2       16.2600   10.9570   18.3290 C.ar  319  TYR319      0.0417
     74  CZ        17.0220   11.5980   17.3810 C.ar  319  TYR319      0.1957
     75  OH        17.5140   10.8900   16.3050 O.3   319  TYR319     -0.2866
     76  N         12.4480   12.9070   20.4190 N.am  320  LEU320     -0.1963
     77  CA        11.4870   11.9040   19.9710 C.3   320  LEU320      0.1728
     78  C         10.2570   12.5430   19.3440 C.2   320  LEU320      0.2617
     79  O          9.6280   11.9630   18.4500 O.2   320  LEU320     -0.2715
     80  CB        11.0480   11.0330   21.1440 C.3   320  LEU320      0.0311
     81  CG        12.1310   10.1180   21.7050 C.3   320  LEU320      0.0022
     82  CD1       11.5660    9.3320   22.8620 C.3   320  LEU320      0.0001
     83  CD2       12.6630    9.1760   20.6110 C.3   320  LEU320      0.0001
     84  N          9.9020   13.7250   19.8460 N.am  321  GLY321     -0.1940
     85  CA         8.6990   14.4260   19.4080 C.3   321  GLY321      0.2014
     86  C          7.5200   14.1140   20.3050 C.2   321  GLY321      0.2640
     87  O          7.3190   12.9730   20.7170 O.2   321  GLY321     -0.2714
     88  N          6.7350   15.1400   20.6150 N.am  322  THR322     -0.1936
     89  CA         5.6270   15.0170   21.5500 C.3   322  THR322      0.2028
     90  C          4.6320   13.9370   21.1250 C.2   322  THR322      0.2642
     91  O          4.1530   13.1730   21.9630 O.2   322  THR322     -0.2714
     92  CB         4.9020   16.3720   21.7250 C.3   322  THR322      0.1808
     93  OG1        5.8700   17.3950   21.9950 O.3   322  THR322     -0.2208
     94  CG2        3.8930   16.3090   22.8700 C.3   322  THR322      0.0379
     95  N          4.3380   13.8880   19.8270 N.am  323  GLU323     -0.1976
     96  CA         3.4730   12.8710   19.2240 C.3   323  GLU323      0.1602
     97  C          3.8900   11.4730   19.6470 C.2   323  GLU323      0.2287
     98  O          3.1080   10.7080   20.2120 O.2   323  GLU323     -0.2864
     99  CB         3.5940   12.9290   17.7010 C.3   323  GLU323      0.0415
    100  CG         2.5540   13.7620   16.9650 C.3   323  GLU323      0.1163
    101  CD         2.4900   13.4110   15.4780 C.2   323  GLU323      0.3649
    102  OE1        2.3970   12.2070   15.1460 O.co2 323  GLU323     -0.2457
    103  OE2        2.5320   14.3370   14.6380 O.co2 323  GLU323     -0.2457
@<TRIPOS>BOND
     1    11    10    2
     2    18    16    1
     3    10     9    1
     4     3     4    2
     5     3     2    1
     6     8     9    1
     7     2     1    1
     8     2     5    1
     9    17    16    1
    10    16    13    1
    11    13    12    1
    12    13    14    1
    13    38    36   am
    14     5     7    1
    15     5     6    1
    16    37    36    2
    17    36    35    1
    18    14    19   am
    19    14    15    2
    20    19    20    1
    21    22    21    2
    22    35    32    1
    23    20    23    1
    24    20    21    1
    25    21    24   am
    26    32    31    1
    27    32    33    1
    28    31    26   am
    29   103   101   ar
    30    24    25    1
    31    24    30    1
    32    26    25    1
    33    26    27    2
    34    25    28    1
    35   102   101   ar
    36    33    34    2
    37   101   100    1
    38    30    29    1
    39    75    74    1
    40    28    29    1
    41   100    99    1
    42    74    72   ar
    43    74    73   ar
    44    72    70   ar
    45    99    96    1
    46    73    71   ar
    47    67    66    2
    48    79    78    2
    49    70    69   ar
    50    96    97    1
    51    96    95    1
    52    78    84   am
    53    78    77    1
    54    71    69   ar
    55    85    84    1
    56    85    86    1
    57    69    68    1
    58    66    65    1
    59    66    76   am
    60    97    98    2
    61    58    57    2
    62    95    90   am
    63    77    76    1
    64    77    80    1
    65    65    68    1
    66    65    64    1
    67    86    88   am
    68    86    87    2
    69    83    81    1
    70    88    89    1
    71    44    45    1
    72    44    43    1
    73    57    64   am
    74    57    56    1
    75    90    89    1
    76    90    91    2
    77    80    81    1
    78    45    39    1
    79    43    40    1
    80    89    92    1
    81    81    82    1
    82    92    93    1
    83    92    94    1
    84    56    59    1
    85    56    55    1
    86    59    60    1
    87    39    40    1
    88    49    48    2
    89    40    41    1
    90    60    61    1
    91    55    48   am
    92    48    47    1
    93    63    61   ar
    94    61    62   ar
    95    41    42    2
    96    47    46    1
    97    47    50    1
    98    50    51    1
    99    51    52    1
   100    52    54   ar
   101    52    53   ar
