@<TRIPOS>MOLECULE
tmp/3ib1A03.pdb
 96 95 0 0 0
SMALL
GASTEIGER

@<TRIPOS>ATOM
      1  N         18.6070   19.4260    1.3060 N.3    79  HIS79      -0.1241
      2  CA        19.5670   19.7670    2.3590 C.3    79  HIS79       0.1621
      3  C         20.9940   19.4400    2.0050 C.2    79  HIS79       0.2264
      4  O         21.8350   19.2410    2.8770 O.2    79  HIS79      -0.2867
      5  CB        19.2960   19.0070    3.6200 C.3    79  HIS79       0.0745
      6  CG        18.2030   19.6150    4.4550 C.ar   79  HIS79       0.0817
      7  ND1       16.9260   19.1010    4.4640 N.ar   79  HIS79      -0.2268
      8  CD2       18.1970   20.6770    5.2930 C.ar   79  HIS79       0.1154
      9  CE1       16.1780   19.8010    5.2960 C.ar   79  HIS79       0.1986
     10  NE2       16.9260   20.7750    5.7990 N.ar   79  HIS79      -0.2212
     11  N         20.9190   18.3470    9.1420 N.3    88  PRO88      -0.2102
     12  CA        19.6880   17.9260    9.7940 C.3    88  PRO88       0.1504
     13  C         19.3390   16.3920    9.6330 C.2    88  PRO88       0.2576
     14  O         19.4930   15.8980    8.5130 O.2    88  PRO88      -0.2718
     15  CB        18.7680   19.0400    9.2910 C.3    88  PRO88       0.0282
     16  CG        19.6370   20.2550    9.2640 C.3    88  PRO88       0.0208
     17  CD        21.0540   19.7910    9.0870 C.3    88  PRO88       0.0893
     18  N         18.8670   15.6200   10.6840 N.am   89  THR89      -0.1939
     19  CA        18.4160   14.1890   10.5220 C.3    89  THR89       0.2028
     20  C         17.0410   14.2290    9.8160 C.2    89  THR89       0.2642
     21  O         16.6230   15.3120    9.3980 O.2    89  THR89      -0.2714
     22  CB        18.2390   13.4510   11.8530 C.3    89  THR89       0.1808
     23  OG1       17.4550   14.2680   12.7310 O.3    89  THR89      -0.2208
     24  CG2       19.5800   13.1710   12.5000 C.3    89  THR89       0.0379
     25  N         16.3000   13.1390    9.6650 N.am   90  GLU90      -0.1976
     26  CA        15.0050   13.2270    8.9690 C.3    90  GLU90       0.1602
     27  C         14.0520   12.2840    9.6310 C.2    90  GLU90       0.2287
     28  O         12.9030   12.5940    9.8960 O.2    90  GLU90      -0.2864
     29  CB        15.1750   12.8870    7.4730 C.3    90  GLU90       0.0415
     30  CG        15.5080   14.1200    6.6510 C.3    90  GLU90       0.1163
     31  CD        15.9380   13.8730    5.2030 C.2    90  GLU90       0.3649
     32  OE1       17.0250   13.2790    5.0050 O.co2  90  GLU90      -0.2457
     33  OE2       15.2050   14.2770    4.2840 O.co2  90  GLU90      -0.2457
     34  N          6.5920    8.1310   10.8590 N.3   250  VAL250     -0.1245
     35  CA         8.0120    8.4370   10.7430 C.3   250  VAL250      0.1561
     36  C          8.6900    8.4310   12.1090 C.2   250  VAL250      0.2260
     37  O          8.0900    8.8170   13.1130 O.2   250  VAL250     -0.2867
     38  CB         8.2430    9.8030   10.0720 C.3   250  VAL250      0.0252
     39  CG1        7.5090   10.8980   10.8320 C.3   250  VAL250      0.0019
     40  CG2        9.7300   10.1090    9.9880 C.3   250  VAL250      0.0019
     41  N         12.1920    8.8130   14.7950 N.3   252  PRO252     -0.2116
     42  CA        13.4450    9.5060   15.1070 C.3   252  PRO252      0.1372
     43  C         14.6580    8.6080   14.8910 C.2   252  PRO252      0.2244
     44  O         14.6310    7.4350   15.2650 O.2   252  PRO252     -0.2868
     45  CB        13.2960    9.8390   16.5930 C.3   252  PRO252      0.0268
     46  CG        11.8270    9.9450   16.8030 C.3   252  PRO252      0.0207
     47  CD        11.2070    8.9290   15.8850 C.3   252  PRO252      0.0892
     48  N         12.2630   16.3890   23.7000 N.3   318  GLU318     -0.1231
     49  CA        12.2980   17.2480   22.5390 C.3   318  GLU318      0.1699
     50  C         12.8340   16.5070   21.3470 C.2   318  GLU318      0.2592
     51  O         12.3520   16.6790   20.2290 O.2   318  GLU318     -0.2718
     52  CB        13.2040   18.4330   22.7910 C.3   318  GLU318      0.0402
     53  CG        12.5780   19.5060   23.6220 C.3   318  GLU318      0.1161
     54  CD        13.5720   20.6150   23.8820 C.2   318  GLU318      0.3649
     55  OE1       14.6970   20.3210   24.3540 O.co2 318  GLU318     -0.2457
     56  OE2       13.2120   21.7800   23.5860 O.co2 318  GLU318     -0.2457
     57  N         13.8610   15.6710   21.5810 N.am  319  TYR319     -0.1962
     58  CA        14.4410   14.9180   20.4940 C.3   319  TYR319      0.1771
     59  C         13.4570   13.8320   20.0070 C.2   319  TYR319      0.2619
     60  O         13.2350   13.6940   18.7890 O.2   319  TYR319     -0.2715
     61  CB        15.7750   14.2700   20.8910 C.3   319  TYR319      0.0574
     62  CG        16.3220   13.4350   19.7540 C.ar  319  TYR319     -0.0198
     63  CD1       17.1730   13.9850   18.8050 C.ar  319  TYR319     -0.0009
     64  CD2       15.9720   12.0940   19.6160 C.ar  319  TYR319     -0.0009
     65  CE1       17.6850   13.2010   17.7810 C.ar  319  TYR319      0.0417
     66  CE2       16.4560   11.3300   18.5770 C.ar  319  TYR319      0.0417
     67  CZ        17.3180   11.8760   17.6610 C.ar  319  TYR319      0.1957
     68  OH        17.8060   11.1140   16.6150 O.3   319  TYR319     -0.2866
     69  N         12.8730   13.0650   20.9110 N.am  320  LEU320     -0.1963
     70  CA        11.9330   12.0610   20.4610 C.3   320  LEU320      0.1728
     71  C         10.7140   12.7350   19.8120 C.2   320  LEU320      0.2617
     72  O         10.1330   12.1790   18.8800 O.2   320  LEU320     -0.2715
     73  CB        11.4810   11.1840   21.6030 C.3   320  LEU320      0.0311
     74  CG        12.5200   10.2170   22.1240 C.3   320  LEU320      0.0022
     75  CD1       11.8610    9.1260   22.9570 C.3   320  LEU320      0.0001
     76  CD2       13.3370    9.6030   20.9890 C.3   320  LEU320      0.0001
     77  N         10.3130   13.9230   20.2620 N.am  321  GLY321     -0.1940
     78  CA         9.1410   14.5640   19.7140 C.3   321  GLY321      0.2014
     79  C          7.9340   14.2790   20.6190 C.2   321  GLY321      0.2640
     80  O          7.8940   13.2510   21.2980 O.2   321  GLY321     -0.2714
     81  N          6.9780   15.1900   20.6470 N.am  322  THR322     -0.1936
     82  CA         5.7660   15.1270   21.4380 C.3   322  THR322      0.2028
     83  C          4.7890   14.0450   20.9550 C.2   322  THR322      0.2642
     84  O          4.1310   13.3870   21.7560 O.2   322  THR322     -0.2714
     85  CB         5.0700   16.4640   21.3740 C.3   322  THR322      0.1808
     86  OG1        5.3160   17.6260   20.5670 O.3   322  THR322     -0.2208
     87  CG2        4.9830   16.8670   22.8400 C.3   322  THR322      0.0379
     88  N          4.7270   13.8970   19.6500 N.am  323  GLU323     -0.1976
     89  CA         3.8580   12.9150   19.0370 C.3   323  GLU323      0.1602
     90  C          4.2660   11.5020   19.4790 C.2   323  GLU323      0.2287
     91  O          3.4790   10.7760   20.1040 O.2   323  GLU323     -0.2864
     92  CB         3.9370   13.0040   17.5130 C.3   323  GLU323      0.0415
     93  CG         2.5800   12.8670   16.8470 C.3   323  GLU323      0.1163
     94  CD         2.6730   12.9780   15.3320 C.2   323  GLU323      0.3649
     95  OE1        2.9760   14.0700   14.8210 O.co2 323  GLU323     -0.2457
     96  OE2        2.4370   11.9660   14.6470 O.co2 323  GLU323     -0.2457
@<TRIPOS>BOND
     1     1     2    1
     2     3     2    1
     3     3     4    2
     4     2     5    1
     5     5     6    1
     6    33    31   ar
     7     6     7   ar
     8     6     8   ar
     9     7     9   ar
    10    32    31   ar
    11    31    30    1
    12     8    10   ar
    13     9    10   ar
    14    30    29    1
    15    29    26    1
    16    14    13    2
    17    26    27    1
    18    26    25    1
    19    17    11    1
    20    17    16    1
    21    11    12    1
    22    16    15    1
    23    15    12    1
    24    21    20    2
    25    27    28    2
    26    13    12    1
    27    13    18   am
    28    25    20   am
    29    20    19    1
    30    40    38    1
    31    38    35    1
    32    38    39    1
    33    19    18    1
    34    19    22    1
    35    35    34    1
    36    35    36    1
    37    22    24    1
    38    22    23    1
    39    36    37    2
    40    96    94   ar
    41    41    42    1
    42    41    47    1
    43    95    94   ar
    44    43    42    1
    45    43    44    2
    46    42    45    1
    47    94    93    1
    48    47    46    1
    49    45    46    1
    50    68    67    1
    51    93    92    1
    52    92    89    1
    53    67    65   ar
    54    67    66   ar
    55    65    63   ar
    56    66    64   ar
    57    60    59    2
    58    63    62   ar
    59    72    71    2
    60    89    90    1
    61    89    88    1
    62    90    91    2
    63    64    62   ar
    64    88    83   am
    65    78    77    1
    66    78    79    1
    67    62    61    1
    68    71    77   am
    69    71    70    1
    70    59    58    1
    71    59    69   am
    72    51    50    2
    73    70    69    1
    74    70    73    1
    75    58    61    1
    76    58    57    1
    77    86    85    1
    78    79    81   am
    79    79    80    2
    80    81    82    1
    81    83    82    1
    82    83    84    2
    83    76    74    1
    84    50    57   am
    85    50    49    1
    86    85    82    1
    87    85    87    1
    88    73    74    1
    89    74    75    1
    90    49    52    1
    91    49    48    1
    92    52    53    1
    93    56    54   ar
    94    53    54    1
    95    54    55   ar
