@<TRIPOS>MOLECULE
tmp/3ib2A03.pdb
 91 89 0 0 0
SMALL
GASTEIGER

@<TRIPOS>ATOM
      1  N         18.4110   15.9400   10.9820 N.3    89  THR89      -0.1203
      2  CA        17.9520   14.5830   10.6960 C.3    89  THR89       0.1994
      3  C         16.5350   14.5510   10.0940 C.2    89  THR89       0.2618
      4  O         15.6760   15.3480   10.4470 O.2    89  THR89      -0.2717
      5  CB        17.9610   13.7660   11.9590 C.3    89  THR89       0.1784
      6  OG1       17.0140   14.3390   12.8700 O.3    89  THR89      -0.2211
      7  CG2       19.3470   13.7680   12.5880 C.3    89  THR89       0.0376
      8  N         16.2840   13.6180    9.1840 N.am   90  GLU90      -0.1965
      9  CA        14.9760   13.5680    8.5000 C.3    90  GLU90       0.1733
     10  C         13.9130   12.7140    9.2030 C.2    90  GLU90       0.2616
     11  O         12.7170   13.0070    9.1300 O.2    90  GLU90      -0.2715
     12  CB        15.1800   13.1450    7.0370 C.3    90  GLU90       0.0429
     13  CG        15.0180   14.3340    6.1020 C.3    90  GLU90       0.1163
     14  CD        15.7370   14.1970    4.7580 C.2    90  GLU90       0.3649
     15  OE1       15.5730   13.1740    4.0670 O.co2  90  GLU90      -0.2457
     16  OE2       16.4690   15.1480    4.4040 O.co2  90  GLU90      -0.2457
     17  N         14.3370   11.6490    9.8630 N.am   91  GLY91      -0.1955
     18  CA        13.3990   10.6670   10.4610 C.3    91  GLY91       0.1869
     19  C         13.3400    9.4450    9.5470 C.2    91  GLY91       0.2309
     20  O         13.8400    9.4490    8.4110 O.2    91  GLY91      -0.2863
     21  N          6.4750    8.3950   10.9740 N.3   250  VAL250     -0.1245
     22  CA         7.8670    8.7710   10.7260 C.3   250  VAL250      0.1561
     23  C          8.5400    8.7560   12.1030 C.2   250  VAL250      0.2260
     24  O          8.0780    9.4180   13.0310 O.2   250  VAL250     -0.2867
     25  CB         8.0310   10.1260    9.9800 C.3   250  VAL250      0.0252
     26  CG1        6.6640   10.6900    9.6150 C.3   250  VAL250      0.0019
     27  CG2        8.8010   11.1250   10.8380 C.3   250  VAL250      0.0019
     28  N         11.8030    9.1130   14.9490 N.3   252  PRO252     -0.2102
     29  CA        13.0120    9.8830   15.1660 C.3   252  PRO252      0.1504
     30  C         14.2270    9.0100   15.0480 C.2   252  PRO252      0.2575
     31  O         14.1950    7.8170   15.4770 O.2   252  PRO252     -0.2718
     32  CB        12.8520   10.3830   16.6040 C.3   252  PRO252      0.0282
     33  CG        11.9820    9.3660   17.2950 C.3   252  PRO252      0.0208
     34  CD        11.0320    8.8780   16.1990 C.3   252  PRO252      0.0893
     35  N         15.2780    9.5350   14.4190 N.am  253  ASN253     -0.1975
     36  CA        16.5110    8.7720   14.1790 C.3   253  ASN253      0.1688
     37  C         17.1160    8.2190   15.5170 C.2   253  ASN253      0.2292
     38  O         16.9140    8.8310   16.5940 O.2   253  ASN253     -0.2864
     39  CB        17.5560    9.6280   13.4450 C.3   253  ASN253      0.1181
     40  CG        17.2050    9.7700   11.9350 C.2   253  ASN253      0.2629
     41  OD1       16.1430    9.3650   11.4590 O.2   253  ASN253     -0.2716
     42  ND2       18.1310   10.3030   11.1910 N.am  253  ASN253     -0.0877
     43  N         11.7830   16.6140   23.7230 N.3   318  GLU318     -0.1231
     44  CA        11.9760   17.4050   22.5150 C.3   318  GLU318      0.1699
     45  C         12.6350   16.6600   21.3780 C.2   318  GLU318      0.2592
     46  O         12.2840   16.9120   20.2380 O.2   318  GLU318     -0.2718
     47  CB        12.8260   18.6320   22.7590 C.3   318  GLU318      0.0402
     48  CG        12.1920   19.6640   23.6540 C.3   318  GLU318      0.1161
     49  CD        13.1840   20.7520   23.9490 C.2   318  GLU318      0.3649
     50  OE1       14.3020   20.4190   24.4040 O.co2 318  GLU318     -0.2457
     51  OE2       12.8540   21.9350   23.6980 O.co2 318  GLU318     -0.2457
     52  N         13.5940   15.7790   21.6800 N.am  319  TYR319     -0.1962
     53  CA        14.2310   15.0330   20.6190 C.3   319  TYR319      0.1771
     54  C         13.2010   14.0630   20.0100 C.2   319  TYR319      0.2619
     55  O         13.1410   13.9150   18.8150 O.2   319  TYR319     -0.2715
     56  CB        15.5160   14.2840   21.0510 C.3   319  TYR319      0.0574
     57  CG        16.0990   13.4940   19.9020 C.ar  319  TYR319     -0.0198
     58  CD1       16.8290   14.1210   18.9010 C.ar  319  TYR319     -0.0009
     59  CD2       15.8390   12.1310   19.7640 C.ar  319  TYR319     -0.0009
     60  CE1       17.3200   13.3880   17.7920 C.ar  319  TYR319      0.0417
     61  CE2       16.2760   11.4430   18.6700 C.ar  319  TYR319      0.0417
     62  CZ        17.0190   12.0550   17.7000 C.ar  319  TYR319      0.1957
     63  OH        17.4890   11.3130   16.6350 O.3   319  TYR319     -0.2866
     64  N         12.3970   13.4140   20.8420 N.am  320  LEU320     -0.1963
     65  CA        11.5020   12.4320   20.3050 C.3   320  LEU320      0.1728
     66  C         10.2360   13.0680   19.6750 C.2   320  LEU320      0.2617
     67  O          9.6550   12.4770   18.7340 O.2   320  LEU320     -0.2715
     68  CB        11.1520   11.3730   21.3470 C.3   320  LEU320      0.0311
     69  CG        12.3140   10.4810   21.8120 C.3   320  LEU320      0.0022
     70  CD1       11.7890    9.6010   22.9710 C.3   320  LEU320      0.0001
     71  CD2       13.0760    9.6500   20.6810 C.3   320  LEU320      0.0001
     72  N          9.8360   14.2340   20.2250 N.am  321  GLY321     -0.1940
     73  CA         8.6240   14.9600   19.8600 C.3   321  GLY321      0.2014
     74  C          7.3990   14.5400   20.6620 C.2   321  GLY321      0.2640
     75  O          7.2870   13.3920   21.1430 O.2   321  GLY321     -0.2714
     76  N          6.4330   15.5040   20.8300 N.am  322  THR322     -0.1936
     77  CA         5.1860   15.3090   21.6300 C.3   322  THR322      0.2028
     78  C          4.3120   14.2310   20.9550 C.2   322  THR322      0.2642
     79  O          3.7040   13.4180   21.6310 O.2   322  THR322     -0.2714
     80  CB         4.4430   16.6340   21.8490 C.3   322  THR322      0.1808
     81  OG1        5.4030   17.6950   21.8840 O.3   322  THR322     -0.2208
     82  CG2        3.6580   16.6010   23.1570 C.3   322  THR322      0.0379
     83  N          4.2660   14.2300   19.6030 N.am  323  GLU323     -0.1976
     84  CA         3.5970   13.1730   18.8290 C.3   323  GLU323      0.1602
     85  C          4.0610   11.7870   19.3680 C.2   323  GLU323      0.2287
     86  O          3.2730   11.0410   19.9390 O.2   323  GLU323     -0.2864
     87  CB         3.9890   13.3560   17.3610 C.3   323  GLU323      0.0415
     88  CG         2.9340   13.0330   16.2870 C.3   323  GLU323      0.1163
     89  CD         3.3830   13.5290   14.8680 C.2   323  GLU323      0.3649
     90  OE1        2.4700   13.9380   14.0850 O.co2 323  GLU323     -0.2457
     91  OE2        4.6290   13.5230   14.5510 O.co2 323  GLU323     -0.2457
@<TRIPOS>BOND
     1    15    14   ar
     2    16    14   ar
     3    14    13    1
     4    13    12    1
     5    12     9    1
     6    20    19    2
     7     9     8    1
     8     9    10    1
     9    11    10    2
    10     8     3   am
    11    10    17   am
    12    19    18    1
    13    26    25    1
    14    17    18    1
    15    25    22    1
    16    25    27    1
    17     3     4    2
    18     3     2    1
    19     2     1    1
    20     2     5    1
    21    22    21    1
    22    22    23    1
    23    42    40   am
    24    41    40    2
    25    40    39    1
    26     5     7    1
    27     5     6    1
    28    23    24    2
    29    39    36    1
    30    90    89   ar
    31    36    35    1
    32    36    37    1
    33    35    30   am
    34    91    89   ar
    35    89    88    1
    36    28    29    1
    37    28    34    1
    38    30    29    1
    39    30    31    2
    40    29    32    1
    41    37    38    2
    42    34    33    1
    43    88    87    1
    44    32    33    1
    45    63    62    1
    46    87    84    1
    47    62    60   ar
    48    62    61   ar
    49    60    58   ar
    50    61    59   ar
    51    67    66    2
    52    55    54    2
    53    84    85    1
    54    84    83    1
    55    58    57   ar
    56    85    86    2
    57    83    78   am
    58    66    72   am
    59    66    65    1
    60    59    57   ar
    61    73    72    1
    62    73    74    1
    63    57    56    1
    64    54    53    1
    65    54    64   am
    66    46    45    2
    67    65    64    1
    68    65    68    1
    69    53    56    1
    70    53    52    1
    71    74    76   am
    72    74    75    2
    73    71    69    1
    74    76    77    1
    75    78    77    1
    76    78    79    2
    77    68    69    1
    78    45    52   am
    79    45    44    1
    80    77    80    1
    81    69    70    1
    82    80    81    1
    83    80    82    1
    84    44    47    1
    85    44    43    1
    86    47    48    1
    87    48    49    1
    88    51    49   ar
    89    49    50   ar
