@<TRIPOS>MOLECULE
tmp/3ib8A00.pdb
 149 144 0 0 0
SMALL
GASTEIGER

@<TRIPOS>ATOM
      1  N         24.4150   -0.7870   -1.8780 N.3    20  HIS20      -0.1241
      2  CA        24.5010   -1.9360   -0.9570 C.3    20  HIS20       0.1621
      3  C         24.0290   -3.2600   -1.5760 C.2    20  HIS20       0.2264
      4  O         23.2900   -4.0120   -0.9470 O.2    20  HIS20      -0.2867
      5  CB        23.7060   -1.6390    0.3260 C.3    20  HIS20       0.0745
      6  CG        24.4070   -0.6960    1.2560 C.ar   20  HIS20       0.0817
      7  ND1       25.2360   -1.1330    2.2650 N.ar   20  HIS20      -0.2268
      8  CD2       24.4120    0.6590    1.3210 C.ar   20  HIS20       0.1154
      9  CE1       25.7290   -0.0880    2.9110 C.ar   20  HIS20       0.1986
     10  NE2       25.2450    1.0120    2.3560 N.ar   20  HIS20      -0.2212
     11  N         19.9410   -7.4540    4.4390 N.3    29  TYR29      -0.1241
     12  CA        19.6420   -7.5940    5.8720 C.3    29  TYR29       0.1605
     13  C         18.3160   -8.3350    6.1180 C.2    29  TYR29       0.2264
     14  O         17.6570   -8.1270    7.1350 O.2    29  TYR29      -0.2867
     15  CB        19.6710   -6.2250    6.6010 C.3    29  TYR29       0.0534
     16  CG        20.8690   -5.3360    6.2930 C.ar   29  TYR29      -0.0201
     17  CD1       22.0730   -5.8640    5.8010 C.ar   29  TYR29      -0.0009
     18  CD2       20.7980   -3.9630    6.5140 C.ar   29  TYR29      -0.0009
     19  CE1       23.1660   -5.0340    5.5210 C.ar   29  TYR29       0.0417
     20  CE2       21.8840   -3.1230    6.2420 C.ar   29  TYR29       0.0417
     21  CZ        23.0600   -3.6660    5.7470 C.ar   29  TYR29       0.1957
     22  OH        24.1190   -2.8300    5.4720 O.3    29  TYR29      -0.2866
     23  N         29.7040    2.6900   -0.9960 N.3    60  ASP60      -0.1239
     24  CA        28.8980    1.5830   -0.4490 C.3    60  ASP60       0.1674
     25  C         28.1320    0.9290   -1.5900 C.2    60  ASP60       0.2266
     26  O         26.9050    0.7880   -1.5530 O.2    60  ASP60      -0.2867
     27  CB        27.9570    2.0250    0.6860 C.3    60  ASP60       0.1410
     28  CG        28.6700    2.1870    2.0290 C.2    60  ASP60       0.3668
     29  OD1       29.8910    1.9140    2.1280 O.co2  60  ASP60      -0.2456
     30  OD2       28.0000    2.6020    3.0050 O.co2  60  ASP60      -0.2456
     31  N         32.7470    2.6000    2.8940 N.3    94  ASN94      -0.1225
     32  CA        33.2820    1.7230    3.9480 C.3    94  ASN94       0.1785
     33  C         32.9210    0.2430    3.7680 C.2    94  ASN94       0.2597
     34  O         33.6660   -0.6310    4.2120 O.2    94  ASN94      -0.2718
     35  CB        32.8870    2.2030    5.3570 C.3    94  ASN94       0.1169
     36  CG        31.3960    2.4840    5.4970 C.2    94  ASN94       0.2627
     37  OD1       30.8500    3.3300    4.7910 O.2    94  ASN94      -0.2716
     38  ND2       30.7390    1.7980    6.4330 N.am   94  ASN94      -0.0877
     39  N         31.7810   -0.0350    3.1290 N.am   95  HIS95      -0.1975
     40  CA        31.3540   -1.4250    2.8950 C.3    95  HIS95       0.1656
     41  C         32.0700   -2.0950    1.7230 C.2    95  HIS95       0.2291
     42  O         32.0750   -3.3230    1.6030 O.2    95  HIS95      -0.2864
     43  CB        29.8490   -1.4660    2.6430 C.3    95  HIS95       0.0771
     44  CG        29.0360   -1.2970    3.8810 C.ar   95  HIS95       0.0820
     45  ND1       28.4020   -2.3520    4.4980 N.ar   95  HIS95      -0.2267
     46  CD2       28.7720   -0.2020    4.6320 C.ar   95  HIS95       0.1154
     47  CE1       27.7790   -1.9150    5.5790 C.ar   95  HIS95       0.1986
     48  NE2       27.9940   -0.6160    5.6870 N.ar   95  HIS95      -0.2212
     49  N         34.9500    1.2290    9.5720 N.3   137  HIS137     -0.1241
     50  CA        33.7720    1.8890    8.9990 C.3   137  HIS137      0.1621
     51  C         33.7300    3.4060    9.0860 C.2   137  HIS137      0.2264
     52  O         32.9290    4.0430    8.3900 O.2   137  HIS137     -0.2867
     53  CB        32.5060    1.2540    9.5580 C.3   137  HIS137      0.0745
     54  CG        32.3560   -0.1710    9.1410 C.ar  137  HIS137      0.0817
     55  ND1       31.8070   -0.5340    7.9300 N.ar  137  HIS137     -0.2268
     56  CD2       32.7650   -1.3190    9.7310 C.ar  137  HIS137      0.1154
     57  CE1       31.8360   -1.8490    7.8140 C.ar  137  HIS137      0.1986
     58  NE2       32.4210   -2.3500    8.8900 N.ar  137  HIS137     -0.2212
     59  N         21.9030   12.5550   13.2690 N.3   174  LEU174     -0.1245
     60  CA        21.8080   11.2660   13.9580 C.3   174  LEU174      0.1561
     61  C         23.0490   10.9980   14.8130 C.2   174  LEU174      0.2260
     62  O         24.1780   10.9770   14.2970 O.2   174  LEU174     -0.2867
     63  CB        21.5940   10.1400   12.9460 C.3   174  LEU174      0.0270
     64  CG        20.3610   10.2660   12.0460 C.3   174  LEU174      0.0019
     65  CD1       20.3430    9.1330   11.0370 C.3   174  LEU174      0.0001
     66  CD2       19.0690   10.2910   12.8690 C.3   174  LEU174      0.0001
     67  N         24.3190    8.3500   16.2950 N.3   176  MET176     -0.1230
     68  CA        25.1200    7.1520   15.9700 C.3   176  MET176      0.1702
     69  C         26.1270    7.4010   14.8460 C.2   176  MET176      0.2592
     70  O         27.1500    6.7220   14.7610 O.2   176  MET176     -0.2718
     71  CB        24.2240    5.9680   15.5880 C.3   176  MET176      0.0401
     72  CG        23.6250    5.2160   16.7700 C.3   176  MET176      0.0596
     73  SD        24.8450    4.5790   17.9400 S.3   176  MET176     -0.1393
     74  CE        25.8660    3.5230   16.8950 C.3   176  MET176      0.0692
     75  N         25.8320    8.3680   13.9820 N.am  177  ALA177     -0.1980
     76  CA        26.7300    8.6900   12.8760 C.3   177  ALA177      0.1597
     77  C         28.1500    9.0780   13.3350 C.2   177  ALA177      0.2287
     78  O         29.1180    8.8390   12.6030 O.2   177  ALA177     -0.2864
     79  CB        26.1230    9.7880   11.9830 C.3   177  ALA177      0.0319
     80  N         30.0760    7.6970   15.4080 N.3   179  THR179     -0.1203
     81  CA        30.9470    6.5180   15.5920 C.3   179  THR179      0.1994
     82  C         31.7020    6.1770   14.3140 C.2   179  THR179      0.2617
     83  O         32.7500    5.5380   14.3650 O.2   179  THR179     -0.2717
     84  CB        30.1710    5.2450   16.0360 C.3   179  THR179      0.1784
     85  OG1       29.2050    4.9020   15.0320 O.3   179  THR179     -0.2211
     86  CG2       29.4750    5.4640   17.3750 C.3   179  THR179      0.0376
     87  N         31.1460    6.5770   13.1740 N.am  180  VAL180     -0.1979
     88  CA        31.7000    6.2060   11.8670 C.3   180  VAL180      0.1595
     89  C         31.8320    7.4150   10.9340 C.2   180  VAL180      0.2287
     90  O         31.8600    7.2670    9.7080 O.2   180  VAL180     -0.2864
     91  CB        30.8730    5.0630   11.1770 C.3   180  VAL180      0.0276
     92  CG1       31.0380    3.7280   11.9240 C.3   180  VAL180      0.0022
     93  CG2       29.3910    5.4400   11.0790 C.3   180  VAL180      0.0022
     94  N         26.8710    7.9310    2.5630 N.3   204  HIS204     -0.1226
     95  CA        27.1390    7.4000    3.9190 C.3   204  HIS204      0.1752
     96  C         25.9910    7.5780    4.9240 C.2   204  HIS204      0.2596
     97  O         25.7210    6.6740    5.7040 O.2   204  HIS204     -0.2718
     98  CB        28.4770    7.9400    4.4690 C.3   204  HIS204      0.0759
     99  CG        28.9470    7.2910    5.7400 C.ar  204  HIS204      0.0818
    100  ND1       29.2090    5.9400    5.8450 N.ar  204  HIS204     -0.2268
    101  CD2       29.2640    7.8310    6.9420 C.ar  204  HIS204      0.1154
    102  CE1       29.6480    5.6730    7.0620 C.ar  204  HIS204      0.1986
    103  NE2       29.6890    6.8030    7.7480 N.ar  204  HIS204     -0.2212
    104  N         25.3010    8.7140    4.8860 N.am  205  LEU205     -0.1966
    105  CA        24.3060    9.0110    5.9200 C.3   205  LEU205      0.1728
    106  C         22.9480    8.3270    5.6960 C.2   205  LEU205      0.2616
    107  O         22.1830    8.1520    6.6520 O.2   205  LEU205     -0.2715
    108  CB        24.1470   10.5290    6.0880 C.3   205  LEU205      0.0311
    109  CG        25.3970   11.2340    6.6520 C.3   205  LEU205      0.0022
    110  CD1       25.1800   12.7340    6.7540 C.3   205  LEU205      0.0001
    111  CD2       25.7380   10.6640    8.0260 C.3   205  LEU205      0.0001
    112  N         22.6630    7.9460    4.4500 N.am  206  HIS206     -0.1973
    113  CA        21.3620    7.3480    4.0810 C.3   206  HIS206      0.1656
    114  C         20.1620    8.2740    4.3970 C.2   206  HIS206      0.2291
    115  O         19.0670    7.8000    4.7410 O.2   206  HIS206     -0.2864
    116  CB        21.1630    5.9760    4.7610 C.3   206  HIS206      0.0771
    117  CG        22.0690    4.8950    4.2460 C.ar  206  HIS206      0.0820
    118  ND1       21.5990    3.6510    3.8730 N.ar  206  HIS206     -0.2267
    119  CD2       23.4080    4.8700    4.0310 C.ar  206  HIS206      0.1154
    120  CE1       22.6130    2.9010    3.4690 C.ar  206  HIS206      0.1986
    121  NE2       23.7230    3.6140    3.5610 N.ar  206  HIS206     -0.2212
    122  N         17.7940    1.5860    1.3890 N.3   226  TYR226     -0.1241
    123  CA        16.9540    1.8810    2.5610 C.3   226  TYR226      0.1605
    124  C         17.4680    3.1920    3.1410 C.2   226  TYR226      0.2264
    125  O         18.6280    3.5590    2.9140 O.2   226  TYR226     -0.2867
    126  CB        17.0150    0.7470    3.6070 C.3   226  TYR226      0.0534
    127  CG        18.2970    0.7650    4.4250 C.ar  226  TYR226     -0.0201
    128  CD1       18.3740    1.4950    5.6180 C.ar  226  TYR226     -0.0009
    129  CD2       19.4440    0.0880    3.9850 C.ar  226  TYR226     -0.0009
    130  CE1       19.5570    1.5430    6.3640 C.ar  226  TYR226      0.0417
    131  CE2       20.6360    0.1260    4.7240 C.ar  226  TYR226      0.0417
    132  CZ        20.6780    0.8540    5.9180 C.ar  226  TYR226      0.1957
    133  OH        21.8400    0.9210    6.6650 O.3   226  TYR226     -0.2866
    134  N         17.3490    6.4390    6.3920 N.3   228  GLN228     -0.1245
    135  CA        17.1040    6.7310    7.7950 C.3   228  GLN228      0.1566
    136  C         15.7500    7.4280    7.9910 C.2   228  GLN228      0.2260
    137  O         15.3760    8.3220    7.2270 O.2   228  GLN228     -0.2867
    138  CB        18.2430    7.5740    8.3670 C.3   228  GLN228      0.0367
    139  CG        19.5580    6.7900    8.4590 C.3   228  GLN228      0.0905
    140  CD        19.4850    5.6570    9.4700 C.2   228  GLN228      0.2608
    141  OE1       18.6980    5.7040   10.4190 O.2   228  GLN228     -0.2717
    142  NE2       20.3050    4.6280    9.2690 N.am  228  GLN228     -0.0878
    143  N         18.2030    5.7680   16.1150 N.3   237  THR237     -0.1218
    144  CA        18.3350    5.5750   14.6670 C.3   237  THR237      0.1862
    145  C         17.4940    4.3830   14.1970 C.2   237  THR237      0.2287
    146  O         17.4200    3.3520   14.8700 O.2   237  THR237     -0.2866
    147  CB        19.8220    5.4470   14.2110 C.3   237  THR237      0.1770
    148  OG1       19.8810    5.1640   12.8050 O.3   237  THR237     -0.2211
    149  CG2       20.5220    4.3430   14.9380 C.3   237  THR237      0.0375
@<TRIPOS>BOND
     1     1     2    1
     2    25    26    2
     3    25    24    1
     4     3     2    1
     5     3     4    2
     6    23    24    1
     7     2     5    1
     8    24    27    1
     9     5     6    1
    10    27    28    1
    11     6     8   ar
    12     6     7   ar
    13     8    10   ar
    14   122   123    1
    15    42    41    2
    16    41    40    1
    17    28    29   ar
    18    28    30   ar
    19     7     9   ar
    20    10     9   ar
    21   123   124    1
    22   123   126    1
    23    94    95    1
    24    43    40    1
    25    43    44    1
    26    31    32    1
    27    40    39    1
    28   125   124    2
    29    39    33   am
    30   120   121   ar
    31   120   118   ar
    32   121   119   ar
    33   126   127    1
    34    33    32    1
    35    33    34    2
    36   118   117   ar
    37    44    45   ar
    38    44    46   ar
    39    95    98    1
    40    95    96    1
    41    32    35    1
    42   129   127   ar
    43   129   131   ar
    44   119   117   ar
    45   113   114    1
    46   113   112    1
    47   113   116    1
    48   117   116    1
    49   114   115    2
    50   127   128   ar
    51    11    12    1
    52   112   106   am
    53    98    99    1
    54    45    47   ar
    55    46    48   ar
    56   131   132   ar
    57    37    36    2
    58   104    96   am
    59   104   105    1
    60    96    97    2
    61    35    36    1
    62    22    21    1
    63    36    38   am
    64    19    21   ar
    65    19    17   ar
    66    47    48   ar
    67   128   130   ar
    68   106   105    1
    69   106   107    2
    70    99   100   ar
    71    99   101   ar
    72    21    20   ar
    73    17    16   ar
    74   100   102   ar
    75    12    13    1
    76    12    15    1
    77   132   130   ar
    78   132   133    1
    79   105   108    1
    80   108   109    1
    81    13    14    2
    82    20    18   ar
    83    16    18   ar
    84    16    15    1
    85   134   135    1
    86   109   110    1
    87   109   111    1
    88   101   103   ar
    89   102   103   ar
    90   137   136    2
    91   135   136    1
    92   135   138    1
    93    57    55   ar
    94    57    58   ar
    95    55    54   ar
    96   138   139    1
    97    52    51    2
    98   139   140    1
    99    58    56   ar
   100    50    51    1
   101    50    53    1
   102    50    49    1
   103    54    53    1
   104    54    56   ar
   105   142   140   am
   106   140   141    2
   107    90    89    2
   108    89    88    1
   109    65    64    1
   110    93    91    1
   111    91    88    1
   112    91    92    1
   113    88    87    1
   114    79    76    1
   115    64    66    1
   116    64    63    1
   117    78    77    2
   118   148   147    1
   119    76    77    1
   120    76    75    1
   121    63    60    1
   122    87    82   am
   123    59    60    1
   124    60    61    1
   125    75    69   am
   126   145   144    1
   127   145   146    2
   128   147   144    1
   129   147   149    1
   130    62    61    2
   131    82    83    2
   132    82    81    1
   133   144   143    1
   134    70    69    2
   135    69    68    1
   136    85    84    1
   137    80    81    1
   138    71    68    1
   139    71    72    1
   140    81    84    1
   141    68    67    1
   142    84    86    1
   143    72    73    1
   144    74    73    1
