@<TRIPOS>MOLECULE
tmp/3ib8A01.pdb
 115 114 0 0 0
SMALL
GASTEIGER

@<TRIPOS>ATOM
      1  N         27.4120   -4.2340   -0.4440 N.3    63  ASP63      -0.1225
      2  CA        27.2590   -4.2470    1.0090 C.3    63  ASP63       0.1805
      3  C         28.3800   -4.9730    1.7660 C.2    63  ASP63       0.2598
      4  O         28.7060   -4.6080    2.9050 O.2    63  ASP63      -0.2718
      5  CB        25.9250   -4.8620    1.4320 C.3    63  ASP63       0.1424
      6  CG        25.7280   -4.7790    2.9320 C.2    63  ASP63       0.3668
      7  OD1       25.5150   -3.6590    3.4410 O.co2  63  ASP63      -0.2456
      8  OD2       25.8260   -5.8240    3.6000 O.co2  63  ASP63      -0.2456
      9  N         28.9400   -6.0120    1.1540 N.am   64  LYS64      -0.1966
     10  CA        30.0600   -6.7280    1.7610 C.3    64  LYS64       0.1728
     11  C         31.2210   -6.8930    0.7740 C.2    64  LYS64       0.2616
     12  O         32.0200   -7.8130    0.8990 O.2    64  LYS64      -0.2715
     13  CB        29.5990   -8.0800    2.3340 C.3    64  LYS64       0.0311
     14  CG        28.6560   -7.9730    3.5430 C.3    64  LYS64       0.0038
     15  CD        29.4110   -7.5030    4.8020 C.3    64  LYS64       0.0206
     16  CE        28.4540   -7.1270    5.9290 C.3    64  LYS64       0.1093
     17  NZ        27.8280   -5.7740    5.7430 N.3    64  LYS64      -0.1314
     18  N         31.3050   -5.9930   -0.2110 N.am   65  GLY65      -0.1955
     19  CA        32.3850   -6.0270   -1.1990 C.3    65  GLY65       0.1869
     20  C         32.4830   -7.3340   -1.9690 C.2    65  GLY65       0.2309
     21  O         33.5820   -7.7530   -2.3440 O.2    65  GLY65      -0.2863
     22  N         34.6080    4.6100   -3.6760 N.3    92  MET92      -0.1245
     23  CA        34.6370    3.6830   -2.5310 C.3    92  MET92       0.1570
     24  C         33.7900    4.1600   -1.3470 C.2    92  MET92       0.2261
     25  O         33.8040    5.3420   -1.0000 O.2    92  MET92      -0.2867
     26  CB        36.0720    3.5090   -2.0170 C.3    92  MET92       0.0387
     27  CG        36.9300    2.5000   -2.7730 C.3    92  MET92       0.0595
     28  SD        36.4880    0.7720   -2.4370 S.3    92  MET92      -0.1393
     29  CE        36.7280    0.6620   -0.6460 C.3    92  MET92       0.0692
     30  N         32.7470    2.6000    2.8940 N.3    94  ASN94      -0.1225
     31  CA        33.2820    1.7230    3.9480 C.3    94  ASN94       0.1785
     32  C         32.9210    0.2430    3.7680 C.2    94  ASN94       0.2597
     33  O         33.6660   -0.6310    4.2120 O.2    94  ASN94      -0.2718
     34  CB        32.8870    2.2030    5.3570 C.3    94  ASN94       0.1169
     35  CG        31.3960    2.4840    5.4970 C.2    94  ASN94       0.2627
     36  OD1       30.8500    3.3300    4.7910 O.2    94  ASN94      -0.2716
     37  ND2       30.7390    1.7980    6.4330 N.am   94  ASN94      -0.0877
     38  N         31.7810   -0.0350    3.1290 N.am   95  HIS95      -0.1961
     39  CA        31.3540   -1.4250    2.8950 C.3    95  HIS95       0.1787
     40  C         32.0700   -2.0950    1.7230 C.2    95  HIS95       0.2620
     41  O         32.0750   -3.3230    1.6030 O.2    95  HIS95      -0.2715
     42  CB        29.8490   -1.4660    2.6430 C.3    95  HIS95       0.0785
     43  CG        29.0360   -1.2970    3.8810 C.ar   95  HIS95       0.0821
     44  ND1       28.4020   -2.3520    4.4980 N.ar   95  HIS95      -0.2267
     45  CD2       28.7720   -0.2020    4.6320 C.ar   95  HIS95       0.1154
     46  CE1       27.7790   -1.9150    5.5790 C.ar   95  HIS95       0.1986
     47  NE2       27.9940   -0.6160    5.6870 N.ar   95  HIS95      -0.2212
     48  N         32.6390   -1.2830    0.8420 N.am   96  ASP96      -0.1957
     49  CA        33.3200   -1.8020   -0.3400 C.3    96  ASP96       0.1840
     50  C         34.6840   -2.4220   -0.0440 C.2    96  ASP96       0.2622
     51  O         35.2810   -2.1710    1.0090 O.2    96  ASP96      -0.2715
     52  CB        33.4580   -0.6980   -1.3860 C.3    96  ASP96       0.1450
     53  CG        32.1400   -0.3320   -2.0080 C.2    96  ASP96       0.3671
     54  OD1       31.5330   -1.2110   -2.6570 O.co2  96  ASP96      -0.2456
     55  OD2       31.7110    0.8290   -1.8330 O.co2  96  ASP96      -0.2456
     56  N         35.1630   -3.2390   -0.9770 N.am   97  ASP97      -0.1971
     57  CA        36.5090   -3.7910   -0.9020 C.3    97  ASP97       0.1709
     58  C         37.3020   -3.2740   -2.0950 C.2    97  ASP97       0.2293
     59  O         36.9120   -3.5130   -3.2360 O.2    97  ASP97      -0.2864
     60  CB        36.4710   -5.3210   -0.8930 C.3    97  ASP97       0.1436
     61  CG        37.8560   -5.9370   -0.7740 C.2    97  ASP97       0.3671
     62  OD1       38.1680   -6.4740    0.3110 O.co2  97  ASP97      -0.2456
     63  OD2       38.6290   -5.8860   -1.7540 O.co2  97  ASP97      -0.2456
     64  N         45.2250   -2.6880   -2.9630 N.3   112  MET112     -0.1245
     65  CA        44.6120   -2.1460   -1.7550 C.3   112  MET112      0.1570
     66  C         44.9060   -0.6490   -1.5660 C.2   112  MET112      0.2261
     67  O         44.5680   -0.0800   -0.5370 O.2   112  MET112     -0.2867
     68  CB        45.0230   -2.9690   -0.5290 C.3   112  MET112      0.0387
     69  CG        44.3370   -4.3400   -0.4530 C.3   112  MET112      0.0595
     70  SD        42.5270   -4.2190   -0.4350 S.3   112  MET112     -0.1393
     71  CE        42.2490   -3.3620    1.1120 C.3   112  MET112      0.0692
     72  N         37.4370    5.6260    2.7130 N.3   132  SER132     -0.1202
     73  CA        37.3790    4.3250    3.3920 C.3   132  SER132      0.2020
     74  C         38.6940    3.9220    4.0820 C.2   132  SER132      0.2619
     75  O         39.7890    4.3260    3.6760 O.2   132  SER132     -0.2717
     76  CB        36.9240    3.2140    2.4380 C.3   132  SER132      0.2103
     77  OG        38.0090    2.7620    1.6310 O.3   132  SER132     -0.2182
     78  N         38.5500    3.1100    5.1250 N.am  133  VAL133     -0.1966
     79  CA        39.6730    2.5570    5.8790 C.3   133  VAL133      0.1712
     80  C         39.4420    1.0420    5.9020 C.2   133  VAL133      0.2458
     81  O         38.4930    0.5740    6.5370 O.2   133  VAL133     -0.2730
     82  CB        39.6920    3.0850    7.3280 C.3   133  VAL133      0.0289
     83  CG1       40.8660    2.4720    8.1230 C.3   133  VAL133      0.0023
     84  CG2       39.7500    4.6200    7.3610 C.3   133  VAL133      0.0023
     85  N         40.2820    0.2680    5.1910 N.am  134  PRO134     -0.2716
     86  CA        40.0700   -1.1820    5.1740 C.3   134  PRO134      0.1536
     87  C         39.9260   -1.7700    6.5770 C.2   134  PRO134      0.2599
     88  O         40.7020   -1.4290    7.4830 O.2   134  PRO134     -0.2715
     89  CB        41.3320   -1.7070    4.4910 C.3   134  PRO134      0.0310
     90  CG        41.7240   -0.5950    3.5720 C.3   134  PRO134      0.0237
     91  CD        41.4360    0.6600    4.3560 C.3   134  PRO134      0.0939
     92  N         38.9080   -2.6120    6.7560 N.am  135  GLY135     -0.1941
     93  CA        38.6550   -3.2580    8.0410 C.3   135  GLY135      0.2014
     94  C         37.9250   -2.3780    9.0460 C.2   135  GLY135      0.2639
     95  O         37.6620   -2.8160   10.1680 O.2   135  GLY135     -0.2714
     96  N         37.5740   -1.1550    8.6340 N.am  136  HIS136     -0.1959
     97  CA        36.9420   -0.1640    9.5150 C.3   136  HIS136      0.1787
     98  C         35.8010    0.5460    8.8040 C.2   136  HIS136      0.2620
     99  O         35.7220    0.5130    7.5710 O.2   136  HIS136     -0.2715
    100  CB        37.9680    0.8740    9.9750 C.3   136  HIS136      0.0785
    101  CG        38.9940    0.3290   10.9190 C.ar  136  HIS136      0.0821
    102  ND1       40.1160   -0.3430   10.4870 N.ar  136  HIS136     -0.2267
    103  CD2       39.0650    0.3540   12.2700 C.ar  136  HIS136      0.1154
    104  CE1       40.8420   -0.7040   11.5320 C.ar  136  HIS136      0.1986
    105  NE2       40.2230   -0.2950   12.6260 N.ar  136  HIS136     -0.2212
    106  N         34.9500    1.2290    9.5720 N.am  137  HIS137     -0.1973
    107  CA        33.7720    1.8890    8.9990 C.3   137  HIS137      0.1656
    108  C         33.7300    3.4060    9.0860 C.2   137  HIS137      0.2291
    109  O         32.9290    4.0430    8.3900 O.2   137  HIS137     -0.2864
    110  CB        32.5060    1.2540    9.5580 C.3   137  HIS137      0.0771
    111  CG        32.3560   -0.1710    9.1410 C.ar  137  HIS137      0.0820
    112  ND1       31.8070   -0.5340    7.9300 N.ar  137  HIS137     -0.2267
    113  CD2       32.7650   -1.3190    9.7310 C.ar  137  HIS137      0.1154
    114  CE1       31.8360   -1.8490    7.8140 C.ar  137  HIS137      0.1986
    115  NE2       32.4210   -2.3500    8.8900 N.ar  137  HIS137     -0.2212
@<TRIPOS>BOND
     1    22    23    1
     2    59    58    2
     3    64    65    1
     4    27    28    1
     5    27    26    1
     6    54    53   ar
     7    23    26    1
     8    23    24    1
     9    28    29    1
    10    21    20    2
    11    58    57    1
    12    53    55   ar
    13    53    52    1
    14    20    19    1
    15    65    66    1
    16    65    68    1
    17    63    61   ar
    18    66    67    2
    19    52    49    1
    20    24    25    2
    21    19    18    1
    22    56    57    1
    23    56    50   am
    24    57    60    1
    25    60    61    1
    26    61    62   ar
    27    68    69    1
    28    69    70    1
    29     1     2    1
    30    70    71    1
    31    49    50    1
    32    49    48    1
    33    18    11   am
    34    50    51    2
    35    11    12    2
    36    11    10    1
    37    48    40   am
    38     2     5    1
    39     2     3    1
    40     9    10    1
    41     9     3   am
    42     5     6    1
    43    41    40    2
    44    77    76    1
    45    40    39    1
    46    10    13    1
    47     3     4    2
    48    13    14    1
    49    76    73    1
    50    42    39    1
    51    42    43    1
    52    72    73    1
    53    30    31    1
    54    39    38    1
    55     6     7   ar
    56     6     8   ar
    57    38    32   am
    58    73    74    1
    59    14    15    1
    60    90    91    1
    61    90    89    1
    62    75    74    2
    63    32    31    1
    64    32    33    2
    65    43    44   ar
    66    43    45   ar
    67    31    34    1
    68    74    78   am
    69    91    85    1
    70    89    86    1
    71    44    46   ar
    72    45    47   ar
    73    36    35    2
    74    15    16    1
    75    78    79    1
    76    86    85    1
    77    86    87    1
    78    85    80   am
    79    34    35    1
    80    35    37   am
    81    46    47   ar
    82    17    16    1
    83    79    80    1
    84    79    82    1
    85    80    81    2
    86    87    92   am
    87    87    88    2
    88    92    93    1
    89    82    84    1
    90    82    83    1
    91    99    98    2
    92   114   112   ar
    93   114   115   ar
    94   112   111   ar
    95    93    94    1
    96   109   108    2
    97    96    94   am
    98    96    97    1
    99    98    97    1
   100    98   106   am
   101   115   113   ar
   102   107   108    1
   103   107   110    1
   104   107   106    1
   105    94    95    2
   106   111   110    1
   107   111   113   ar
   108    97   100    1
   109   100   101    1
   110   102   101   ar
   111   102   104   ar
   112   101   103   ar
   113   104   105   ar
   114   103   105   ar
