@<TRIPOS>MOLECULE
tmp/3ib8A02.pdb
 84 80 0 0 0
SMALL
GASTEIGER

@<TRIPOS>ATOM
      1  N         30.6290    7.1370  -16.3650 N.3    88  LEU88      -0.1231
      2  CA        30.3460    6.4650  -15.1170 C.3    88  LEU88       0.1693
      3  C         31.5090    6.7080  -14.1610 C.2    88  LEU88       0.2592
      4  O         32.6720    6.4940  -14.5150 O.2    88  LEU88      -0.2718
      5  CB        30.1630    4.9740  -15.4120 C.3    88  LEU88       0.0284
      6  CG        29.5800    4.0070  -14.4010 C.3    88  LEU88       0.0019
      7  CD1       28.2940    4.5530  -13.7720 C.3    88  LEU88       0.0001
      8  CD2       29.3330    2.6680  -15.1120 C.3    88  LEU88       0.0001
      9  N         31.1840    7.1820  -12.9650 N.am   89  VAL89      -0.1966
     10  CA        32.1730    7.5030  -11.9370 C.3    89  VAL89       0.1727
     11  C         31.8460    6.7160  -10.6670 C.2    89  VAL89       0.2616
     12  O         30.8000    6.9260  -10.0430 O.2    89  VAL89      -0.2715
     13  CB        32.1950    9.0180  -11.6300 C.3    89  VAL89       0.0290
     14  CG1       33.1870    9.3450  -10.5200 C.3    89  VAL89       0.0023
     15  CG2       32.5500    9.8090  -12.8880 C.3    89  VAL89       0.0023
     16  N         32.7450    5.8120  -10.2970 N.am   90  TRP90      -0.1974
     17  CA        32.5880    4.9760   -9.1030 C.3    90  TRP90       0.1640
     18  C         33.4440    5.4830   -7.9400 C.2    90  TRP90       0.2290
     19  O         34.5740    5.9340   -8.1460 O.2    90  TRP90      -0.2864
     20  CB        33.0080    3.5420   -9.4150 C.3    90  TRP90       0.0576
     21  CG        32.2180    2.8160  -10.4890 C.ar   90  TRP90       0.0006
     22  CD1       32.6840    2.3970  -11.7110 C.ar   90  TRP90       0.0946
     23  CD2       30.8520    2.3770  -10.4110 C.ar   90  TRP90       0.0152
     24  NE1       31.6920    1.7300  -12.3940 N.ar   90  TRP90      -0.2442
     25  CE2       30.5570    1.7040  -11.6220 C.ar   90  TRP90       0.0810
     26  CE3       29.8460    2.4860   -9.4360 C.ar   90  TRP90       0.0012
     27  CZ2       29.2970    1.1440  -11.8820 C.ar   90  TRP90       0.0191
     28  CZ3       28.5970    1.9250   -9.6960 C.ar   90  TRP90       0.0001
     29  CH2       28.3350    1.2640  -10.9100 C.ar   90  TRP90       0.0015
     30  N         36.0300   -2.4730  -12.3090 N.3   106  LEU106     -0.1245
     31  CA        36.9200   -1.6590  -13.1460 C.3   106  LEU106      0.1561
     32  C         37.7970   -2.4310  -14.1390 C.2   106  LEU106      0.2260
     33  O         38.4150   -1.8220  -15.0180 O.2   106  LEU106     -0.2867
     34  CB        37.8040   -0.7550  -12.2660 C.3   106  LEU106      0.0270
     35  CG        37.1240    0.1170  -11.2050 C.3   106  LEU106      0.0019
     36  CD1       38.1540    0.9440  -10.4450 C.3   106  LEU106      0.0001
     37  CD2       36.0600    1.0230  -11.8140 C.3   106  LEU106      0.0001
     38  N         41.3330    4.2970   -3.5710 N.3   115  LEU115     -0.1245
     39  CA        40.7580    4.5760   -4.8800 C.3   115  LEU115      0.1561
     40  C         40.6140    6.0910   -5.0840 C.2   115  LEU115      0.2260
     41  O         39.5230    6.6550   -4.9400 O.2   115  LEU115     -0.2867
     42  CB        39.4160    3.8490   -5.0660 C.3   115  LEU115      0.0270
     43  CG        38.8340    3.8930   -6.4910 C.3   115  LEU115      0.0019
     44  CD1       39.6550    3.0190   -7.4530 C.3   115  LEU115      0.0001
     45  CD2       37.3690    3.4550   -6.4980 C.3   115  LEU115      0.0001
     46  N         41.1860    9.1650   -7.8330 N.3   117  ARG117     -0.1231
     47  CA        41.2160    9.2770   -9.2900 C.3   117  ARG117      0.1694
     48  C         40.8090   10.6840   -9.7090 C.2   117  ARG117      0.2592
     49  O         40.1770   11.4180   -8.9440 O.2   117  ARG117     -0.2718
     50  CB        40.2570    8.2500   -9.9280 C.3   117  ARG117      0.0321
     51  CG        40.4910    6.7870   -9.4920 C.3   117  ARG117      0.0489
     52  CD        41.7170    6.1960  -10.1840 C.3   117  ARG117      0.2205
     53  NE        41.3340    5.6530  -11.4800 N.pl3 117  ARG117     -0.0865
     54  CZ        41.1290    4.3640  -11.7160 C.cat 117  ARG117      0.5346
     55  NH1       41.3120    3.4710  -10.7530 N.pl3 117  ARG117      0.1354
     56  NH2       40.7630    3.9710  -12.9280 N.pl3 117  ARG117      0.1354
     57  N         41.1790   11.0620  -10.9240 N.am  118  VAL118     -0.1966
     58  CA        40.7390   12.3450  -11.4590 C.3   118  VAL118      0.1727
     59  C         40.3490   12.1700  -12.9160 C.2   118  VAL118      0.2616
     60  O         40.9300   11.3490  -13.6320 O.2   118  VAL118     -0.2715
     61  CB        41.8040   13.4770  -11.2500 C.3   118  VAL118      0.0290
     62  CG1       43.1670   13.0840  -11.8050 C.3   118  VAL118      0.0023
     63  CG2       41.3240   14.8160  -11.8690 C.3   118  VAL118      0.0023
     64  N         39.3340   12.9090  -13.3510 N.am  119  CYS119     -0.1968
     65  CA        39.0290   12.9460  -14.7710 C.3   119  CYS119      0.1712
     66  C         38.4090   14.2760  -15.1610 C.2   119  CYS119      0.2296
     67  O         38.0310   15.0650  -14.2950 O.2   119  CYS119     -0.2864
     68  CB        38.1080   11.7840  -15.1610 C.3   119  CYS119      0.0983
     69  SG        36.4630   11.8990  -14.4550 S.3   119  CYS119     -0.0798
     70  N         36.4240   16.2850  -12.2230 N.3   126  ILE126     -0.1245
     71  CA        35.8460   15.4320  -11.1840 C.3   126  ILE126      0.1561
     72  C         36.9950   14.7100  -10.4790 C.2   126  ILE126      0.2260
     73  O         37.8050   14.0320  -11.1280 O.2   126  ILE126     -0.2867
     74  CB        34.8220   14.4110  -11.7540 C.3   126  ILE126      0.0252
     75  CG1       33.6410   15.1330  -12.4320 C.3   126  ILE126      0.0019
     76  CG2       34.3230   13.4730  -10.6220 C.3   126  ILE126      0.0019
     77  CD1       32.5820   14.1790  -13.0190 C.3   126  ILE126      0.0001
     78  N         37.7940   11.9670   -7.5440 N.3   128  VAL128     -0.1245
     79  CA        37.2710   10.9060   -6.6850 C.3   128  VAL128      0.1561
     80  C         38.2680   10.6760   -5.5450 C.2   128  VAL128      0.2260
     81  O         39.4630   10.4490   -5.7780 O.2   128  VAL128     -0.2867
     82  CB        37.0420    9.5970   -7.4750 C.3   128  VAL128      0.0252
     83  CG1       36.8160    8.4040   -6.5240 C.3   128  VAL128      0.0019
     84  CG2       35.8770    9.7610   -8.4630 C.3   128  VAL128      0.0019
@<TRIPOS>BOND
     1     1     2    1
     2     5     2    1
     3     5     6    1
     4    66    65    1
     5    66    67    2
     6    68    65    1
     7    68    69    1
     8     2     3    1
     9     8     6    1
    10    33    32    2
    11    65    64    1
    12     4     3    2
    13     6     7    1
    14     3     9   am
    15    32    31    1
    16    60    59    2
    17    64    59   am
    18    31    30    1
    19    31    34    1
    20    77    75    1
    21     9    10    1
    22    56    54    1
    23    59    58    1
    24    15    13    1
    25    75    74    1
    26    24    22   ar
    27    24    25   ar
    28    34    35    1
    29    70    71    1
    30    10    13    1
    31    10    11    1
    32    27    25   ar
    33    27    29   ar
    34    63    61    1
    35    37    35    1
    36    62    61    1
    37    74    71    1
    38    74    76    1
    39    54    53    2
    40    54    55    1
    41    22    21   ar
    42    13    14    1
    43    25    23   ar
    44    53    52    1
    45    58    61    1
    46    58    57    1
    47    35    36    1
    48    71    72    1
    49    73    72    2
    50    57    48   am
    51    29    28   ar
    52    11    16   am
    53    11    12    2
    54    21    23   ar
    55    21    20    1
    56    23    26   ar
    57    16    17    1
    58    52    51    1
    59    50    51    1
    60    50    47    1
    61    48    47    1
    62    48    49    2
    63    28    26   ar
    64    20    17    1
    65    47    46    1
    66    17    18    1
    67    84    82    1
    68    19    18    2
    69    78    79    1
    70    82    79    1
    71    82    83    1
    72    44    43    1
    73    79    80    1
    74    45    43    1
    75    43    42    1
    76    81    80    2
    77    40    41    2
    78    40    39    1
    79    42    39    1
    80    39    38    1
