@<TRIPOS>MOLECULE
tmp/3ib9B00.pdb
 95 90 0 0 0
SMALL
GASTEIGER

@<TRIPOS>ATOM
      1  N         49.2030  106.6160  104.3360 N.3    34  LYS34      -0.1245
      2  CA        49.0270  105.3740  105.0730 C.3    34  LYS34       0.1561
      3  C         48.0610  104.4530  104.3430 C.2    34  LYS34       0.2260
      4  O         47.9750  103.2630  104.6460 O.2    34  LYS34      -0.2867
      5  CB        48.5160  105.6580  106.4870 C.3    34  LYS34       0.0271
      6  CG        49.5050  106.4080  107.3650 C.3    34  LYS34       0.0035
      7  CD        48.8000  107.1130  108.5130 C.3    34  LYS34       0.0206
      8  CE        48.7190  106.2220  109.7420 C.3    34  LYS34       0.1093
      9  NZ        49.9710  106.2710  110.5460 N.3    34  LYS34      -0.1314
     10  N         44.8680  105.2530  104.4060 N.3    36  LYS36      -0.1245
     11  CA        43.6190  105.4630  105.1350 C.3    36  LYS36       0.1561
     12  C         42.8730  106.6910  104.6200 C.2    36  LYS36       0.2260
     13  O         43.4560  107.7680  104.4920 O.2    36  LYS36      -0.2867
     14  CB        43.8910  105.6030  106.6340 C.3    36  LYS36       0.0271
     15  CG        44.7760  104.5090  107.2090 C.3    36  LYS36       0.0035
     16  CD        45.0000  104.7070  108.6990 C.3    36  LYS36       0.0206
     17  CE        43.9860  105.6750  109.2860 C.3    36  LYS36       0.1093
     18  NZ        44.5240  106.3910  110.4760 N.3    36  LYS36      -0.1314
     19  N         40.9240  111.7280  112.3390 N.3    97  PHE97      -0.1241
     20  CA        42.2620  111.5540  112.8890 C.3    97  PHE97       0.1605
     21  C         43.1530  112.7460  112.5570 C.2    97  PHE97       0.2264
     22  O         44.2520  112.8800  113.0950 O.2    97  PHE97      -0.2867
     23  CB        42.8940  110.2630  112.3640 C.3    97  PHE97       0.0534
     24  CG        44.1190  109.8370  113.1210 C.ar   97  PHE97      -0.0203
     25  CD1       44.0070  109.2090  114.3500 C.ar   97  PHE97      -0.0042
     26  CD2       45.3840  110.0630  112.6040 C.ar   97  PHE97      -0.0042
     27  CE1       45.1320  108.8150  115.0490 C.ar   97  PHE97      -0.0003
     28  CE2       46.5130  109.6720  113.2980 C.ar   97  PHE97      -0.0003
     29  CZ        46.3870  109.0470  114.5220 C.ar   97  PHE97      -0.0000
     30  N         43.2140  108.4380  118.3590 N.3   133  GLY133     -0.1225
     31  CA        44.3910  108.1650  119.1600 C.3   133  GLY133      0.1811
     32  C         44.0340  107.7860  120.5820 C.2   133  GLY133      0.2280
     33  O         44.7870  107.0790  121.2520 O.2   133  GLY133     -0.2866
     34  N         43.0570  103.7590  115.0520 N.3   170  PRO170     -0.2116
     35  CA        43.2750  103.3940  116.4540 C.3   170  PRO170      0.1372
     36  C         41.9870  103.4140  117.2740 C.2   170  PRO170      0.2244
     37  O         41.0150  104.0770  116.9130 O.2   170  PRO170     -0.2868
     38  CB        44.2290  104.4830  116.9500 C.3   170  PRO170      0.0268
     39  CG        44.9720  104.9060  115.7330 C.3   170  PRO170      0.0207
     40  CD        43.9930  104.8030  114.5980 C.3   170  PRO170      0.0892
     41  N         42.1240  103.2040  121.3780 N.3   172  ALA172     -0.1245
     42  CA        42.9440  102.9050  122.5450 C.3   172  ALA172      0.1562
     43  C         42.2260  103.2800  123.8380 C.2   172  ALA172      0.2260
     44  O         41.3080  104.1000  123.8360 O.2   172  ALA172     -0.2867
     45  CB        44.2810  103.6240  122.4510 C.3   172  ALA172      0.0290
     46  N         46.2010   95.6370  109.0940 N.3   190  GLN190     -0.1245
     47  CA        47.4410   96.3820  108.9790 C.3   190  GLN190      0.1566
     48  C         47.1580   97.8710  108.9290 C.2   190  GLN190      0.2260
     49  O         48.0390   98.6630  108.5940 O.2   190  GLN190     -0.2867
     50  CB        48.2130   95.9500  107.7310 C.3   190  GLN190      0.0367
     51  CG        48.5940   94.4790  107.7150 C.3   190  GLN190      0.0905
     52  CD        49.4720   94.0910  108.8890 C.2   190  GLN190      0.2608
     53  OE1       49.7900   94.9210  109.7410 O.2   190  GLN190     -0.2717
     54  NE2       49.8690   92.8250  108.9380 N.am  190  GLN190     -0.0878
     55  N         43.7630   99.2030  114.7410 N.3   193  HIS193     -0.1241
     56  CA        44.2630   98.6250  115.9840 C.3   193  HIS193      0.1621
     57  C         43.3580   98.9440  117.1780 C.2   193  HIS193      0.2264
     58  O         42.8060  100.0400  117.2850 O.2   193  HIS193     -0.2867
     59  CB        45.6880   99.1090  116.2620 C.3   193  HIS193      0.0745
     60  CG        46.6450   98.8460  115.1420 C.ar  193  HIS193      0.0817
     61  ND1       46.7080   99.6380  114.0150 N.ar  193  HIS193     -0.2268
     62  CD2       47.5780   97.8790  114.9740 C.ar  193  HIS193      0.1154
     63  CE1       47.6380   99.1700  113.2020 C.ar  193  HIS193      0.1986
     64  NE2       48.1810   98.1030  113.7600 N.ar  193  HIS193     -0.2212
     65  N         43.2090   98.2720  121.5990 N.3   195  PHE195     -0.1241
     66  CA        43.8640   97.7790  122.8050 C.3   195  PHE195      0.1605
     67  C         43.7060   98.7620  123.9580 C.2   195  PHE195      0.2264
     68  O         43.8230   99.9730  123.7730 O.2   195  PHE195     -0.2867
     69  CB        45.3470   97.5160  122.5380 C.3   195  PHE195      0.0534
     70  CG        46.1000   98.7230  122.0560 C.ar  195  PHE195     -0.0203
     71  CD1       46.6010   99.6490  122.9560 C.ar  195  PHE195     -0.0042
     72  CD2       46.3060   98.9330  120.7030 C.ar  195  PHE195     -0.0042
     73  CE1       47.2940  100.7610  122.5150 C.ar  195  PHE195     -0.0003
     74  CE2       46.9980  100.0430  120.2560 C.ar  195  PHE195     -0.0003
     75  CZ        47.4920  100.9580  121.1640 C.ar  195  PHE195     -0.0000
     76  N         52.4870   96.6090  117.9190 N.3   212  PHE212     -0.1227
     77  CA        51.0950   97.0450  117.9070 C.3   212  PHE212      0.1736
     78  C         50.2430   96.0840  117.0870 C.2   212  PHE212      0.2595
     79  O         49.1100   95.7710  117.4510 O.2   212  PHE212     -0.2718
     80  CB        50.9820   98.4630  117.3420 C.3   212  PHE212      0.0547
     81  CG        51.2370   99.5410  118.3560 C.ar  212  PHE212     -0.0202
     82  CD1       50.2530   99.9100  119.2570 C.ar  212  PHE212     -0.0042
     83  CD2       52.4620  100.1850  118.4090 C.ar  212  PHE212     -0.0042
     84  CE1       50.4840  100.9020  120.1920 C.ar  212  PHE212     -0.0003
     85  CE2       52.7000  101.1780  119.3400 C.ar  212  PHE212     -0.0003
     86  CZ        51.7100  101.5360  120.2330 C.ar  212  PHE212     -0.0000
     87  N         50.8100   95.6510  115.9640 N.am  213  GLU213     -0.1979
     88  CA        50.2240   94.6070  115.1390 C.3   213  GLU213      0.1602
     89  C         49.8640   93.3910  115.9770 C.2   213  GLU213      0.2287
     90  O         48.7000   92.9930  116.0300 O.2   213  GLU213     -0.2864
     91  CB        51.1860   94.2070  114.0190 C.3   213  GLU213      0.0415
     92  CG        50.5190   93.4930  112.8540 C.3   213  GLU213      0.1163
     93  CD        49.1770   94.0970  112.4910 C.2   213  GLU213      0.3649
     94  OE1       49.0640   95.3410  112.4900 O.co2 213  GLU213     -0.2457
     95  OE2       48.2350   93.3280  112.2070 O.co2 213  GLU213     -0.2457
@<TRIPOS>BOND
     1     1     2    1
     2     3     4    2
     3     3     2    1
     4    10    11    1
     5    13    12    2
     6    12    11    1
     7     2     5    1
     8    11    14    1
     9     5     6    1
    10    14    15    1
    11    15    16    1
    12     6     7    1
    13    51    50    1
    14    51    52    1
    15    50    47    1
    16     7     8    1
    17    49    48    2
    18    16    17    1
    19    52    54   am
    20    52    53    2
    21    48    47    1
    22    47    46    1
    23    17    18    1
    24     8     9    1
    25    95    93   ar
    26    19    20    1
    27    23    20    1
    28    23    24    1
    29    94    93   ar
    30    93    92    1
    31    21    20    1
    32    21    22    2
    33    26    24   ar
    34    26    28   ar
    35    92    91    1
    36    24    25   ar
    37    63    64   ar
    38    63    61   ar
    39    28    29   ar
    40    64    62   ar
    41    61    60   ar
    42    91    88    1
    43    25    27   ar
    44    29    27   ar
    45    40    34    1
    46    40    39    1
    47    55    56    1
    48    62    60   ar
    49    34    35    1
    50    88    87    1
    51    88    89    1
    52    60    59    1
    53    39    38    1
    54    87    78   am
    55    89    90    2
    56    56    59    1
    57    56    57    1
    58    35    38    1
    59    35    36    1
    60    37    36    2
    61    78    79    2
    62    78    77    1
    63    57    58    2
    64    80    77    1
    65    80    81    1
    66    77    76    1
    67    81    83   ar
    68    81    82   ar
    69    30    31    1
    70    83    85   ar
    71    31    32    1
    72    82    84   ar
    73    85    86   ar
    74    84    86   ar
    75    74    72   ar
    76    74    75   ar
    77    32    33    2
    78    72    70   ar
    79    75    73   ar
    80    41    42    1
    81    65    66    1
    82    70    69    1
    83    70    71   ar
    84    45    42    1
    85    73    71   ar
    86    69    66    1
    87    42    43    1
    88    66    67    1
    89    68    67    2
    90    44    43    2
