@<TRIPOS>MOLECULE
tmp/3ibaA00.pdb
 172 158 0 0 0
SMALL
GASTEIGER

@<TRIPOS>ATOM
      1  N         14.0340   17.6870  157.9850 N.3    94  TYR94      -0.1227
      2  CA        13.6940   18.5690  156.8750 C.3    94  TYR94       0.1736
      3  C         12.2020   18.5990  156.5790 C.2    94  TYR94       0.2595
      4  O         11.6690   19.6360  156.1960 O.2    94  TYR94      -0.2718
      5  CB        14.5090   18.2270  155.6250 C.3    94  TYR94       0.0548
      6  CG        15.8800   18.8600  155.6420 C.ar   94  TYR94      -0.0200
      7  CD1       16.0260   20.2440  155.5240 C.ar   94  TYR94      -0.0009
      8  CD2       17.0280   18.0860  155.7880 C.ar   94  TYR94      -0.0009
      9  CE1       17.2790   20.8420  155.5470 C.ar   94  TYR94       0.0417
     10  CE2       18.2910   18.6740  155.8110 C.ar   94  TYR94       0.0417
     11  CZ        18.4050   20.0530  155.6920 C.ar   94  TYR94       0.1957
     12  OH        19.6420   20.6520  155.7110 O.3    94  TYR94      -0.2866
     13  N         11.5400   17.4630  156.7780 N.am   95  LEU95      -0.1980
     14  CA        10.0940   17.3540  156.6010 C.3    95  LEU95       0.1596
     15  C          9.3240   18.2040  157.6110 C.2    95  LEU95       0.2287
     16  O          8.3380   18.8530  157.2530 O.2    95  LEU95      -0.2864
     17  CB         9.6540   15.8860  156.6770 C.3    95  LEU95       0.0297
     18  CG         9.4250   15.0970  155.3790 C.3    95  LEU95       0.0022
     19  CD1       10.4290   15.4300  154.2740 C.3    95  LEU95       0.0001
     20  CD2        9.4120   13.6050  155.6650 C.3    95  LEU95       0.0001
     21  N         10.0420   21.8920  156.6530 N.3    98  ASP98      -0.1225
     22  CA         9.4380   22.1090  155.3330 C.3    98  ASP98       0.1805
     23  C          7.9240   22.3450  155.4060 C.2    98  ASP98       0.2597
     24  O          7.3960   23.2160  154.7140 O.2    98  ASP98      -0.2718
     25  CB         9.7490   20.9280  154.4040 C.3    98  ASP98       0.1424
     26  CG         9.0950   21.0590  153.0430 C.2    98  ASP98       0.3668
     27  OD1        9.6350   21.7800  152.1730 O.co2  98  ASP98      -0.2456
     28  OD2        8.0390   20.4270  152.8330 O.co2  98  ASP98      -0.2456
     29  N          7.2420   21.5660  156.2450 N.am   99  ASP99      -0.1974
     30  CA         5.7890   21.6640  156.4100 C.3    99  ASP99       0.1709
     31  C          5.3520   23.0060  156.9880 C.2    99  ASP99       0.2293
     32  O          4.3190   23.5490  156.5940 O.2    99  ASP99      -0.2864
     33  CB         5.2650   20.5140  157.2760 C.3    99  ASP99       0.1436
     34  CG         5.2850   19.1770  156.5530 C.2    99  ASP99       0.3671
     35  OD1        5.4310   19.1590  155.3110 O.co2  99  ASP99      -0.2456
     36  OD2        5.1470   18.1360  157.2280 O.co2  99  ASP99      -0.2456
     37  N          5.9710   25.6810  154.1560 N.3   102  ASP102     -0.1239
     38  CA         5.0180   25.5370  153.0580 C.3   102  ASP102      0.1674
     39  C          3.5630   25.6540  153.5100 C.2   102  ASP102      0.2266
     40  O          2.6580   25.7520  152.6800 O.2   102  ASP102     -0.2867
     41  CB         5.2440   24.2080  152.3300 C.3   102  ASP102      0.1410
     42  CG         6.6180   24.1200  151.6800 C.2   102  ASP102      0.3668
     43  OD1        7.3570   25.1310  151.6660 O.co2 102  ASP102     -0.2456
     44  OD2        6.9620   23.0320  151.1730 O.co2 102  ASP102     -0.2456
     45  N          1.7760   23.3320  155.1390 N.3   104  SER104     -0.1217
     46  CA         1.1160   22.0740  154.8010 C.3   104  SER104      0.1889
     47  C          0.2110   21.5790  155.9270 C.2   104  SER104      0.2288
     48  O          0.3810   21.9570  157.0880 O.2   104  SER104     -0.2866
     49  CB         2.1520   21.0130  154.4260 C.3   104  SER104      0.2089
     50  OG         2.7860   21.3430  153.2030 O.3   104  SER104     -0.2183
     51  N          0.9420   15.0710  156.6540 N.3   107  ARG107     -0.1245
     52  CA         2.1570   14.3500  156.2960 C.3   107  ARG107      0.1563
     53  C          1.8810   12.8630  156.5010 C.2   107  ARG107      0.2260
     54  O          1.5630   12.4330  157.6140 O.2   107  ARG107     -0.2867
     55  CB         3.3150   14.8060  157.1900 C.3   107  ARG107      0.0307
     56  CG         4.6380   14.0800  156.9790 C.3   107  ARG107      0.0489
     57  CD         5.6380   14.9530  156.2460 C.3   107  ARG107      0.2205
     58  NE         5.5300   14.8310  154.7960 N.pl3 107  ARG107     -0.0865
     59  CZ         6.0040   15.7200  153.9280 C.cat 107  ARG107      0.5346
     60  NH1        6.6090   16.8250  154.3490 N.pl3 107  ARG107      0.1354
     61  NH2        5.8590   15.5070  152.6290 N.pl3 107  ARG107      0.1354
     62  N         21.1650   20.5490  151.1730 N.3   163  THR163     -0.1218
     63  CA        19.7100   20.5270  151.3440 C.3   163  THR163      0.1862
     64  C         19.1780   21.8540  151.8950 C.2   163  THR163      0.2287
     65  O         18.1720   22.3720  151.4020 O.2   163  THR163     -0.2866
     66  CB        19.2480   19.3400  152.2280 C.3   163  THR163      0.1770
     67  OG1       19.8380   18.1250  151.7510 O.3   163  THR163     -0.2211
     68  CG2       17.7290   19.1950  152.1940 C.3   163  THR163      0.0375
     69  N         16.6580   24.3120  150.0890 N.3   167  GLN167     -0.1245
     70  CA        15.4000   24.7940  150.6670 C.3   167  GLN167      0.1566
     71  C         15.2770   26.3110  150.5630 C.2   167  GLN167      0.2260
     72  O         14.1840   26.8470  150.3620 O.2   167  GLN167     -0.2867
     73  CB        15.2680   24.3540  152.1300 C.3   167  GLN167      0.0367
     74  CG        14.9270   22.8770  152.3290 C.3   167  GLN167      0.0905
     75  CD        13.5330   22.5150  151.8350 C.2   167  GLN167      0.2608
     76  OE1       13.2720   22.4880  150.6310 O.2   167  GLN167     -0.2717
     77  NE2       12.6350   22.2240  152.7680 N.am  167  GLN167     -0.0878
     78  N         14.2910   27.0630  147.0270 N.3   170  ASP170     -0.1239
     79  CA        12.8890   26.6700  146.8680 C.3   170  ASP170      0.1674
     80  C         11.9060   27.6670  147.4910 C.2   170  ASP170      0.2266
     81  O         10.9060   28.0280  146.8720 O.2   170  ASP170     -0.2867
     82  CB        12.6750   25.2600  147.4400 C.3   170  ASP170      0.1410
     83  CG        11.2120   24.8530  147.4790 C.2   170  ASP170      0.3668
     84  OD1       10.7430   24.2160  146.5110 O.co2 170  ASP170     -0.2456
     85  OD2       10.5310   25.1700  148.4790 O.co2 170  ASP170     -0.2456
     86  N         17.9460   20.6680  146.9120 N.3   207  LYS207     -0.1231
     87  CA        16.9140   20.4730  147.9350 C.3   207  LYS207      0.1693
     88  C         16.4970   19.0180  148.1760 C.2   207  LYS207      0.2592
     89  O         15.9560   18.7080  149.2390 O.2   207  LYS207     -0.2718
     90  CB        15.6890   21.3750  147.6940 C.3   207  LYS207      0.0285
     91  CG        14.7020   20.8780  146.6520 C.3   207  LYS207      0.0035
     92  CD        13.3130   21.4460  146.8890 C.3   207  LYS207      0.0206
     93  CE        12.3090   20.8600  145.9170 C.3   207  LYS207      0.1093
     94  NZ        10.9560   21.4370  146.1190 N.3   207  LYS207     -0.1314
     95  N         16.7380   18.1280  147.2090 N.am  208  THR208     -0.1953
     96  CA        16.3720   16.7120  147.3960 C.3   208  THR208      0.1897
     97  C         17.4220   15.6680  147.0000 C.2   208  THR208      0.2313
     98  O         17.6110   14.6950  147.7240 O.2   208  THR208     -0.2863
     99  CB        15.0000   16.3240  146.7460 C.3   208  THR208      0.1794
    100  OG1       15.2100   15.5320  145.5680 O.3   208  THR208     -0.2208
    101  CG2       14.1640   17.5370  146.4030 C.3   208  THR208      0.0378
    102  N         20.3670   14.1810  149.5890 N.3   211  TYR211     -0.1241
    103  CA        19.9900   13.3370  150.7260 C.3   211  TYR211      0.1605
    104  C         19.0720   12.1790  150.3460 C.2   211  TYR211      0.2264
    105  O         18.9940   11.1840  151.0680 O.2   211  TYR211     -0.2867
    106  CB        19.3860   14.1750  151.8650 C.3   211  TYR211      0.0534
    107  CG        17.8970   14.4440  151.7670 C.ar  211  TYR211     -0.0201
    108  CD1       16.9820   13.6470  152.4520 C.ar  211  TYR211     -0.0009
    109  CD2       17.4080   15.5030  151.0060 C.ar  211  TYR211     -0.0009
    110  CE1       15.6170   13.8900  152.3710 C.ar  211  TYR211      0.0417
    111  CE2       16.0450   15.7570  150.9210 C.ar  211  TYR211      0.0417
    112  CZ        15.1570   14.9480  151.6050 C.ar  211  TYR211      0.1957
    113  OH        13.8070   15.1970  151.5240 O.3   211  TYR211     -0.2866
    114  N         11.6230   14.1130  142.2970 N.3   247  GLN247     -0.1245
    115  CA        10.9580   15.3730  142.6350 C.3   247  GLN247      0.1566
    116  C          9.9070   15.7800  141.5990 C.2   247  GLN247      0.2260
    117  O          8.9000   16.3990  141.9450 O.2   247  GLN247     -0.2867
    118  CB        11.9800   16.4960  142.8400 C.3   247  GLN247      0.0367
    119  CG        11.3920   17.8190  143.3550 C.3   247  GLN247      0.0905
    120  CD        10.7040   17.6940  144.7050 C.2   247  GLN247      0.2608
    121  OE1       11.2040   17.0310  145.6130 O.2   247  GLN247     -0.2717
    122  NE2        9.5520   18.3390  144.8410 N.am  247  GLN247     -0.0878
    123  N          6.9500   13.8990  142.5110 N.3   250  ASP250     -0.1225
    124  CA         6.3990   14.5980  143.6730 C.3   250  ASP250      0.1805
    125  C          5.5800   15.8290  143.2770 C.2   250  ASP250      0.2597
    126  O          4.5270   16.0920  143.8610 O.2   250  ASP250     -0.2718
    127  CB         7.5300   15.0020  144.6240 C.3   250  ASP250      0.1424
    128  CG         7.0280   15.3930  145.9990 C.2   250  ASP250      0.3668
    129  OD1        6.4830   14.5200  146.7090 O.co2 250  ASP250     -0.2456
    130  OD2        7.1920   16.5720  146.3770 O.co2 250  ASP250     -0.2456
    131  N          6.0720   16.5690  142.2820 N.am  251  ASP251     -0.1974
    132  CA         5.3970   17.7620  141.7730 C.3   251  ASP251      0.1709
    133  C          4.0880   17.4350  141.0520 C.2   251  ASP251      0.2293
    134  O          3.1030   18.1620  141.1900 O.2   251  ASP251     -0.2864
    135  CB         6.3280   18.5540  140.8470 C.3   251  ASP251      0.1436
    136  CG         7.4370   19.2780  141.5980 C.2   251  ASP251      0.3671
    137  OD1        7.5400   19.1350  142.8350 O.co2 251  ASP251     -0.2456
    138  OD2        8.2140   19.9980  140.9420 O.co2 251  ASP251     -0.2456
    139  N          1.4240   16.1850  143.6960 N.3   254  ASP254     -0.1239
    140  CA         0.9540   17.3390  144.4670 C.3   254  ASP254      0.1674
    141  C         -0.3270   17.9270  143.8730 C.2   254  ASP254      0.2266
    142  O         -1.1800   18.4400  144.6010 O.2   254  ASP254     -0.2867
    143  CB         2.0550   18.4090  144.5210 C.3   254  ASP254      0.1410
    144  CG         1.7100   19.5680  145.4430 C.2   254  ASP254      0.3668
    145  OD1        2.1870   19.5730  146.5970 O.co2 254  ASP254     -0.2456
    146  OD2        0.9620   20.4730  145.0210 O.co2 254  ASP254     -0.2456
    147  N         -0.5050   13.3830  151.6230 N.3   264  LYS264     -0.1245
    148  CA        -0.3580   14.8290  151.7960 C.3   264  LYS264      0.1561
    149  C         -1.4540   15.5660  151.0330 C.2   264  LYS264      0.2260
    150  O         -2.1210   14.9850  150.1750 O.2   264  LYS264     -0.2867
    151  CB         1.0000   15.3330  151.2870 C.3   264  LYS264      0.0271
    152  CG         2.0800   14.2930  151.0760 C.3   264  LYS264      0.0035
    153  CD         3.2930   14.9420  150.4340 C.3   264  LYS264      0.0206
    154  CE         4.0880   13.9520  149.6120 C.3   264  LYS264      0.1093
    155  NZ         5.3300   14.5660  149.0730 N.3   264  LYS264     -0.1314
    156  N          1.5490   23.5110  146.2400 N.3   268  ASP268     -0.1239
    157  CA         2.4590   24.1230  145.2610 C.3   268  ASP268      0.1674
    158  C          1.8600   25.3090  144.5000 C.2   268  ASP268      0.2266
    159  O          2.4940   26.3600  144.3920 O.2   268  ASP268     -0.2867
    160  CB         3.0010   23.0730  144.2840 C.3   268  ASP268      0.1410
    161  CG         3.9570   22.0910  144.9470 C.2   268  ASP268      0.3668
    162  OD1        4.3480   22.3140  146.1130 O.co2 268  ASP268     -0.2456
    163  OD2        4.3170   21.0890  144.2950 O.co2 268  ASP268     -0.2456
    164  N          4.7990   27.8480  143.9280 N.3   273  LYS273     -0.1245
    165  CA         6.0710   27.1310  143.8410 C.3   273  LYS273      0.1561
    166  C          6.5550   26.9200  142.4110 C.2   273  LYS273      0.2260
    167  O          5.7600   26.6670  141.5030 O.2   273  LYS273     -0.2867
    168  CB         5.9860   25.7850  144.5710 C.3   273  LYS273      0.0271
    169  CG         5.9320   25.8940  146.0910 C.3   273  LYS273      0.0035
    170  CD         7.1880   26.5540  146.6490 C.3   273  LYS273      0.0206
    171  CE         7.0610   26.8320  148.1340 C.3   273  LYS273      0.1093
    172  NZ         7.0420   25.5770  148.9300 N.3   273  LYS273     -0.1314
@<TRIPOS>BOND
     1   135   136    1
     2   135   132    1
     3   138   136   ar
     4   133   134    2
     5   133   132    1
     6   167   166    2
     7   136   137   ar
     8   116   117    2
     9   116   115    1
    10   132   131    1
    11   131   125   am
    12   114   115    1
    13   166   165    1
    14   123   124    1
    15   115   118    1
    16   118   119    1
    17   125   124    1
    18   125   126    2
    19   119   120    1
    20   124   127    1
    21   139   140    1
    22   165   164    1
    23   165   168    1
    24   141   140    1
    25   141   142    2
    26   160   161    1
    27   160   157    1
    28   163   161   ar
    29   159   158    2
    30   140   143    1
    31   158   157    1
    32   143   144    1
    33   168   169    1
    34   127   128    1
    35   120   122   am
    36   120   121    2
    37   161   162   ar
    38   146   144   ar
    39   157   156    1
    40   144   145   ar
    41   100    99    1
    42    93    94    1
    43    93    92    1
    44   128   130   ar
    45   128   129   ar
    46   169   170    1
    47   101    99    1
    48    84    83   ar
    49   170   171    1
    50    91    92    1
    51    91    90    1
    52    99    96    1
    53    79    78    1
    54    79    82    1
    55    79    80    1
    56    81    80    2
    57    86    87    1
    58    97    96    1
    59    97    98    2
    60    95    96    1
    61    95    88   am
    62    82    83    1
    63    83    85   ar
    64    90    87    1
    65    87    88    1
    66   171   172    1
    67    88    89    2
    68   155   154    1
    69   102   103    1
    70   154   153    1
    71    69    70    1
    72   150   149    2
    73   104   103    1
    74   104   105    2
    75    72    71    2
    76   153   152    1
    77    71    70    1
    78    76    75    2
    79    70    73    1
    80   103   106    1
    81   111   109   ar
    82   111   112   ar
    83   109   107   ar
    84   149   148    1
    85   152   151    1
    86    44    42   ar
    87    62    63    1
    88   151   148    1
    89    63    64    1
    90    63    66    1
    91    65    64    2
    92   113   112    1
    93   112   110   ar
    94   147   148    1
    95    43    42   ar
    96    42    41    1
    97    67    66    1
    98   107   106    1
    99   107   108   ar
   100    75    74    1
   101    75    77   am
   102    73    74    1
   103    27    26   ar
   104    68    66    1
   105    41    38    1
   106   110   108   ar
   107    61    59    1
   108    40    39    2
   109    28    26   ar
   110    26    25    1
   111    38    39    1
   112    38    37    1
   113    50    49    1
   114    59    60    1
   115    59    58    2
   116    19    18    1
   117    25    22    1
   118    49    46    1
   119    24    23    2
   120    58    57    1
   121    46    45    1
   122    46    47    1
   123    35    34   ar
   124    22    23    1
   125    22    21    1
   126    18    20    1
   127    18    17    1
   128    23    29   am
   129     7     9   ar
   130     7     6   ar
   131     9    11   ar
   132     5     6    1
   133     5     2    1
   134     6     8   ar
   135    11    12    1
   136    11    10   ar
   137     8    10   ar
   138    47    48    2
   139     4     3    2
   140    29    30    1
   141    57    56    1
   142    52    53    1
   143    52    51    1
   144    52    55    1
   145    30    31    1
   146    30    33    1
   147    53    54    2
   148    34    36   ar
   149    34    33    1
   150     3    13   am
   151     3     2    1
   152    32    31    2
   153    14    17    1
   154    14    13    1
   155    14    15    1
   156     2     1    1
   157    56    55    1
   158    16    15    2
