@<TRIPOS>MOLECULE
tmp/3ibcD00.pdb
 148 150 0 0 0
SMALL
GASTEIGER

@<TRIPOS>ATOM
      1  N         25.1290   -4.2340    5.3200 N.3    20  TYR20      -0.1227
      2  CA        24.7770   -3.4020    6.4630 C.3    20  TYR20       0.1736
      3  C         24.4490   -4.2770    7.6700 C.2    20  TYR20       0.2596
      4  O         24.1880   -5.4740    7.5390 O.2    20  TYR20      -0.2718
      5  CB        23.5290   -2.5620    6.1780 C.3    20  TYR20       0.0548
      6  CG        23.7130   -1.3370    5.3210 C.ar   20  TYR20      -0.0200
      7  CD1       24.7980   -0.4820    5.5060 C.ar   20  TYR20      -0.0009
      8  CD2       22.7460   -0.9800    4.3770 C.ar   20  TYR20      -0.0009
      9  CE1       24.9120    0.7050    4.7720 C.ar   20  TYR20       0.0417
     10  CE2       22.8480    0.2030    3.6410 C.ar   20  TYR20       0.0417
     11  CZ        23.9330    1.0410    3.8450 C.ar   20  TYR20       0.1957
     12  OH        24.0350    2.2170    3.1320 O.3    20  TYR20      -0.2866
     13  N         24.4470   -3.6550    8.8430 N.am   21  SER21      -0.1938
     14  CA        24.1150   -4.3300   10.0890 C.3    21  SER21       0.2055
     15  C         22.9880   -3.4940   10.6840 C.2    21  SER21       0.2643
     16  O         23.0540   -2.2680   10.6620 O.2    21  SER21      -0.2714
     17  CB        25.3210   -4.3530   11.0260 C.3    21  SER21       0.2130
     18  OG        25.0100   -5.0530   12.2130 O.3    21  SER21      -0.2179
     19  N         21.9570   -4.1500   11.2080 N.am   22  TRP22      -0.1959
     20  CA        20.8150   -3.4350   11.7580 C.3    22  TRP22       0.1771
     21  C         20.7850   -3.2510   13.2580 C.2    22  TRP22       0.2620
     22  O         21.0760   -4.1720   14.0230 O.2    22  TRP22      -0.2715
     23  CB        19.5270   -4.0940   11.2870 C.3    22  TRP22       0.0590
     24  CG        19.4200   -4.0330    9.8130 C.ar   22  TRP22       0.0006
     25  CD1       19.7550   -5.0110    8.9210 C.ar   22  TRP22       0.0946
     26  CD2       19.0500   -2.8920    9.0370 C.ar   22  TRP22       0.0152
     27  NE1       19.6210   -4.5480    7.6350 N.ar   22  TRP22      -0.2442
     28  CE2       19.1900   -3.2480    7.6770 C.ar   22  TRP22       0.0810
     29  CE3       18.6160   -1.5990    9.3580 C.ar   22  TRP22       0.0012
     30  CZ2       18.9100   -2.3570    6.6380 C.ar   22  TRP22       0.0191
     31  CZ3       18.3370   -0.7150    8.3280 C.ar   22  TRP22       0.0001
     32  CH2       18.4860   -1.0980    6.9820 C.ar   22  TRP22       0.0015
     33  N         20.4110   -2.0360   13.6550 N.am   23  ARG23      -0.1963
     34  CA        20.3340   -1.6330   15.0510 C.3    23  ARG23       0.1729
     35  C         19.1030   -0.7850   15.3410 C.2    23  ARG23       0.2617
     36  O         18.8050    0.1620   14.6160 O.2    23  ARG23      -0.2715
     37  CB        21.5910   -0.8400   15.4220 C.3    23  ARG23       0.0348
     38  CG        21.4710    0.0070   16.6840 C.3    23  ARG23       0.0492
     39  CD        22.7850    0.7140   16.9700 C.3    23  ARG23       0.2205
     40  NE        23.3090    1.3950   15.7850 N.pl3  23  ARG23      -0.0865
     41  CZ        22.8420    2.5410   15.3010 C.cat  23  ARG23       0.5346
     42  NH1       21.8330    3.1550   15.9030 N.pl3  23  ARG23       0.1354
     43  NH2       23.3800    3.0680   14.2080 N.pl3  23  ARG23       0.1354
     44  N         18.3980   -1.1320   16.4110 N.am   24  SER24      -0.1936
     45  CA        17.2100   -0.3950   16.8330 C.3    24  SER24       0.2040
     46  C         17.6060    0.6270   17.9090 C.2    24  SER24       0.2485
     47  O         18.0530    0.2630   19.0010 O.2    24  SER24      -0.2729
     48  CB        16.1550   -1.3580   17.3930 C.3    24  SER24       0.2129
     49  OG        15.0680   -0.6490   17.9710 O.3    24  SER24      -0.2179
     50  N         17.4570    1.9250   17.6050 N.am   25  PRO25      -0.2726
     51  CA        17.8060    2.9820   18.5560 C.3    25  PRO25       0.1402
     52  C         17.2240    2.7680   19.9510 C.2    25  PRO25       0.2269
     53  O         17.7040    3.3430   20.9290 O.2    25  PRO25      -0.2865
     54  CB        17.2640    4.2320   17.8780 C.3    25  PRO25       0.0296
     55  CG        17.5150    3.9340   16.4340 C.3    25  PRO25       0.0237
     56  CD        17.0410    2.5030   16.3140 C.3    25  PRO25       0.0939
     57  N         15.9740   -0.6860   20.9670 N.3    27  ARG27      -0.1245
     58  CA        16.2570   -2.0590   21.3700 C.3    27  ARG27       0.1563
     59  C         17.7290   -2.4690   21.2560 C.2    27  ARG27       0.2260
     60  O         18.1530   -3.4550   21.8630 O.2    27  ARG27      -0.2867
     61  CB        15.3990   -3.0300   20.5530 C.3    27  ARG27       0.0307
     62  CG        13.8940   -2.7970   20.6560 C.3    27  ARG27       0.0489
     63  CD        13.1300   -4.1100   20.4920 C.3    27  ARG27       0.2205
     64  NE        11.6860   -3.9230   20.3500 N.pl3  27  ARG27      -0.0865
     65  CZ        11.0990   -3.3550   19.2960 C.cat  27  ARG27       0.5346
     66  NH1       11.8300   -2.9090   18.2780 N.pl3  27  ARG27       0.1354
     67  NH2        9.7760   -3.2440   19.2530 N.pl3  27  ARG27       0.1354
     68  N         21.2380   -3.1780   18.6220 N.3    29  SER29      -0.1202
     69  CA        21.4310   -4.0060   17.4370 C.3    29  SER29       0.2020
     70  C         20.8450   -5.4120   17.5670 C.2    29  SER29       0.2618
     71  O         20.7390   -5.9570   18.6690 O.2    29  SER29      -0.2717
     72  CB        22.9170   -4.0920   17.0950 C.3    29  SER29       0.2103
     73  OG        23.6220   -4.7770   18.1040 O.3    29  SER29      -0.2182
     74  N         20.4720   -5.9840   16.4220 N.am   30  TRP30      -0.1975
     75  CA        19.8870   -7.3190   16.3500 C.3    30  TRP30       0.1640
     76  C         20.8620   -8.3860   16.8110 C.2    30  TRP30       0.2290
     77  O         20.5420   -9.2280   17.6520 O.2    30  TRP30      -0.2864
     78  CB        19.4850   -7.6550   14.9130 C.3    30  TRP30       0.0576
     79  CG        18.4610   -6.7500   14.2920 C.ar   30  TRP30       0.0006
     80  CD1       17.7400   -5.7580   14.9080 C.ar   30  TRP30       0.0946
     81  CD2       18.0140   -6.7830   12.9290 C.ar   30  TRP30       0.0152
     82  NE1       16.8740   -5.1780   14.0100 N.ar   30  TRP30      -0.2442
     83  CE2       17.0210   -5.7870   12.7910 C.ar   30  TRP30       0.0810
     84  CE3       18.3560   -7.5610   11.8120 C.ar   30  TRP30       0.0012
     85  CZ2       16.3660   -5.5500   11.5760 C.ar   30  TRP30       0.0191
     86  CZ3       17.7040   -7.3250   10.6060 C.ar   30  TRP30       0.0001
     87  CH2       16.7220   -6.3270   10.4990 C.ar   30  TRP30       0.0015
     88  N         21.5540   -8.2480   20.4540 N.3    33  GLN33      -0.1245
     89  CA        20.3430   -8.6820   21.1580 C.3    33  GLN33       0.1566
     90  C         20.3520  -10.2090   21.1720 C.2    33  GLN33       0.2260
     91  O         20.2780  -10.8330   22.2260 O.2    33  GLN33      -0.2867
     92  CB        19.0690   -8.2170   20.4310 C.3    33  GLN33       0.0367
     93  CG        18.6900   -6.7360   20.5470 C.3    33  GLN33       0.0905
     94  CD        17.3860   -6.4060   19.7890 C.2    33  GLN33       0.2608
     95  OE1       16.3250   -6.9830   20.0650 O.2    33  GLN33      -0.2717
     96  NE2       17.4690   -5.4790   18.8320 N.am   33  GLN33      -0.0878
     97  N         14.1260  -11.2510   13.0590 N.3    63  PHE63      -0.1227
     98  CA        14.1800   -9.8750   12.5620 C.3    63  PHE63       0.1736
     99  C         13.9140   -9.5590   11.0940 C.2    63  PHE63       0.2595
    100  O         14.1090  -10.3900   10.2080 O.2    63  PHE63      -0.2718
    101  CB        15.5210   -9.2470   12.9360 C.3    63  PHE63       0.0547
    102  CG        15.8080   -9.2760   14.3960 C.ar   63  PHE63      -0.0202
    103  CD1       16.3430  -10.4130   14.9890 C.ar   63  PHE63      -0.0042
    104  CD2       15.5270   -8.1740   15.1870 C.ar   63  PHE63      -0.0042
    105  CE1       16.5960  -10.4530   16.3550 C.ar   63  PHE63      -0.0003
    106  CE2       15.7750   -8.2000   16.5540 C.ar   63  PHE63      -0.0003
    107  CZ        16.3120   -9.3440   17.1410 C.ar   63  PHE63      -0.0000
    108  N         13.4740   -8.3170   10.8760 N.am   64  GLU64      -0.1965
    109  CA        13.1880   -7.7400    9.5600 C.3    64  GLU64       0.1733
    110  C         13.0170   -6.2260    9.7270 C.2    64  GLU64       0.2617
    111  O         12.0770   -5.7690   10.3870 O.2    64  GLU64      -0.2715
    112  CB        11.9220   -8.3310    8.9370 C.3    64  GLU64       0.0429
    113  CG        11.7330   -7.8830    7.4940 C.3    64  GLU64       0.1163
    114  CD        10.7330   -8.7240    6.7360 C.2    64  GLU64       0.3649
    115  OE1       10.8500   -9.9660    6.7790 O.co2  64  GLU64      -0.2457
    116  OE2        9.8390   -8.1440    6.0880 O.co2  64  GLU64      -0.2457
    117  N         13.9320   -5.4600    9.1290 N.am   65  SER65      -0.1936
    118  CA        13.9210   -3.9980    9.2260 C.3    65  SER65       0.2055
    119  C         12.6850   -3.3340    8.6290 C.2    65  SER65       0.2643
    120  O         12.3040   -3.6000    7.4880 O.2    65  SER65      -0.2714
    121  CB        15.1840   -3.3970    8.5780 C.3    65  SER65       0.2130
    122  OG        15.1770   -3.5130    7.1620 O.3    65  SER65      -0.2179
    123  N         12.0640   -2.4640    9.4200 N.am   66  GLN66      -0.1963
    124  CA        10.8790   -1.7340    8.9930 C.3    66  GLN66       0.1733
    125  C         11.2550   -0.2720    8.7550 C.2    66  GLN66       0.2617
    126  O         11.7330    0.4140    9.6600 O.2    66  GLN66      -0.2715
    127  CB         9.7840   -1.8360   10.0630 C.3    66  GLN66       0.0408
    128  CG         8.6800   -2.8660    9.7790 C.3    66  GLN66       0.0908
    129  CD         9.2120   -4.2440    9.3990 C.2    66  GLN66       0.2608
    130  OE1        9.7150   -4.4440    8.2920 O.2    66  GLN66      -0.2717
    131  NE2        9.1010   -5.1990   10.3200 N.am   66  GLN66      -0.0878
    132  N         11.0570    0.1850    7.5230 N.am   67  SER67      -0.1950
    133  CA        11.3590    1.5610    7.1400 C.3    67  SER67       0.1924
    134  C         10.4010    1.9770    6.0330 C.2    67  SER67       0.2314
    135  O          9.9550    1.1440    5.2410 O.2    67  SER67      -0.2863
    136  CB        12.8030    1.6800    6.6420 C.3    67  SER67       0.2116
    137  OG        13.0720    2.9840    6.1510 O.3    67  SER67      -0.2180
    138  N         15.2310    0.7250    2.2520 N.3    72  PHE72      -0.1241
    139  CA        15.4090    0.2520    3.6190 C.3    72  PHE72       0.1605
    140  C         14.2220   -0.5240    4.1920 C.2    72  PHE72       0.2264
    141  O         14.2480   -0.9160    5.3620 O.2    72  PHE72      -0.2867
    142  CB        15.7300    1.4350    4.5430 C.3    72  PHE72       0.0534
    143  CG        17.1340    1.9690    4.4000 C.ar   72  PHE72      -0.0203
    144  CD1       17.6030    2.9540    5.2670 C.ar   72  PHE72      -0.0042
    145  CD2       17.9940    1.4810    3.4190 C.ar   72  PHE72      -0.0042
    146  CE1       18.9050    3.4420    5.1600 C.ar   72  PHE72      -0.0003
    147  CE2       19.2990    1.9630    3.3050 C.ar   72  PHE72      -0.0003
    148  CZ        19.7540    2.9450    4.1770 C.ar   72  PHE72      -0.0000
@<TRIPOS>BOND
     1   138   139    1
     2    12    11    1
     3   147   145   ar
     4   147   148   ar
     5   145   143   ar
     6   139   140    1
     7   139   142    1
     8    10    11   ar
     9    10     8   ar
    10    11     9   ar
    11   148   146   ar
    12   140   141    2
    13     8     6   ar
    14   143   142    1
    15   143   144   ar
    16     9     7   ar
    17   146   144   ar
    18   135   134    2
    19     1     2    1
    20     6     7   ar
    21     6     5    1
    22   134   133    1
    23   116   114   ar
    24   137   136    1
    25     5     2    1
    26     2     3    1
    27    30    32   ar
    28    30    28   ar
    29   136   133    1
    30   114   115   ar
    31   114   113    1
    32    32    31   ar
    33   133   132    1
    34   122   121    1
    35   120   119    2
    36   113   112    1
    37   132   125   am
    38     4     3    2
    39    27    28   ar
    40    27    25   ar
    41     3    13   am
    42    28    26   ar
    43   130   129    2
    44    31    29   ar
    45   121   118    1
    46   119   118    1
    47   119   123   am
    48   125   124    1
    49   125   126    2
    50    13    14    1
    51    25    24   ar
    52   112   109    1
    53   124   123    1
    54   124   127    1
    55    26    29   ar
    56    26    24   ar
    57   117   118    1
    58   117   110   am
    59   129   128    1
    60   129   131   am
    61   109   110    1
    62   109   108    1
    63   110   111    2
    64   128   127    1
    65    24    23    1
    66    14    15    1
    67    14    17    1
    68   100    99    2
    69    87    86   ar
    70    87    85   ar
    71    86    84   ar
    72    16    15    2
    73    15    19   am
    74   108    99   am
    75    17    18    1
    76    99    98    1
    77    19    20    1
    78    23    20    1
    79    85    83   ar
    80    20    21    1
    81    84    81   ar
    82    98   101    1
    83    98    97    1
    84    83    81   ar
    85    83    82   ar
    86    81    79   ar
    87   101   102    1
    88    21    33   am
    89    21    22    2
    90    33    34    1
    91    82    80   ar
    92    43    41    1
    93    79    80   ar
    94    79    78    1
    95   102   103   ar
    96   102   104   ar
    97    36    35    2
    98    78    75    1
    99   103   105   ar
   100    34    35    1
   101    34    37    1
   102   104   106   ar
   103    41    40    2
   104    41    42    1
   105    35    44   am
   106    37    38    1
   107    40    39    1
   108    56    55    1
   109    56    50    1
   110    75    74    1
   111    75    76    1
   112   105   107   ar
   113    44    45    1
   114    74    70   am
   115    55    54    1
   116   106   107   ar
   117    38    39    1
   118    76    77    2
   119    45    48    1
   120    45    46    1
   121    72    69    1
   122    72    73    1
   123    48    49    1
   124    69    70    1
   125    69    68    1
   126    70    71    2
   127    50    46   am
   128    50    51    1
   129    54    51    1
   130    46    47    2
   131    66    65    1
   132    51    52    1
   133    96    94   am
   134    67    65    1
   135    65    64    2
   136    94    95    2
   137    94    93    1
   138    52    53    2
   139    64    63    1
   140    92    93    1
   141    92    89    1
   142    88    89    1
   143    63    62    1
   144    61    62    1
   145    61    58    1
   146    57    58    1
   147    89    90    1
   148    90    91    2
   149    59    58    1
   150    59    60    2
