@<TRIPOS>MOLECULE
tmp/3ibdA01.pdb
 104 96 0 0 0
SMALL
GASTEIGER

@<TRIPOS>ATOM
      1  N         29.5370   20.1110   31.7260 N.3    74  ILE74      -0.1245
      2  CA        29.5100   18.7900   32.3510 C.3    74  ILE74       0.1561
      3  C         30.9660   18.4340   32.6280 C.2    74  ILE74       0.2260
      4  O         31.7530   18.2180   31.7020 O.2    74  ILE74      -0.2867
      5  CB        28.6380   17.7160   31.5730 C.3    74  ILE74       0.0252
      6  CG1       29.3770   16.4240   31.2330 C.3    74  ILE74       0.0019
      7  CG2       27.8700   18.2880   30.4040 C.3    74  ILE74       0.0019
      8  CD1       29.4610   15.4570   32.3640 C.3    74  ILE74       0.0001
      9  N         33.4340   15.7740   30.8540 N.3    77  VAL77      -0.1245
     10  CA        33.8200   15.8620   29.4110 C.3    77  VAL77       0.1561
     11  C         34.2980   17.2720   28.9560 C.2    77  VAL77       0.2260
     12  O         34.9090   17.4240   27.9120 O.2    77  VAL77      -0.2867
     13  CB        32.7090   15.3290   28.5060 C.3    77  VAL77       0.0252
     14  CG1       32.2440   14.0020   29.0280 C.3    77  VAL77       0.0019
     15  CG2       31.5380   16.3140   28.4070 C.3    77  VAL77       0.0019
     16  N         26.4870   20.5660   21.0700 N.3    87  ILE87      -0.1231
     17  CA        26.0500   20.3100   22.4460 C.3    87  ILE87       0.1692
     18  C         26.6840   21.2800   23.4490 C.2    87  ILE87       0.2592
     19  O         26.0430   21.7350   24.3910 O.2    87  ILE87      -0.2718
     20  CB        26.3990   18.8770   22.9870 C.3    87  ILE87       0.0266
     21  CG1       26.2960   17.8100   21.9250 C.3    87  ILE87       0.0019
     22  CG2       25.4450   18.5130   24.1560 C.3    87  ILE87       0.0020
     23  CD1       26.8300   16.3910   22.3930 C.3    87  ILE87       0.0001
     24  N         27.9590   21.5540   23.2640 N.am   88  PHE88      -0.1976
     25  CA        28.7300   22.2150   24.2960 C.3    88  PHE88       0.1639
     26  C         28.9860   23.6740   24.0030 C.2    88  PHE88       0.2290
     27  O         29.5850   24.3540   24.8290 O.2    88  PHE88      -0.2864
     28  CB        30.0550   21.4910   24.5220 C.3    88  PHE88       0.0560
     29  CG        29.8910   20.0370   24.8760 C.ar   88  PHE88      -0.0200
     30  CD1       29.2980   19.6620   26.0790 C.ar   88  PHE88      -0.0042
     31  CD2       30.2960   19.0560   23.9860 C.ar   88  PHE88      -0.0042
     32  CE1       29.1190   18.2940   26.4020 C.ar   88  PHE88      -0.0003
     33  CE2       30.1260   17.6940   24.2960 C.ar   88  PHE88      -0.0003
     34  CZ        29.5510   17.3270   25.4970 C.ar   88  PHE88      -0.0000
     35  N         30.4460    6.5230   28.8180 N.3   179  PHE179     -0.1241
     36  CA        29.1830    6.9180   29.4080 C.3   179  PHE179      0.1605
     37  C         28.9900    6.3420   30.7730 C.2   179  PHE179      0.2264
     38  O         28.5320    7.0590   31.6520 O.2   179  PHE179     -0.2867
     39  CB        28.0030    6.6240   28.4950 C.3   179  PHE179      0.0534
     40  CG        27.9570    7.5330   27.3320 C.ar  179  PHE179     -0.0203
     41  CD1       27.3700    8.7930   27.4480 C.ar  179  PHE179     -0.0042
     42  CD2       28.5480    7.1850   26.1430 C.ar  179  PHE179     -0.0042
     43  CE1       27.3390    9.6650   26.3660 C.ar  179  PHE179     -0.0003
     44  CE2       28.5320    8.0620   25.0620 C.ar  179  PHE179     -0.0003
     45  CZ        27.9250    9.2980   25.1840 C.ar  179  PHE179     -0.0000
     46  N         31.0720    8.5270   33.1820 N.3   182  ILE182     -0.1245
     47  CA        30.4920    9.8660   33.3660 C.3   182  ILE182      0.1561
     48  C         29.3900    9.7890   34.4500 C.2   182  ILE182      0.2260
     49  O         29.3040   10.6490   35.3220 O.2   182  ILE182     -0.2867
     50  CB        29.9690   10.3860   31.9910 C.3   182  ILE182      0.0252
     51  CG1       31.1160   10.9460   31.1520 C.3   182  ILE182      0.0019
     52  CG2       28.8650   11.4160   32.1000 C.3   182  ILE182      0.0019
     53  CD1       30.7360   10.9940   29.6530 C.3   182  ILE182      0.0001
     54  N         28.6010   11.3280   20.1620 N.3   270  PHE270     -0.1227
     55  CA        28.4170   11.3610   21.6170 C.3   270  PHE270      0.1736
     56  C         26.9020   11.5420   21.9580 C.2   270  PHE270      0.2595
     57  O         26.3400   10.8100   22.7590 O.2   270  PHE270     -0.2718
     58  CB        29.2650   12.5320   22.1710 C.3   270  PHE270      0.0547
     59  CG        29.2470   12.6690   23.6700 C.ar  270  PHE270     -0.0202
     60  CD1       30.2480   12.0880   24.4380 C.ar  270  PHE270     -0.0042
     61  CD2       28.2180   13.3680   24.3110 C.ar  270  PHE270     -0.0042
     62  CE1       30.2060   12.1740   25.8270 C.ar  270  PHE270     -0.0003
     63  CE2       28.1740   13.4650   25.7000 C.ar  270  PHE270     -0.0003
     64  CZ        29.1790   12.8700   26.4530 C.ar  270  PHE270     -0.0000
     65  N         26.2570   12.5420   21.3690 N.am  271  ALA271     -0.1980
     66  CA        24.8330   12.7670   21.6030 C.3   271  ALA271      0.1597
     67  C         24.0000   11.6870   20.9720 C.2   271  ALA271      0.2287
     68  O         23.0010   11.2660   21.5550 O.2   271  ALA271     -0.2864
     69  CB        24.3960   14.1360   21.0510 C.3   271  ALA271      0.0319
     70  N         22.0550    7.5670   24.3280 N.3   275  THR275     -0.1218
     71  CA        20.6420    7.7000   24.7750 C.3   275  THR275      0.1862
     72  C         19.6310    6.8930   23.9350 C.2   275  THR275      0.2287
     73  O         18.7010    6.2950   24.4910 O.2   275  THR275     -0.2866
     74  CB        20.2000    9.2140   24.9500 C.3   275  THR275      0.1770
     75  OG1       21.2180    9.9100   25.6890 O.3   275  THR275     -0.2211
     76  CG2       18.9550    9.2990   25.7730 C.3   275  THR275      0.0375
     77  N         17.7770   11.1190   30.6640 N.3   336  LEU336     -0.1245
     78  CA        18.5590   12.2900   31.0890 C.3   336  LEU336      0.1561
     79  C         17.7040   13.0290   32.1130 C.2   336  LEU336      0.2260
     80  O         17.0310   14.0310   31.8060 O.2   336  LEU336     -0.2867
     81  CB        18.9440   13.2210   29.9160 C.3   336  LEU336      0.0270
     82  CG        19.8490   12.5940   28.8440 C.3   336  LEU336      0.0019
     83  CD1       19.8410   13.3630   27.5820 C.3   336  LEU336      0.0001
     84  CD2       21.2770   12.4440   29.3430 C.3   336  LEU336      0.0001
     85  N         20.4090   18.3520   30.3850 N.3   340  VAL340     -0.1245
     86  CA        21.8140   18.7440   30.2340 C.3   340  VAL340      0.1561
     87  C         21.9240   20.1950   30.7740 C.2   340  VAL340      0.2260
     88  O         21.0810   21.0150   30.4730 O.2   340  VAL340     -0.2867
     89  CB        22.2350   18.6670   28.7250 C.3   340  VAL340      0.0252
     90  CG1       23.6870   19.0860   28.4990 C.3   340  VAL340      0.0019
     91  CG2       21.9740   17.2100   28.1710 C.3   340  VAL340      0.0019
     92  N         16.6500   19.0810   21.9940 N.3   409  CYS409     -0.1235
     93  CA        17.4530   18.0390   21.3510 C.3   409  CYS409      0.1677
     94  C         17.5160   18.2330   19.8580 C.2   409  CYS409      0.2270
     95  O         16.4690   18.2280   19.2260 O.2   409  CYS409     -0.2867
     96  CB        16.8330   16.6340   21.6200 C.3   409  CYS409      0.0956
     97  SG        17.8400   15.3340   20.8610 S.3   409  CYS409     -0.0801
     98  N         24.3320   11.6870   35.2110 N.3   450  VAL450     -0.1245
     99  CA        23.8500   12.4620   34.0650 C.3   450  VAL450      0.1561
    100  C         22.8520   11.6190   33.2700 C.2   450  VAL450      0.2260
    101  O         21.8180   12.1020   32.8730 O.2   450  VAL450     -0.2867
    102  CB        24.9910   12.9000   33.1010 C.3   450  VAL450      0.0252
    103  CG1       26.2390   13.3960   33.8410 C.3   450  VAL450      0.0019
    104  CG2       25.3650   11.7650   32.2350 C.3   450  VAL450      0.0019
@<TRIPOS>BOND
     1    95    94    2
     2    94    93    1
     3    54    55    1
     4    97    96    1
     5    67    68    2
     6    67    66    1
     7    69    66    1
     8    16    17    1
     9    93    96    1
    10    93    92    1
    11    65    66    1
    12    65    56   am
    13    55    56    1
    14    55    58    1
    15    21    23    1
    16    21    20    1
    17    56    57    2
    18    58    59    1
    19    17    20    1
    20    17    18    1
    21    20    22    1
    22    24    18   am
    23    24    25    1
    24    18    19    2
    25    59    61   ar
    26    59    60   ar
    27    72    73    2
    28    72    71    1
    29    31    33   ar
    30    31    29   ar
    31    26    25    1
    32    26    27    2
    33    33    34   ar
    34    25    28    1
    35    61    63   ar
    36    70    71    1
    37    60    62   ar
    38    28    29    1
    39    71    74    1
    40    29    30   ar
    41    74    75    1
    42    74    76    1
    43    44    45   ar
    44    44    42   ar
    45    45    43   ar
    46    34    32   ar
    47    63    64   ar
    48    62    64   ar
    49    30    32   ar
    50    42    40   ar
    51    43    41   ar
    52    40    41   ar
    53    40    39    1
    54    83    82    1
    55    12    11    2
    56    91    89    1
    57    15    13    1
    58    39    36    1
    59    90    89    1
    60    13    14    1
    61    13    10    1
    62    89    86    1
    63    35    36    1
    64    82    84    1
    65    82    81    1
    66    11    10    1
    67    36    37    1
    68    10     9    1
    69    53    51    1
    70    81    78    1
    71    86    85    1
    72    86    87    1
    73     7     5    1
    74    88    87    2
    75    77    78    1
    76    37    38    2
    77    78    79    1
    78    51    50    1
    79     6     5    1
    80     6     8    1
    81     5     2    1
    82     4     3    2
    83     1     2    1
    84    80    79    2
    85    50    52    1
    86    50    47    1
    87   104   102    1
    88     2     3    1
    89   101   100    2
    90   102   103    1
    91   102    99    1
    92    46    47    1
    93   100    99    1
    94    47    48    1
    95    99    98    1
    96    48    49    2
