@<TRIPOS>MOLECULE
tmp/3ibdA03.pdb
 87 81 0 0 0
SMALL
GASTEIGER

@<TRIPOS>ATOM
      1  N         27.3930   19.0280   50.1340 N.3    16  LEU16      -0.1231
      2  CA        27.7350   17.6020   50.0700 C.3    16  LEU16       0.1693
      3  C         27.0850   16.8060   51.2120 C.2    16  LEU16       0.2591
      4  O         26.5220   15.7470   50.9960 O.2    16  LEU16      -0.2718
      5  CB        29.2600   17.3760   50.0280 C.3    16  LEU16       0.0284
      6  CG        29.6780   15.8840   50.0630 C.3    16  LEU16       0.0019
      7  CD1       29.2920   15.1230   48.8140 C.3    16  LEU16       0.0001
      8  CD2       31.1390   15.6930   50.3620 C.3    16  LEU16       0.0001
      9  N         27.1740   17.3190   52.4160 N.am   17  LEU17      -0.1980
     10  CA        26.6920   16.5640   53.5870 C.3    17  LEU17       0.1596
     11  C         25.1680   16.4860   53.6800 C.2    17  LEU17       0.2287
     12  O         24.6370   15.6940   54.4270 O.2    17  LEU17      -0.2864
     13  CB        27.2560   17.1460   54.8680 C.3    17  LEU17       0.0297
     14  CG        28.7810   17.3190   54.9110 C.3    17  LEU17       0.0022
     15  CD1       29.0530   18.1920   56.1240 C.3    17  LEU17       0.0001
     16  CD2       29.5140   16.0130   55.0170 C.3    17  LEU17       0.0001
     17  N         23.5240   15.7760   50.9540 N.3    19  MET19      -0.1230
     18  CA        23.1750   15.0210   49.7520 C.3    19  MET19       0.1702
     19  C         22.6810   13.6400   50.1390 C.2    19  MET19       0.2592
     20  O         23.0010   13.1300   51.2340 O.2    19  MET19      -0.2718
     21  CB        24.3640   14.8800   48.7750 C.3    19  MET19       0.0401
     22  CG        24.9230   16.1550   48.1910 C.3    19  MET19       0.0596
     23  SD        23.8360   17.1260   47.1170 S.3    19  MET19      -0.1393
     24  CE        24.1920   16.3080   45.5550 C.3    19  MET19       0.0692
     25  N         21.8980   13.0390   49.2410 N.am   20  ASP20      -0.1960
     26  CA        21.5120   11.6460   49.3590 C.3    20  ASP20       0.1840
     27  C         22.6860   10.8560   48.8010 C.2    20  ASP20       0.2621
     28  O         23.1430   11.1230   47.6840 O.2    20  ASP20      -0.2715
     29  CB        20.2590   11.3680   48.5550 C.3    20  ASP20       0.1450
     30  CG        19.6350    9.9930   48.8770 C.2    20  ASP20       0.3671
     31  OD1       20.3570    8.9770   48.8650 O.co2  20  ASP20      -0.2456
     32  OD2       18.4160    9.9280   49.1220 O.co2  20  ASP20      -0.2456
     33  N         23.1770    9.8930   49.5910 N.am   21  ARG21      -0.1977
     34  CA        24.3780    9.1370   49.2560 C.3    21  ARG21       0.1597
     35  C         24.2260    8.2750   47.9900 C.2    21  ARG21       0.2287
     36  O         25.2090    7.8640   47.4010 O.2    21  ARG21      -0.2864
     37  CB        24.8740    8.3150   50.4680 C.3    21  ARG21       0.0334
     38  CG        23.9030    7.2630   50.9420 C.3    21  ARG21       0.0492
     39  CD        24.4380    6.5130   52.1640 C.3    21  ARG21       0.2205
     40  NE        25.4340    5.5130   51.7820 N.pl3  21  ARG21      -0.0865
     41  CZ        25.9130    4.5770   52.6000 C.cat  21  ARG21       0.5346
     42  NH1       25.4820    4.4880   53.8630 N.pl3  21  ARG21       0.1354
     43  NH2       26.8160    3.7150   52.1460 N.pl3  21  ARG21       0.1354
     44  N         22.9870    9.4450   45.0740 N.3    23  GLY23      -0.1210
     45  CA        23.2100   10.2340   43.8750 C.3    23  GLY23       0.1956
     46  C         22.6520   11.6460   43.8320 C.2    23  GLY23       0.2611
     47  O         21.8890   12.0790   44.7220 O.2    23  GLY23      -0.2717
     48  N         23.0170   12.3620   42.7760 N.am   24  LEU24      -0.1979
     49  CA        22.5760   13.7320   42.5880 C.3    24  LEU24       0.1596
     50  C         21.0730   13.8410   42.4540 C.2    24  LEU24       0.2287
     51  O         20.4860   14.6910   43.1190 O.2    24  LEU24      -0.2864
     52  CB        23.2480   14.4100   41.3800 C.3    24  LEU24       0.0297
     53  CG        24.7820   14.4880   41.4080 C.3    24  LEU24       0.0022
     54  CD1       25.2680   15.3430   40.2460 C.3    24  LEU24       0.0001
     55  CD2       25.3190   15.0440   42.7000 C.3    24  LEU24       0.0001
     56  N         29.5840    6.8790   40.3870 N.3   185  VAL185     -0.1245
     57  CA        29.7410    7.6680   41.6220 C.3   185  VAL185      0.1561
     58  C         30.8870    8.6740   41.5030 C.2   185  VAL185      0.2260
     59  O         30.7580    9.8070   41.9510 O.2   185  VAL185     -0.2867
     60  CB        29.9810    6.7620   42.8630 C.3   185  VAL185      0.0252
     61  CG1       30.4700    7.5740   44.0770 C.3   185  VAL185      0.0019
     62  CG2       28.6890    5.9750   43.2090 C.3   185  VAL185      0.0019
     63  N         29.8370   11.6890   39.3360 N.3   188  GLN188     -0.1231
     64  CA        28.9900   12.6320   40.0860 C.3   188  GLN188      0.1698
     65  C         29.7740   13.4620   41.1040 C.2   188  GLN188      0.2592
     66  O         29.4790   14.6370   41.3180 O.2   188  GLN188     -0.2718
     67  CB        27.8620   11.8790   40.7710 C.3   188  GLN188      0.0381
     68  CG        26.9640   11.1780   39.7570 C.3   188  GLN188      0.0905
     69  CD        25.9070   10.3770   40.4500 C.2   188  GLN188      0.2608
     70  OE1       25.0380   10.9290   41.1280 O.2   188  GLN188     -0.2717
     71  NE2       25.9840    9.0550   40.3180 N.am  188  GLN188     -0.0878
     72  N         30.7810   12.8560   41.7110 N.am  189  LEU189     -0.1980
     73  CA        31.6670   13.5850   42.6180 C.3   189  LEU189      0.1596
     74  C         32.5250   14.6090   41.8860 C.2   189  LEU189      0.2287
     75  O         32.7170   15.7150   42.3850 O.2   189  LEU189     -0.2864
     76  CB        32.5750   12.6020   43.3510 C.3   189  LEU189      0.0297
     77  CG        31.9820   11.9560   44.6200 C.3   189  LEU189      0.0022
     78  CD1       32.9300   10.8440   45.0820 C.3   189  LEU189      0.0001
     79  CD2       31.7900   13.0610   45.7240 C.3   189  LEU189      0.0001
     80  N         30.9220   17.9380   41.3860 N.3   192  LEU192     -0.1245
     81  CA        31.0120   18.8620   42.5170 C.3   192  LEU192      0.1561
     82  C         32.4300   19.3950   42.7500 C.2   192  LEU192      0.2260
     83  O         32.6090   20.5800   42.9890 O.2   192  LEU192     -0.2867
     84  CB        30.5160   18.1720   43.7940 C.3   192  LEU192      0.0270
     85  CG        29.3460   17.1740   43.8210 C.3   192  LEU192      0.0019
     86  CD1       28.9530   16.7940   45.2800 C.3   192  LEU192      0.0001
     87  CD2       28.1520   17.6590   43.0610 C.3   192  LEU192      0.0001
@<TRIPOS>BOND
     1    63    64    1
     2    68    69    1
     3    68    67    1
     4    64    67    1
     5    64    65    1
     6    54    53    1
     7    71    69   am
     8    56    57    1
     9    69    70    2
    10    65    66    2
    11    65    72   am
    12    52    53    1
    13    52    49    1
    14    80    81    1
    15    53    55    1
    16    58    57    1
    17    58    59    2
    18    57    60    1
    19    72    73    1
    20    74    75    2
    21    74    73    1
    22    50    49    1
    23    50    51    2
    24    81    82    1
    25    81    84    1
    26    49    48    1
    27    73    76    1
    28    82    83    2
    29    48    46   am
    30    60    62    1
    31    60    61    1
    32    87    85    1
    33    76    77    1
    34    84    85    1
    35    85    86    1
    36    46    45    1
    37    46    47    2
    38    45    44    1
    39    77    78    1
    40    77    79    1
    41    24    23    1
    42    23    22    1
    43    36    35    2
    44    28    27    2
    45    35    34    1
    46    22    21    1
    47    29    30    1
    48    29    26    1
    49    21    18    1
    50    27    26    1
    51    27    33   am
    52     7     6    1
    53    31    30   ar
    54    30    32   ar
    55    25    26    1
    56    25    19   am
    57    34    33    1
    58    34    37    1
    59    18    19    1
    60    18    17    1
    61     5     6    1
    62     5     2    1
    63     6     8    1
    64     2     1    1
    65     2     3    1
    66    19    20    2
    67    37    38    1
    68    38    39    1
    69     4     3    2
    70     3     9   am
    71    40    39    1
    72    40    41    2
    73    43    41    1
    74     9    10    1
    75    41    42    1
    76    10    11    1
    77    10    13    1
    78    11    12    2
    79    13    14    1
    80    14    16    1
    81    14    15    1
