@<TRIPOS>MOLECULE
tmp/3ibdA02.pdb
 134 128 0 0 0
SMALL
GASTEIGER

@<TRIPOS>ATOM
      1  N         24.7610    3.6700   16.4160 N.3   149  ALA149     -0.1245
      2  CA        26.0390    4.1450   15.8660 C.3   149  ALA149      0.1562
      3  C         26.0690    4.1200   14.2980 C.2   149  ALA149      0.2260
      4  O         26.5220    5.0850   13.6240 O.2   149  ALA149     -0.2867
      5  CB        27.1540    3.3250   16.4220 C.3   149  ALA149      0.0290
      6  N         26.9780    6.8940   11.5220 N.3   153  CYS153     -0.1235
      7  CA        28.0340    6.5400   10.5710 C.3   153  CYS153      0.1677
      8  C         27.5260    6.7050    9.1390 C.2   153  CYS153      0.2270
      9  O         28.2350    7.2180    8.2640 O.2   153  CYS153     -0.2867
     10  CB        28.5150    5.1070   10.7810 C.3   153  CYS153      0.0956
     11  SG        29.4940    4.8800   12.2650 S.3   153  CYS153     -0.0801
     12  N         29.6180    9.5850    7.5930 N.3   157  PHE157     -0.1241
     13  CA        30.6130    8.9410    6.7640 C.3   157  PHE157      0.1605
     14  C         30.1300    8.1730    5.5530 C.2   157  PHE157      0.2264
     15  O         30.9540    7.6680    4.7630 O.2   157  PHE157     -0.2867
     16  CB        31.4910    8.0550    7.6050 C.3   157  PHE157      0.0534
     17  CG        32.2480    8.8170    8.6240 C.ar  157  PHE157     -0.0203
     18  CD1       32.9290    9.9770    8.2540 C.ar  157  PHE157     -0.0042
     19  CD2       32.2580    8.4250    9.9460 C.ar  157  PHE157     -0.0042
     20  CE1       33.6320   10.7300    9.1860 C.ar  157  PHE157     -0.0003
     21  CE2       32.9710    9.1790   10.8950 C.ar  157  PHE157     -0.0003
     22  CZ        33.6550   10.3270   10.5080 C.ar  157  PHE157     -0.0000
     23  N         29.0040   -0.1530    9.4790 N.3   161  PHE161     -0.1241
     24  CA        29.9210   -1.2340    9.9120 C.3   161  PHE161      0.1605
     25  C         29.1600   -2.5590   10.1730 C.2   161  PHE161      0.2264
     26  O         28.0060   -2.5520   10.6440 O.2   161  PHE161     -0.2867
     27  CB        30.7070   -0.8330   11.1600 C.3   161  PHE161      0.0534
     28  CG        31.7080    0.2720   10.9150 C.ar  161  PHE161     -0.0203
     29  CD1       31.3450    1.6020   11.0760 C.ar  161  PHE161     -0.0042
     30  CD2       33.0090   -0.0290   10.5030 C.ar  161  PHE161     -0.0042
     31  CE1       32.2810    2.6420   10.8390 C.ar  161  PHE161     -0.0003
     32  CE2       33.9360    0.9880   10.2440 C.ar  161  PHE161     -0.0003
     33  CZ        33.5730    2.3240   10.4170 C.ar  161  PHE161     -0.0000
     34  N         32.3560   -6.9010   12.9940 N.3   165  ASP165     -0.1239
     35  CA        33.5900   -6.1280   12.8370 C.3   165  ASP165      0.1674
     36  C         34.2610   -5.7790   14.1780 C.2   165  ASP165      0.2266
     37  O         33.7320   -5.0150   14.9550 O.2   165  ASP165     -0.2867
     38  CB        33.2410   -4.8560   12.0560 C.3   165  ASP165      0.1410
     39  CG        34.4570   -4.0350   11.6720 C.2   165  ASP165      0.3668
     40  OD1       35.3950   -3.8730   12.4820 O.co2 165  ASP165     -0.2456
     41  OD2       34.4480   -3.5090   10.5520 O.co2 165  ASP165     -0.2456
     42  N         37.1060   -4.0970   15.1150 N.3   167  GLU167     -0.1231
     43  CA        37.5050   -2.7140   15.3020 C.3   167  GLU167      0.1699
     44  C         36.3140   -1.8100   15.6430 C.2   167  GLU167      0.2592
     45  O         36.4240   -0.9600   16.5330 O.2   167  GLU167     -0.2718
     46  CB        38.2420   -2.2360   14.0660 C.3   167  GLU167      0.0402
     47  CG        39.4760   -3.1050   13.7390 C.3   167  GLU167      0.1161
     48  CD        40.5230   -3.0910   14.8740 C.2   167  GLU167      0.3649
     49  OE1       40.7730   -2.0000   15.4560 O.co2 167  GLU167     -0.2457
     50  OE2       41.0950   -4.1680   15.1960 O.co2 167  GLU167     -0.2457
     51  N         35.1790   -2.0210   14.9570 N.am  168  PHE168     -0.1976
     52  CA        33.8940   -1.3630   15.2580 C.3   168  PHE168      0.1639
     53  C         33.5210   -1.6340   16.7110 C.2   168  PHE168      0.2290
     54  O         33.2610   -0.7060   17.4610 O.2   168  PHE168     -0.2864
     55  CB        32.8070   -1.8770   14.2900 C.3   168  PHE168      0.0560
     56  CG        31.4200   -1.2790   14.4630 C.ar  168  PHE168     -0.0200
     57  CD1       31.2120    0.0910   14.5470 C.ar  168  PHE168     -0.0042
     58  CD2       30.2860   -2.1250   14.4370 C.ar  168  PHE168     -0.0042
     59  CE1       29.9320    0.6180   14.6500 C.ar  168  PHE168     -0.0003
     60  CE2       28.9890   -1.6000   14.5220 C.ar  168  PHE168     -0.0003
     61  CZ        28.8160   -0.2220   14.6400 C.ar  168  PHE168     -0.0000
     62  N         35.6780    0.2510   19.2640 N.3   171  MET171     -0.1230
     63  CA        35.2140    1.6430   19.3630 C.3   171  MET171      0.1702
     64  C         33.9230    1.8070   20.1530 C.2   171  MET171      0.2592
     65  O         33.8180    2.6810   21.0230 O.2   171  MET171     -0.2718
     66  CB        35.0270    2.2630   17.9740 C.3   171  MET171      0.0401
     67  CG        36.3050    2.6370   17.3050 C.3   171  MET171      0.0596
     68  SD        37.1800    3.9620   18.1670 S.3   171  MET171     -0.1393
     69  CE        38.8890    3.5010   17.8590 C.3   171  MET171      0.0692
     70  N         32.9240    0.9750   19.8570 N.am  172  LEU172     -0.1980
     71  CA        31.6900    1.0580   20.6130 C.3   172  LEU172      0.1596
     72  C         31.9460    0.8230   22.0900 C.2   172  LEU172      0.2287
     73  O         31.2900    1.4750   22.9220 O.2   172  LEU172     -0.2864
     74  CB        30.6010    0.0810   20.1030 C.3   172  LEU172      0.0297
     75  CG        30.0550    0.2960   18.6910 C.3   172  LEU172      0.0022
     76  CD1       29.1640   -0.8760   18.3540 C.3   172  LEU172      0.0001
     77  CD2       29.2910    1.5910   18.5350 C.3   172  LEU172      0.0001
     78  N         33.0440    4.1340   23.7900 N.3   175  PHE175     -0.1241
     79  CA        31.9030    4.9830   24.1430 C.3   175  PHE175      0.1605
     80  C         31.1400    4.4550   25.3440 C.2   175  PHE175      0.2264
     81  O         30.8370    5.2040   26.3060 O.2   175  PHE175     -0.2867
     82  CB        30.9030    5.0960   22.9680 C.3   175  PHE175      0.0534
     83  CG        31.2030    6.2170   22.0220 C.ar  175  PHE175     -0.0203
     84  CD1       31.0690    7.5460   22.4200 C.ar  175  PHE175     -0.0042
     85  CD2       31.6500    5.9610   20.7580 C.ar  175  PHE175     -0.0042
     86  CE1       31.3410    8.5950   21.5490 C.ar  175  PHE175     -0.0003
     87  CE2       31.9300    7.0230   19.8760 C.ar  175  PHE175     -0.0003
     88  CZ        31.7680    8.3230   20.2740 C.ar  175  PHE175     -0.0000
     89  N         38.7990    7.9240   20.3110 N.3   214  ILE214     -0.1245
     90  CA        37.6990    8.0730   19.3850 C.3   214  ILE214      0.1561
     91  C         37.9230    9.2360   18.3860 C.2   214  ILE214      0.2260
     92  O         37.7170    9.0820   17.1820 O.2   214  ILE214     -0.2867
     93  CB        36.3460    8.2200   20.1290 C.3   214  ILE214      0.0252
     94  CG1       36.0420    6.9880   20.9760 C.3   214  ILE214      0.0019
     95  CG2       35.2190    8.3820   19.1360 C.3   214  ILE214      0.0019
     96  CD1       34.8750    7.2460   21.9600 C.3   214  ILE214      0.0001
     97  N         40.1900    8.1620   15.5400 N.3   217  TYR217     -0.1227
     98  CA        39.5510    7.4720   14.4240 C.3   217  TYR217      0.1736
     99  C         38.8180    8.5010   13.5210 C.2   217  TYR217      0.2595
    100  O         38.9500    8.4780   12.2930 O.2   217  TYR217     -0.2718
    101  CB        38.5630    6.3510   14.8130 C.3   217  TYR217      0.0548
    102  CG        37.9290    5.8280   13.5230 C.ar  217  TYR217     -0.0200
    103  CD1       38.7000    5.0740   12.6160 C.ar  217  TYR217     -0.0009
    104  CD2       36.6200    6.1900   13.1350 C.ar  217  TYR217     -0.0009
    105  CE1       38.1740    4.6350   11.3890 C.ar  217  TYR217      0.0417
    106  CE2       36.0690    5.7410   11.8920 C.ar  217  TYR217      0.0417
    107  CZ        36.8640    4.9680   11.0320 C.ar  217  TYR217      0.1957
    108  OH        36.3990    4.5240    9.8150 O.3   217  TYR217     -0.2866
    109  N         38.0580    9.3980   14.1390 N.am  218  ILE218     -0.1980
    110  CA        37.2720   10.3950   13.4240 C.3   218  ILE218      0.1595
    111  C         38.1830   11.2900   12.5910 C.2   218  ILE218      0.2287
    112  O         37.9570   11.4420   11.3880 O.2   218  ILE218     -0.2864
    113  CB        36.3890   11.2200   14.3960 C.3   218  ILE218      0.0276
    114  CG1       35.0850   10.4580   14.6770 C.3   218  ILE218      0.0022
    115  CG2       36.0760   12.6450   13.8680 C.3   218  ILE218      0.0022
    116  CD1       34.4010   10.9540   15.9320 C.3   218  ILE218      0.0001
    117  N         28.3080   11.9380   17.3200 N.3   269  PHE269     -0.1241
    118  CA        28.3680   10.5620   17.8410 C.3   269  PHE269      0.1605
    119  C         28.0400   10.4370   19.3640 C.2   269  PHE269      0.2264
    120  O         27.3290    9.5410   19.7860 O.2   269  PHE269     -0.2867
    121  CB        29.7060    9.9170   17.4930 C.3   269  PHE269      0.0534
    122  CG        29.7990    9.4510   16.0550 C.ar  269  PHE269     -0.0203
    123  CD1       29.1670    8.2730   15.6520 C.ar  269  PHE269     -0.0042
    124  CD2       30.4940   10.2000   15.1010 C.ar  269  PHE269     -0.0042
    125  CE1       29.2560    7.8180   14.3150 C.ar  269  PHE269     -0.0003
    126  CE2       30.5760    9.7900   13.7600 C.ar  269  PHE269     -0.0003
    127  CZ        29.9560    8.5890   13.3600 C.ar  269  PHE269     -0.0000
    128  N         24.5070    8.2990   19.8710 N.3   273  THR273     -0.1218
    129  CA        24.5960    6.8390   19.9620 C.3   273  THR273      0.1862
    130  C         23.9150    6.3100   21.2320 C.2   273  THR273      0.2287
    131  O         23.0120    5.4500   21.1630 O.2   273  THR273     -0.2866
    132  CB        26.0630    6.3280   19.9010 C.3   273  THR273      0.1770
    133  OG1       26.8330    6.9570   20.9370 O.3   273  THR273     -0.2211
    134  CG2       26.6820    6.6320   18.5530 C.3   273  THR273      0.0375
@<TRIPOS>BOND
     1    15    14    2
     2    14    13    1
     3    13    12    1
     4    13    16    1
     5    16    17    1
     6    18    17   ar
     7    18    20   ar
     8     9     8    2
     9    17    19   ar
    10     8     7    1
    11    20    22   ar
    12    23    24    1
    13   108   107    1
    14    24    25    1
    15    24    27    1
    16    19    21   ar
    17    25    26    2
    18    32    33   ar
    19    32    30   ar
    20    33    31   ar
    21    30    28   ar
    22    22    21   ar
    23    41    39   ar
    24     7    10    1
    25     7     6    1
    26    10    11    1
    27    31    29   ar
    28    28    29   ar
    29    28    27    1
    30   107   105   ar
    31   107   106   ar
    32   112   111    2
    33   105   103   ar
    34    39    38    1
    35    39    40   ar
    36   106   104   ar
    37    38    35    1
    38   100    99    2
    39   111   110    1
    40   103   102   ar
    41    35    34    1
    42    35    36    1
    43   104   102   ar
    44   127   126   ar
    45   127   125   ar
    46   110   109    1
    47   110   113    1
    48    99   109   am
    49    99    98    1
    50   102   101    1
    51     4     3    2
    52    47    46    1
    53    47    48    1
    54   126   124   ar
    55   115   113    1
    56    46    43    1
    57    36    37    2
    58    55    56    1
    59    55    52    1
    60     3     2    1
    61   125   123   ar
    62   113   114    1
    63    98   101    1
    64    98    97    1
    65    58    56   ar
    66    58    60   ar
    67    56    57   ar
    68    60    61   ar
    69    57    59   ar
    70    61    59   ar
    71   114   116    1
    72    48    50   ar
    73    48    49   ar
    74    51    52    1
    75    51    44   am
    76   124   122   ar
    77    42    43    1
    78    52    53    1
    79    43    44    1
    80    44    45    2
    81   123   122   ar
    82     2     1    1
    83     2     5    1
    84   122   121    1
    85    53    54    2
    86    92    91    2
    87    67    66    1
    88    67    68    1
    89   117   118    1
    90   121   118    1
    91   118   119    1
    92    69    68    1
    93    66    63    1
    94    76    75    1
    95    91    90    1
    96    77    75    1
    97   134   132    1
    98    75    74    1
    99    95    93    1
   100    62    63    1
   101    63    64    1
   102   119   120    2
   103    90    93    1
   104    90    89    1
   105    70    64   am
   106    70    71    1
   107   128   129    1
   108    87    88   ar
   109    87    85   ar
   110   132   129    1
   111   132   133    1
   112   129   130    1
   113    74    71    1
   114    93    94    1
   115    64    65    2
   116    88    86   ar
   117    71    72    1
   118    85    83   ar
   119    94    96    1
   120   131   130    2
   121    86    84   ar
   122    83    84   ar
   123    83    82    1
   124    72    73    2
   125    82    79    1
   126    78    79    1
   127    79    80    1
   128    80    81    2
