@<TRIPOS>MOLECULE
tmp/3ibgA00.pdb
 152 146 0 0 0
SMALL
GASTEIGER

@<TRIPOS>ATOM
      1  N         16.9960  -54.6240  108.0760 N.3    22  GLY22      -0.1225
      2  CA        16.4640  -55.7480  107.3350 C.3    22  GLY22       0.1811
      3  C         15.1920  -55.3160  106.6370 C.2    22  GLY22       0.2280
      4  O         14.2700  -54.8020  107.2720 O.2    22  GLY22      -0.2866
      5  N          9.8210  -57.1180  106.1600 N.3    25  GLY25      -0.1210
      6  CA         9.0600  -57.9310  107.0940 C.3    25  GLY25       0.1956
      7  C          9.7100  -59.2700  107.3910 C.2    25  GLY25       0.2612
      8  O          9.0420  -60.2920  107.5460 O.2    25  GLY25      -0.2717
      9  N         11.0310  -59.2600  107.4870 N.am   26  VAL26      -0.1965
     10  CA        11.7890  -60.4730  107.7310 C.3    26  VAL26       0.1727
     11  C         12.0200  -60.7070  109.2310 C.2    26  VAL26       0.2617
     12  O         12.6900  -61.6610  109.6340 O.2    26  VAL26      -0.2715
     13  CB        13.1310  -60.3930  107.0060 C.3    26  VAL26       0.0290
     14  CG1       12.9040  -59.9880  105.5560 C.3    26  VAL26       0.0023
     15  CG2       14.0470  -59.3860  107.6980 C.3    26  VAL26       0.0023
     16  N         11.4570  -59.8340  110.0590 N.am   27  GLY27      -0.1940
     17  CA        11.6750  -59.9040  111.4930 C.3    27  GLY27       0.2014
     18  C         12.7580  -58.9480  111.9670 C.2    27  GLY27       0.2639
     19  O         13.5540  -59.2830  112.8400 O.2    27  GLY27      -0.2714
     20  N         12.7910  -57.7520  111.3880 N.am   28  LYS28      -0.1963
     21  CA        13.7770  -56.7550  111.7780 C.3    28  LYS28       0.1728
     22  C         13.4650  -56.2670  113.1830 C.2    28  LYS28       0.2617
     23  O         14.2920  -56.3730  114.0970 O.2    28  LYS28      -0.2715
     24  CB        13.7600  -55.5760  110.8070 C.3    28  LYS28       0.0311
     25  CG        14.8570  -54.5630  111.0600 C.3    28  LYS28       0.0038
     26  CD        14.3050  -53.1500  110.9960 C.3    28  LYS28       0.0206
     27  CE        13.1720  -52.9700  111.9960 C.3    28  LYS28       0.1093
     28  NZ        12.6070  -51.5970  111.9830 N.3    28  LYS28      -0.1314
     29  N         12.2570  -55.7340  113.3450 N.am   29  THR29      -0.1937
     30  CA        11.8000  -55.2240  114.6320 C.3    29  THR29       0.2028
     31  C         12.0420  -56.2220  115.7600 C.2    29  THR29       0.2642
     32  O         12.5940  -55.8720  116.8070 O.2    29  THR29      -0.2714
     33  CB        10.3110  -54.8770  114.5810 C.3    29  THR29       0.1808
     34  OG1       10.1450  -53.6420  113.8800 O.3    29  THR29      -0.2208
     35  CG2        9.7460  -54.7400  115.9810 C.3    29  THR29       0.0379
     36  N         11.6300  -57.4660  115.5330 N.am   30  THR30      -0.1950
     37  CA        11.7840  -58.5220  116.5240 C.3    30  THR30       0.1897
     38  C         13.2420  -58.7700  116.8930 C.2    30  THR30       0.2313
     39  O         13.5450  -59.0950  118.0360 O.2    30  THR30      -0.2863
     40  CB        11.1240  -59.8260  116.0530 C.3    30  THR30       0.1794
     41  OG1        9.7090  -59.7390  116.2690 O.3    30  THR30      -0.2208
     42  CG2       11.6720  -61.0210  116.8240 C.3    30  THR30       0.0378
     43  N         12.3440  -46.3730  112.4780 N.3    52  ASP52      -0.1239
     44  CA        11.2720  -47.0590  111.7620 C.3    52  ASP52       0.1674
     45  C          9.9520  -46.3090  111.9230 C.2    52  ASP52       0.2266
     46  O          9.4350  -46.1950  113.0400 O.2    52  ASP52      -0.2867
     47  CB        11.1420  -48.4910  112.2880 C.3    52  ASP52       0.1410
     48  CG        10.2030  -49.3450  111.4590 C.2    52  ASP52       0.3668
     49  OD1        9.5130  -48.8100  110.5670 O.co2  52  ASP52      -0.2456
     50  OD2       10.1560  -50.5660  111.7100 O.co2  52  ASP52      -0.2456
     51  N          7.0100  -50.1420  115.0930 N.3    56  ASN56      -0.1240
     52  CA         6.6550  -51.4860  115.5190 C.3    56  ASN56       0.1653
     53  C          7.2820  -51.7760  116.8730 C.2    56  ASN56       0.2266
     54  O          7.0210  -52.8100  117.4870 O.2    56  ASN56      -0.2867
     55  CB         7.1140  -52.5230  114.4880 C.3    56  ASN56       0.1155
     56  CG         6.0080  -52.9220  113.5190 C.2    56  ASN56       0.2627
     57  OD1        4.9300  -52.3270  113.5120 O.2    56  ASN56      -0.2716
     58  ND2        6.2710  -53.9390  112.7010 N.am   56  ASN56      -0.0877
     59  N         12.9440  -50.0690  107.7240 N.3   132  PRO132     -0.2116
     60  CA        12.9460  -51.1320  106.7200 C.3   132  PRO132      0.1372
     61  C         12.4340  -50.6200  105.3810 C.2   132  PRO132      0.2244
     62  O         11.8370  -51.3810  104.6250 O.2   132  PRO132     -0.2868
     63  CB        11.9530  -52.1500  107.2900 C.3   132  PRO132      0.0268
     64  CG        11.5870  -51.6540  108.6720 C.3   132  PRO132      0.0207
     65  CD        11.7950  -50.1870  108.6310 C.3   132  PRO132      0.0892
     66  N         16.0590  -65.3800  109.4480 N.3   238  ASN238     -0.1225
     67  CA        14.8570  -65.6060  110.2390 C.3   238  ASN238      0.1785
     68  C         13.8280  -66.5150  109.5550 C.2   238  ASN238      0.2597
     69  O         13.9310  -66.8020  108.3640 O.2   238  ASN238     -0.2718
     70  CB        14.2290  -64.2540  110.5860 C.3   238  ASN238      0.1169
     71  CG        13.2490  -64.3380  111.7400 C.2   238  ASN238      0.2627
     72  OD1       13.3360  -65.2310  112.5840 O.2   238  ASN238     -0.2716
     73  ND2       12.3110  -63.3960  111.7860 N.am  238  ASN238     -0.0877
     74  N         12.8480  -66.9760  110.3260 N.am  239  GLN239     -0.1979
     75  CA        11.7110  -67.7410  109.8010 C.3   239  GLN239      0.1601
     76  C         12.0670  -69.0550  109.0860 C.2   239  GLN239      0.2287
     77  O         11.3440  -69.4890  108.1900 O.2   239  GLN239     -0.2864
     78  CB        10.8440  -66.8560  108.8960 C.3   239  GLN239      0.0394
     79  CG        10.3320  -65.5890  109.5740 C.3   239  GLN239      0.0908
     80  CD         9.3540  -64.7990  108.7110 C.2   239  GLN239      0.2608
     81  OE1        8.8410  -65.3010  107.7110 O.2   239  GLN239     -0.2717
     82  NE2        9.0880  -63.5590  109.1040 N.am  239  GLN239     -0.0878
     83  N         14.3660  -70.1470  113.8910 N.3   275  PRO275     -0.2102
     84  CA        13.2680  -70.9820  113.4080 C.3   275  PRO275      0.1504
     85  C         11.9980  -70.1600  113.2680 C.2   275  PRO275      0.2576
     86  O         11.8570  -69.1510  113.9550 O.2   275  PRO275     -0.2718
     87  CB        13.0770  -71.9910  114.5450 C.3   275  PRO275      0.0282
     88  CG        14.0810  -71.6180  115.6250 C.3   275  PRO275      0.0208
     89  CD        14.5050  -70.2300  115.3520 C.3   275  PRO275      0.0893
     90  N         11.0820  -70.5760  112.4010 N.am  276  LEU276     -0.1966
     91  CA         9.7530  -69.9810  112.4030 C.3   276  LEU276      0.1728
     92  C          8.9730  -70.5380  113.5890 C.2   276  LEU276      0.2616
     93  O          8.7440  -71.7410  113.6700 O.2   276  LEU276     -0.2715
     94  CB         9.0030  -70.2910  111.1070 C.3   276  LEU276      0.0311
     95  CG         7.5320  -69.8460  111.0970 C.3   276  LEU276      0.0022
     96  CD1        7.3970  -68.3440  110.8820 C.3   276  LEU276      0.0001
     97  CD2        6.7330  -70.6170  110.0490 C.3   276  LEU276      0.0001
     98  N          8.5740  -69.6690  114.5110 N.am  277  LEU277     -0.1977
     99  CA         7.7930  -70.0980  115.6650 C.3   277  LEU277      0.1596
    100  C          6.3020  -70.1340  115.3300 C.2   277  LEU277      0.2287
    101  O          5.8520  -69.4790  114.3890 O.2   277  LEU277     -0.2864
    102  CB         8.0550  -69.1880  116.8640 C.3   277  LEU277      0.0297
    103  CG         9.5260  -69.0120  117.2350 C.3   277  LEU277      0.0022
    104  CD1        9.6620  -68.2480  118.5380 C.3   277  LEU277      0.0001
    105  CD2       10.2100  -70.3580  117.3370 C.3   277  LEU277      0.0001
    106  N          3.6720  -69.0960  117.0940 N.3   279  GLU279     -0.1231
    107  CA         2.9210  -67.9070  117.4940 C.3   279  GLU279      0.1699
    108  C          3.7610  -66.6580  117.2920 C.2   279  GLU279      0.2592
    109  O          4.9860  -66.7350  117.2420 O.2   279  GLU279     -0.2718
    110  CB         2.4910  -68.0030  118.9600 C.3   279  GLU279      0.0402
    111  CG         1.3920  -69.0190  119.2320 C.3   279  GLU279      0.1161
    112  CD         1.1780  -69.2590  120.7120 C.2   279  GLU279      0.3649
    113  OE1        0.2990  -70.0760  121.0540 O.co2 279  GLU279     -0.2457
    114  OE2        1.8890  -68.6380  121.5320 O.co2 279  GLU279     -0.2457
    115  N          3.1040  -65.5080  117.1830 N.am  280  GLU280     -0.1966
    116  CA         3.8150  -64.2450  117.0180 C.3   280  GLU280      0.1733
    117  C          4.7480  -64.0020  118.1930 C.2   280  GLU280      0.2616
    118  O          4.4090  -64.3120  119.3330 O.2   280  GLU280     -0.2715
    119  CB         2.8290  -63.0830  116.9010 C.3   280  GLU280      0.0429
    120  CG         2.1000  -63.0220  115.5770 C.3   280  GLU280      0.1163
    121  CD         1.0290  -61.9500  115.5500 C.2   280  GLU280      0.3649
    122  OE1        0.6010  -61.5040  116.6380 O.co2 280  GLU280     -0.2457
    123  OE2        0.6130  -61.5590  114.4380 O.co2 280  GLU280     -0.2457
    124  N          5.9250  -63.4500  117.9140 N.am  281  VAL281     -0.1963
    125  CA         6.8570  -63.0870  118.9750 C.3   281  VAL281      0.1727
    126  C          6.5240  -61.6870  119.5060 C.2   281  VAL281      0.2616
    127  O          7.1440  -60.6890  119.1170 O.2   281  VAL281     -0.2715
    128  CB         8.3180  -63.1450  118.4930 C.3   281  VAL281      0.0290
    129  CG1        9.2680  -63.0910  119.6770 C.3   281  VAL281      0.0023
    130  CG2        8.5520  -64.4100  117.6930 C.3   281  VAL281      0.0023
    131  N          5.5340  -61.6270  120.3940 N.am  282  ARG282     -0.1977
    132  CA         5.0100  -60.3540  120.8750 C.3   282  ARG282      0.1597
    133  C          5.2790  -60.1260  122.3610 C.2   282  ARG282      0.2287
    134  O          5.8590  -59.1110  122.7400 O.2   282  ARG282     -0.2864
    135  CB         3.5100  -60.2520  120.5820 C.3   282  ARG282      0.0334
    136  CG         2.9720  -58.8330  120.5890 C.3   282  ARG282      0.0492
    137  CD         1.8260  -58.6790  119.6020 C.3   282  ARG282      0.2205
    138  NE         2.0980  -59.3740  118.3440 N.pl3 282  ARG282     -0.0865
    139  CZ         2.9390  -58.9420  117.4080 C.cat 282  ARG282      0.5346
    140  NH1        3.6090  -57.8100  117.5780 N.pl3 282  ARG282      0.1354
    141  NH2        3.1160  -59.6460  116.3000 N.pl3 282  ARG282      0.1354
    142  N         12.7070  -66.0350  122.3390 N.3   290  PHE290     -0.1241
    143  CA        13.2580  -65.8580  121.0010 C.3   290  PHE290      0.1605
    144  C         14.7000  -65.3560  121.0770 C.2   290  PHE290      0.2264
    145  O         15.5760  -65.8730  120.3870 O.2   290  PHE290     -0.2867
    146  CB        12.3930  -64.8820  120.1920 C.3   290  PHE290      0.0534
    147  CG        12.8700  -64.6550  118.7740 C.ar  290  PHE290     -0.0203
    148  CD1       12.3820  -65.4260  117.7320 C.ar  290  PHE290     -0.0042
    149  CD2       13.7900  -63.6520  118.4790 C.ar  290  PHE290     -0.0042
    150  CE1       12.8180  -65.2060  116.4290 C.ar  290  PHE290     -0.0003
    151  CE2       14.2210  -63.4330  117.1770 C.ar  290  PHE290     -0.0003
    152  CZ        13.7350  -64.2060  116.1570 C.ar  290  PHE290     -0.0000
@<TRIPOS>BOND
     1    62    61    2
     2    61    60    1
     3    14    13    1
     4     5     6    1
     5     3     4    2
     6     3     2    1
     7    60    63    1
     8    60    59    1
     9    13    15    1
    10    13    10    1
    11     6     7    1
    12    63    64    1
    13     2     1    1
    14     7     9   am
    15     7     8    2
    16     9    10    1
    17    81    80    2
    18    59    65    1
    19    10    11    1
    20    77    76    2
    21    69    68    2
    22    65    64    1
    23    80    82   am
    24    80    79    1
    25    78    79    1
    26    78    75    1
    27    76    75    1
    28    11    12    2
    29    11    16   am
    30    66    67    1
    31    68    67    1
    32    68    74   am
    33    75    74    1
    34    97    95    1
    35    16    17    1
    36    67    70    1
    37    49    48   ar
    38    70    71    1
    39    24    25    1
    40    24    21    1
    41    96    95    1
    42    26    25    1
    43    26    27    1
    44    95    94    1
    45    94    91    1
    46    20    21    1
    47    20    18   am
    48    48    50   ar
    49    48    47    1
    50    17    18    1
    51    71    73   am
    52    71    72    2
    53    44    45    1
    54    44    47    1
    55    44    43    1
    56    21    22    1
    57    45    46    2
    58    18    19    2
    59    28    27    1
    60    90    91    1
    61    90    85   am
    62    91    92    1
    63    58    56   am
    64    22    29   am
    65    22    23    2
    66    85    84    1
    67    85    86    2
    68    29    30    1
    69    84    83    1
    70    84    87    1
    71    57    56    2
    72    56    55    1
    73    92    93    2
    74    92    98   am
    75    34    33    1
    76    83    89    1
    77   101   100    2
    78   123   121   ar
    79    55    52    1
    80    98    99    1
    81    87    88    1
    82    33    30    1
    83    33    35    1
    84    30    31    1
    85    51    52    1
    86   100    99    1
    87    89    88    1
    88    52    53    1
    89    36    31   am
    90    36    37    1
    91   121   120    1
    92   121   122   ar
    93   120   119    1
    94    99   102    1
    95    31    32    2
    96    40    41    1
    97    40    37    1
    98    40    42    1
    99   152   150   ar
   100   152   151   ar
   101   141   139    1
   102   150   148   ar
   103    37    38    1
   104   102   103    1
   105    53    54    2
   106    38    39    2
   107   119   116    1
   108   116   115    1
   109   116   117    1
   110   106   107    1
   111   151   149   ar
   112   115   108   am
   113   103   105    1
   114   103   104    1
   115   109   108    2
   116   108   107    1
   117   139   140    1
   118   139   138    2
   119   107   110    1
   120   130   128    1
   121   148   147   ar
   122   124   117   am
   123   124   125    1
   124   117   118    2
   125   138   137    1
   126   149   147   ar
   127   128   125    1
   128   128   129    1
   129   147   146    1
   130   110   111    1
   131   125   126    1
   132   127   126    2
   133   111   112    1
   134   126   131   am
   135   137   136    1
   136   146   143    1
   137   145   144    2
   138   131   132    1
   139   135   136    1
   140   135   132    1
   141   112   113   ar
   142   112   114   ar
   143   132   133    1
   144   143   144    1
   145   143   142    1
   146   133   134    2
