@<TRIPOS>MOLECULE
tmp/3ibhA00.pdb
 183 177 0 0 0
SMALL
GASTEIGER

@<TRIPOS>ATOM
      1  N         -7.9490   39.2730   -2.7640 N.3     9  GLY9       -0.1210
      2  CA        -8.9370   39.2240   -1.6820 C.3     9  GLY9        0.1940
      3  C         -8.3230   38.6480   -0.4200 C.2     9  GLY9        0.2454
      4  O         -7.5840   37.6600   -0.4940 O.2     9  GLY9       -0.2732
      5  N         -8.6020   39.2600    0.7530 N.am   10  PRO10      -0.2717
      6  CA        -8.1140   38.7110    2.0130 C.3    10  PRO10       0.1535
      7  C         -8.6130   37.3170    2.3540 C.2    10  PRO10       0.2598
      8  O         -7.8510   36.5090    2.8660 O.2    10  PRO10      -0.2715
      9  CB        -8.6090   39.7330    3.0460 C.3    10  PRO10       0.0310
     10  CG        -8.4930   41.0370    2.2750 C.3    10  PRO10       0.0237
     11  CD        -9.0860   40.6410    0.9330 C.3    10  PRO10       0.0939
     12  N         -9.8850   37.0130    2.1130 N.am   11  TYR11      -0.1961
     13  CA       -10.3040   35.6280    2.3590 C.3    11  TYR11       0.1756
     14  C         -9.5740   34.6850    1.3760 C.2    11  TYR11       0.2461
     15  O         -8.9910   33.7130    1.8060 O.2    11  TYR11      -0.2730
     16  CB       -11.8210   35.4800    2.3210 C.3    11  TYR11       0.0574
     17  CG       -12.5360   36.0260    3.5530 C.ar   11  TYR11      -0.0198
     18  CD1      -12.8310   35.1950    4.6410 C.ar   11  TYR11      -0.0009
     19  CD2      -12.9520   37.3540    3.6080 C.ar   11  TYR11      -0.0009
     20  CE1      -13.5270   35.6780    5.7530 C.ar   11  TYR11       0.0417
     21  CE2      -13.6340   37.8440    4.7070 C.ar   11  TYR11       0.0417
     22  CZ       -13.9260   37.0020    5.7750 C.ar   11  TYR11       0.1957
     23  OH       -14.6260   37.4850    6.8630 O.3    11  TYR11      -0.2866
     24  N         -9.5630   35.0070    0.0650 N.am   12  PRO12      -0.2727
     25  CA        -8.7450   34.2340   -0.8850 C.3    12  PRO12       0.1402
     26  C         -7.2990   33.9770   -0.4160 C.2    12  PRO12       0.2269
     27  O         -6.7890   32.8600   -0.5990 O.2    12  PRO12      -0.2865
     28  CB        -8.7800   35.1020   -2.1450 C.3    12  PRO12       0.0296
     29  CG       -10.2070   35.6570   -2.1140 C.3    12  PRO12       0.0237
     30  CD       -10.5390   35.8610   -0.6410 C.3    12  PRO12       0.0939
     31  N         -6.2560   33.4180    2.5320 N.3    14  ARG14      -0.1245
     32  CA        -6.2120   32.3380    3.5000 C.3    14  ARG14       0.1563
     33  C         -5.9530   30.9990    2.8040 C.2    14  ARG14       0.2260
     34  O         -5.1600   30.1730    3.2780 O.2    14  ARG14      -0.2867
     35  CB        -7.5290   32.2800    4.2890 C.3    14  ARG14       0.0307
     36  CG        -7.7600   33.4880    5.2270 C.3    14  ARG14       0.0489
     37  CD        -9.1540   33.4350    5.9090 C.3    14  ARG14       0.2205
     38  NE        -9.3290   32.2620    6.7630 N.pl3  14  ARG14      -0.0865
     39  CZ       -10.4890   31.9070    7.3180 C.cat  14  ARG14       0.5346
     40  NH1      -11.5910   32.6220    7.0950 N.pl3  14  ARG14       0.1354
     41  NH2      -10.5560   30.8210    8.0780 N.pl3  14  ARG14       0.1354
     42  N        -15.3690   40.5400   -8.4810 N.3    35  LEU35      -0.1245
     43  CA       -16.2480   41.0750   -7.4340 C.3    35  LEU35       0.1561
     44  C        -16.6360   42.5220   -7.7020 C.2    35  LEU35       0.2260
     45  O        -17.7480   42.9520   -7.3390 O.2    35  LEU35      -0.2867
     46  CB       -15.6060   40.9770   -6.0530 C.3    35  LEU35       0.0270
     47  CG       -15.0200   39.6420   -5.5840 C.3    35  LEU35       0.0019
     48  CD1      -14.5720   39.7400   -4.1190 C.3    35  LEU35       0.0001
     49  CD2      -15.9970   38.5000   -5.7750 C.3    35  LEU35       0.0001
     50  N        -19.9330   37.6640   -8.3720 N.3    40  HIS40      -0.1226
     51  CA       -20.2630   36.7530   -7.2610 C.3    40  HIS40       0.1752
     52  C        -21.7330   36.7890   -6.7990 C.2    40  HIS40       0.2595
     53  O        -22.1680   35.8990   -6.0730 O.2    40  HIS40      -0.2718
     54  CB       -19.3210   37.0190   -6.0760 C.3    40  HIS40       0.0759
     55  CG       -19.4500   38.3970   -5.4860 C.ar   40  HIS40       0.0818
     56  ND1      -19.2010   39.5480   -6.2070 N.ar   40  HIS40      -0.2268
     57  CD2      -19.7900   38.8010   -4.2370 C.ar   40  HIS40       0.1154
     58  CE1      -19.3890   40.6020   -5.4310 C.ar   40  HIS40       0.1986
     59  NE2      -19.7500   40.1780   -4.2300 N.ar   40  HIS40      -0.2212
     60  N        -22.4890   37.8090   -7.2150 N.am   41  LYS41      -0.1980
     61  CA       -23.9090   37.9610   -6.8180 C.3    41  LYS41       0.1596
     62  C        -24.8930   37.5500   -7.9310 C.2    41  LYS41       0.2287
     63  O        -26.1190   37.6440   -7.7690 O.2    41  LYS41      -0.2864
     64  CB       -24.2040   39.3910   -6.3050 C.3    41  LYS41       0.0298
     65  CG       -23.4360   39.8040   -5.0380 C.3    41  LYS41       0.0038
     66  CD       -23.9280   41.1540   -4.4770 C.3    41  LYS41       0.0206
     67  CE       -23.2020   41.5480   -3.1680 C.3    41  LYS41       0.1093
     68  NZ       -23.8100   42.7170   -2.3880 N.3    41  LYS41      -0.1314
     69  N        -22.4070   33.1080   -1.8850 N.3    52  GLY52      -0.1210
     70  CA       -22.0310   34.2090   -2.7810 C.3    52  GLY52       0.1956
     71  C        -20.6870   34.8570   -2.4740 C.2    52  GLY52       0.2613
     72  O        -20.5460   36.0700   -2.5930 O.2    52  GLY52      -0.2717
     73  N        -19.7070   34.0480   -2.0640 N.am   53  THR53      -0.1938
     74  CA       -18.4020   34.5700   -1.6530 C.3    53  THR53       0.2028
     75  C        -17.2860   33.7550   -2.2450 C.2    53  THR53       0.2642
     76  O        -17.5040   32.6310   -2.6690 O.2    53  THR53      -0.2714
     77  CB       -18.2320   34.6400   -0.0980 C.3    53  THR53       0.1808
     78  OG1      -18.3970   33.3420    0.4970 O.3    53  THR53      -0.2208
     79  CG2      -19.2460   35.6200    0.5090 C.3    53  THR53       0.0379
     80  N        -16.0900   34.3350   -2.2720 N.am   54  VAL54      -0.1963
     81  CA       -14.8810   33.6210   -2.6850 C.3    54  VAL54       0.1712
     82  C        -13.9200   33.4870   -1.4840 C.2    54  VAL54       0.2458
     83  O        -13.9060   34.3520   -0.5910 O.2    54  VAL54      -0.2730
     84  CB       -14.1910   34.3280   -3.8830 C.3    54  VAL54       0.0289
     85  CG1      -15.0230   34.1400   -5.1620 C.3    54  VAL54       0.0023
     86  CG2      -13.9770   35.8190   -3.5780 C.3    54  VAL54       0.0023
     87  N        -13.1020   32.4100   -1.4500 N.am   55  PRO55      -0.2727
     88  CA       -12.8880   31.3940   -2.4830 C.3    55  PRO55       0.1402
     89  C        -13.8270   30.1860   -2.3950 C.2    55  PRO55       0.2269
     90  O        -14.4570   29.9300   -1.3560 O.2    55  PRO55      -0.2865
     91  CB       -11.4540   30.9290   -2.2220 C.3    55  PRO55       0.0296
     92  CG       -11.3170   31.0560   -0.6990 C.3    55  PRO55       0.0237
     93  CD       -12.1970   32.2320   -0.3030 C.3    55  PRO55       0.0939
     94  N        -15.9710   27.8680    1.7400 N.3    67  GLU67      -0.1231
     95  CA       -15.5420   28.3420    3.0640 C.3    67  GLU67       0.1699
     96  C        -14.0580   28.0980    3.3010 C.2    67  GLU67       0.2592
     97  O        -13.5780   26.9550    3.1890 O.2    67  GLU67      -0.2718
     98  CB       -16.3840   27.7430    4.2220 C.3    67  GLU67       0.0402
     99  CG       -17.8810   28.1070    4.1960 C.3    67  GLU67       0.1161
    100  CD       -18.1340   29.6030    4.2760 C.2    67  GLU67       0.3649
    101  OE1      -17.5360   30.2780    5.1560 O.co2  67  GLU67      -0.2457
    102  OE2      -18.9160   30.1020    3.4340 O.co2  67  GLU67      -0.2457
    103  N        -13.3380   29.1630    3.6550 N.am   68  CYS68      -0.1956
    104  CA       -11.9040   29.0620    3.8930 C.3    68  CYS68       0.1843
    105  C        -11.5320   27.9370    4.8440 C.2    68  CYS68       0.2626
    106  O        -10.5900   27.1810    4.5580 O.2    68  CYS68      -0.2714
    107  CB       -11.3200   30.3950    4.3920 C.3    68  CYS68       0.0997
    108  SG       -11.2890   31.6160    3.1080 S.3    68  CYS68      -0.0797
    109  N        -12.2710   27.8090    5.9520 N.am   69  THR69      -0.1950
    110  CA       -11.9860   26.7790    6.9510 C.3    69  THR69       0.1897
    111  C        -12.0790   25.3690    6.3780 C.2    69  THR69       0.2313
    112  O        -11.2120   24.5040    6.6620 O.2    69  THR69      -0.2863
    113  CB       -12.8930   26.9450    8.2050 C.3    69  THR69       0.1794
    114  OG1      -12.6060   28.2100    8.8040 O.3    69  THR69      -0.2208
    115  CG2      -12.6310   25.8800    9.2460 C.3    69  THR69       0.0378
    116  N        -11.7800   34.8150   12.8890 N.3   103  GLU103     -0.1245
    117  CA       -12.8760   35.2060   11.9960 C.3   103  GLU103      0.1567
    118  C        -13.8400   36.1150   12.7170 C.2   103  GLU103      0.2260
    119  O        -14.0960   37.1990   12.2560 O.2   103  GLU103     -0.2867
    120  CB       -13.6380   33.9720   11.4830 C.3   103  GLU103      0.0388
    121  CG       -12.8230   33.1070   10.5220 C.3   103  GLU103      0.1160
    122  CD       -13.6580   31.9480    9.9860 C.2   103  GLU103      0.3649
    123  OE1      -14.5100   31.4540   10.7390 O.co2 103  GLU103     -0.2457
    124  OE2      -13.4820   31.5490    8.8170 O.co2 103  GLU103     -0.2457
    125  N        -13.7640   38.8780    9.9910 N.3   108  ASP108     -0.1239
    126  CA       -15.1620   39.0880    9.5910 C.3   108  ASP108      0.1674
    127  C        -15.5690   40.5390    9.8800 C.2   108  ASP108      0.2266
    128  O        -16.1570   41.1920    9.0180 O.2   108  ASP108     -0.2867
    129  CB       -16.1390   38.1660   10.3360 C.3   108  ASP108      0.1410
    130  CG       -16.0570   36.6900    9.9270 C.2   108  ASP108      0.3668
    131  OD1      -15.3070   36.2830    8.9970 O.co2 108  ASP108     -0.2456
    132  OD2      -16.7920   35.9300   10.5930 O.co2 108  ASP108     -0.2456
    133  N        -14.2650   43.0240    7.3900 N.3   111  SER111     -0.1217
    134  CA       -14.8860   42.8220    6.1080 C.3   111  SER111      0.1889
    135  C        -16.2890   43.4230    6.1180 C.2   111  SER111      0.2288
    136  O        -16.7030   44.0340    5.1300 O.2   111  SER111     -0.2866
    137  CB       -14.9480   41.3280    5.7920 C.3   111  SER111      0.2089
    138  OG       -15.6260   41.0720    4.5810 O.3   111  SER111     -0.2183
    139  N        -17.7250   46.5310    3.6780 N.3   115  HIS115     -0.1241
    140  CA       -18.9320   46.4600    2.8430 C.3   115  HIS115      0.1621
    141  C        -20.0700   47.3680    3.2840 C.2   115  HIS115      0.2264
    142  O        -20.8950   47.7760    2.4360 O.2   115  HIS115     -0.2867
    143  CB       -19.4050   45.0010    2.7500 C.3   115  HIS115      0.0745
    144  CG       -18.4810   44.1340    1.9470 C.ar  115  HIS115      0.0817
    145  ND1      -18.2820   44.3270    0.5960 N.ar  115  HIS115     -0.2268
    146  CD2      -17.6660   43.1100    2.3060 C.ar  115  HIS115      0.1154
    147  CE1      -17.3950   43.4500    0.1530 C.ar  115  HIS115      0.1986
    148  NE2      -17.0160   42.6900    1.1670 N.ar  115  HIS115     -0.2212
    149  N        -17.3820   47.7460   -2.4320 N.3   121  LEU121     -0.1245
    150  CA       -17.2470   47.3590   -3.8160 C.3   121  LEU121      0.1561
    151  C        -18.0170   48.3010   -4.7440 C.2   121  LEU121      0.2260
    152  O        -18.0980   48.0580   -5.9340 O.2   121  LEU121     -0.2867
    153  CB       -17.6800   45.8900   -4.0240 C.3   121  LEU121      0.0270
    154  CG       -16.8770   44.7330   -3.4080 C.3   121  LEU121      0.0019
    155  CD1      -17.5920   43.3950   -3.6590 C.3   121  LEU121      0.0001
    156  CD2      -15.4580   44.6520   -3.9170 C.3   121  LEU121      0.0001
    157  N        -22.7960   47.3540   -6.4260 N.3   125  VAL125     -0.1231
    158  CA       -22.5970   46.0320   -5.7980 C.3   125  VAL125      0.1692
    159  C        -23.1180   45.9880   -4.3680 C.2   125  VAL125      0.2591
    160  O        -23.7820   45.0160   -3.9670 O.2   125  VAL125     -0.2718
    161  CB       -21.1210   45.5860   -5.8180 C.3   125  VAL125      0.0266
    162  CG1      -20.9390   44.3160   -4.9930 C.3   125  VAL125      0.0020
    163  CG2      -20.6510   45.3750   -7.2430 C.3   125  VAL125      0.0020
    164  N        -22.8030   47.0310   -3.6010 N.am  126  GLU126     -0.1979
    165  CA       -23.2920   47.1900   -2.2400 C.3   126  GLU126      0.1602
    166  C        -24.7110   47.7590   -2.2100 C.2   126  GLU126      0.2287
    167  O        -24.9250   48.9240   -1.8350 O.2   126  GLU126     -0.2864
    168  CB       -22.3440   48.0830   -1.4230 C.3   126  GLU126      0.0415
    169  CG       -20.8480   47.7520   -1.6000 C.3   126  GLU126      0.1163
    170  CD       -20.4260   46.4360   -0.9290 C.2   126  GLU126      0.3649
    171  OE1      -21.2750   45.7620   -0.3050 O.co2 126  GLU126     -0.2457
    172  OE2      -19.2330   46.0820   -1.0280 O.co2 126  GLU126     -0.2457
    173  N         -6.6840   42.6810    5.3870 N.3   176  PHE176     -0.1241
    174  CA        -7.9000   43.4380    5.1730 C.3   176  PHE176      0.1605
    175  C         -7.7950   44.7790    5.9230 C.2   176  PHE176      0.2264
    176  O         -8.2310   45.8190    5.4170 O.2   176  PHE176     -0.2867
    177  CB        -9.1480   42.6510    5.6420 C.3   176  PHE176      0.0534
    178  CG       -10.3540   42.8180    4.7430 C.ar  176  PHE176     -0.0203
    179  CD1      -10.6220   44.0270    4.1280 C.ar  176  PHE176     -0.0042
    180  CD2      -11.2230   41.7510    4.5220 C.ar  176  PHE176     -0.0042
    181  CE1      -11.7500   44.1830    3.3090 C.ar  176  PHE176     -0.0003
    182  CE2      -12.3210   41.8820    3.7090 C.ar  176  PHE176     -0.0003
    183  CZ       -12.5920   43.0960    3.0910 C.ar  176  PHE176     -0.0000
@<TRIPOS>BOND
     1    42    43    1
     2    50    51    1
     3    62    63    2
     4    62    61    1
     5    44    43    1
     6    44    45    2
     7    43    46    1
     8    51    52    1
     9    51    54    1
    10   163   161    1
    11    60    61    1
    12    60    52   am
    13    61    64    1
    14    52    53    2
    15   157   158    1
    16    64    65    1
    17    56    55   ar
    18    56    58   ar
    19    54    55    1
    20    46    47    1
    21   152   151    2
    22   161   158    1
    23   161   162    1
    24   158   159    1
    25    49    47    1
    26    47    48    1
    27    55    57   ar
    28    58    59   ar
    29    85    84    1
    30    65    66    1
    31   151   150    1
    32    66    67    1
    33   159   160    2
    34   159   164   am
    35    57    59   ar
    36   153   150    1
    37   153   154    1
    38   156   154    1
    39    84    86    1
    40    84    81    1
    41   150   149    1
    42   155   154    1
    43   164   165    1
    44    67    68    1
    45    70    71    1
    46    70    69    1
    47     1     2    1
    48    81    80    1
    49    81    82    1
    50    76    75    2
    51    72    71    2
    52    88    89    1
    53    88    91    1
    54    88    87    1
    55    71    73   am
    56    89    90    2
    57    80    75   am
    58    75    74    1
    59   165   166    1
    60   165   168    1
    61    91    92    1
    62   166   167    2
    63    28    29    1
    64    28    25    1
    65    29    30    1
    66    73    74    1
    67     2     3    1
    68    74    77    1
    69   169   168    1
    70   169   170    1
    71    82    87   am
    72    82    83    2
    73    87    93    1
    74   172   170   ar
    75   170   171   ar
    76    25    26    1
    77    25    24    1
    78    92    93    1
    79    30    24    1
    80    27    26    2
    81     4     3    2
    82     3     5   am
    83    77    78    1
    84    77    79    1
    85    24    14   am
    86   147   145   ar
    87   147   148   ar
    88   145   144   ar
    89     5    11    1
    90     5     6    1
    91    11    10    1
    92   148   146   ar
    93    14    15    2
    94    14    13    1
    95    94    95    1
    96   144   146   ar
    97   144   143    1
    98     6     7    1
    99     6     9    1
   100    12     7   am
   101    12    13    1
   102    10     9    1
   103    16    13    1
   104    16    17    1
   105     7     8    2
   106   142   141    2
   107    31    32    1
   108   143   140    1
   109    33    34    2
   110    33    32    1
   111   140   141    1
   112   140   139    1
   113    95    96    1
   114    95    98    1
   115   183   181   ar
   116   183   182   ar
   117   108   107    1
   118    97    96    2
   119    96   103   am
   120   181   179   ar
   121   102   100   ar
   122    32    35    1
   123    17    19   ar
   124    17    18   ar
   125    19    21   ar
   126   103   104    1
   127   182   180   ar
   128   104   107    1
   129   104   105    1
   130   179   178   ar
   131    99    98    1
   132    99   100    1
   133   100   101   ar
   134    35    36    1
   135   180   178   ar
   136   106   105    2
   137   138   137    1
   138    18    20   ar
   139    21    22   ar
   140   178   177    1
   141   105   109   am
   142   136   135    2
   143   174   173    1
   144   174   177    1
   145   174   175    1
   146    36    37    1
   147   176   175    2
   148    20    22   ar
   149    22    23    1
   150   137   134    1
   151    37    38    1
   152   109   110    1
   153   134   135    1
   154   134   133    1
   155   111   112    2
   156   111   110    1
   157    38    39    2
   158   110   113    1
   159    40    39    1
   160    39    41    1
   161   113   114    1
   162   113   115    1
   163   124   122   ar
   164   131   130   ar
   165   128   127    2
   166   126   127    1
   167   126   125    1
   168   126   129    1
   169   130   129    1
   170   130   132   ar
   171   122   121    1
   172   122   123   ar
   173   121   120    1
   174   120   117    1
   175   117   118    1
   176   117   116    1
   177   119   118    2
