@<TRIPOS>MOLECULE
tmp/3ibiA00.pdb
 129 126 0 0 0
SMALL
GASTEIGER

@<TRIPOS>ATOM
      1  N        -12.5430    6.2190   11.1060 N.3    90  GLN90      -0.1245
      2  CA       -12.2490    5.0660   10.2620 C.3    90  GLN90       0.1566
      3  C        -12.3720    3.7680   11.0390 C.2    90  GLN90       0.2260
      4  O        -12.4570    3.7810   12.2620 O.2    90  GLN90      -0.2867
      5  CB       -10.8230    5.1680    9.7110 C.3    90  GLN90       0.0367
      6  CG        -9.7170    5.1450   10.7860 C.3    90  GLN90       0.0905
      7  CD        -9.0070    3.7990   10.8920 C.2    90  GLN90       0.2608
      8  OE1       -9.6380    2.7650   11.1030 O.2    90  GLN90      -0.2717
      9  NE2       -7.6830    3.8130   10.7490 N.am   90  GLN90      -0.0878
     10  N        -10.9900   -0.5720   10.8150 N.3    92  HIS92      -0.1241
     11  CA       -10.1130   -1.5370   10.1780 C.3    92  HIS92       0.1621
     12  C        -10.1840   -2.8040   11.0050 C.2    92  HIS92       0.2264
     13  O        -10.8220   -2.8260   12.0600 O.2    92  HIS92      -0.2867
     14  CB        -8.6680   -1.0290   10.1590 C.3    92  HIS92       0.0745
     15  CG        -8.1120   -0.7480   11.5210 C.ar   92  HIS92       0.0817
     16  ND1       -8.4050    0.4020   12.2230 N.ar   92  HIS92      -0.2268
     17  CD2       -7.3170   -1.4890   12.3290 C.ar   92  HIS92       0.1154
     18  CE1       -7.8130    0.3570   13.4030 C.ar   92  HIS92       0.1986
     19  NE2       -7.1470   -0.7810   13.4930 N.ar   92  HIS92      -0.2212
     20  N         -7.9650   -6.6340   12.2610 N.3    94  HIS94      -0.1241
     21  CA        -6.7090   -7.3210   12.5360 C.3    94  HIS94       0.1621
     22  C         -7.1790   -8.7670   12.4470 C.2    94  HIS94       0.2264
     23  O         -8.2010   -9.1140   13.0360 O.2    94  HIS94      -0.2867
     24  CB        -6.2100   -7.0300   13.9530 C.3    94  HIS94       0.0745
     25  CG        -5.8760   -5.5920   14.1920 C.ar   94  HIS94       0.0817
     26  ND1       -4.6390   -5.0560   13.9080 N.ar   94  HIS94      -0.2268
     27  CD2       -6.6270   -4.5740   14.6730 C.ar   94  HIS94       0.1154
     28  CE1       -4.6420   -3.7690   14.2070 C.ar   94  HIS94       0.1986
     29  NE2       -5.8360   -3.4520   14.6730 N.ar   94  HIS94      -0.2212
     30  N        -11.8520   -2.6880   14.6420 N.3   117  HIS117     -0.1241
     31  CA       -11.5810   -1.4790   15.4040 C.3   117  HIS117      0.1621
     32  C        -12.2230   -0.2700   14.7370 C.2   117  HIS117      0.2264
     33  O        -11.8790    0.0800   13.6080 O.2   117  HIS117     -0.2867
     34  CB       -10.0660   -1.2540   15.5250 C.3   117  HIS117      0.0745
     35  CG        -9.3910   -2.1930   16.4740 C.ar  117  HIS117      0.0817
     36  ND1       -8.0270   -2.3930   16.4850 N.ar  117  HIS117     -0.2268
     37  CD2       -9.8950   -2.9920   17.4440 C.ar  117  HIS117      0.1154
     38  CE1       -7.7210   -3.2780   17.4170 C.ar  117  HIS117      0.1986
     39  NE2       -8.8370   -3.6580   18.0120 N.ar  117  HIS117     -0.2212
     40  N        -12.4420    3.5040   15.0340 N.3   119  VAL119     -0.1245
     41  CA       -11.7080    4.6030   15.6600 C.3   119  VAL119      0.1561
     42  C        -12.4670    5.9220   15.7000 C.2   119  VAL119      0.2260
     43  O        -13.0100    6.3620   14.6860 O.2   119  VAL119     -0.2867
     44  CB       -10.3640    4.8100   14.9310 C.3   119  VAL119      0.0252
     45  CG1       -9.4760    5.7740   15.7060 C.3   119  VAL119      0.0019
     46  CG2       -9.6760    3.4690   14.7450 C.3   119  VAL119      0.0019
     47  N         -8.6220   14.8810   14.6050 N.3   128  PHE128     -0.1241
     48  CA        -7.8380   13.7090   14.9520 C.3   128  PHE128      0.1605
     49  C         -6.4010   14.0410   15.3500 C.2   128  PHE128      0.2264
     50  O         -5.8950   13.5320   16.3520 O.2   128  PHE128     -0.2867
     51  CB        -7.8520   12.7200   13.7860 C.3   128  PHE128      0.0534
     52  CG        -7.1310   11.4380   14.0720 C.ar  128  PHE128     -0.0203
     53  CD1       -5.7630   11.3290   13.8580 C.ar  128  PHE128     -0.0042
     54  CD2       -7.8190   10.3440   14.5860 C.ar  128  PHE128     -0.0042
     55  CE1       -5.0890   10.1470   14.1470 C.ar  128  PHE128     -0.0003
     56  CE2       -7.1540    9.1600   14.8790 C.ar  128  PHE128     -0.0003
     57  CZ        -5.7850    9.0600   14.6600 C.ar  128  PHE128     -0.0000
     58  N         -4.7390   13.0050   19.2040 N.3   132  VAL132     -0.1245
     59  CA        -3.7030   12.0290   19.5320 C.3   132  VAL132      0.1561
     60  C         -2.5530   12.6210   20.3400 C.2   132  VAL132      0.2260
     61  O         -1.4970   12.0100   20.4720 O.2   132  VAL132     -0.2867
     62  CB        -3.1420   11.3360   18.2620 C.3   132  VAL132      0.0252
     63  CG1       -4.2560   10.5930   17.5550 C.3   132  VAL132      0.0019
     64  CG2       -2.5070   12.3520   17.3360 C.3   132  VAL132      0.0019
     65  N        -11.7190    3.7570   20.9330 N.3   140  VAL140     -0.1245
     66  CA       -11.7940    2.7260   19.9150 C.3   140  VAL140      0.1561
     67  C        -12.7560    1.6410   20.3630 C.2   140  VAL140      0.2260
     68  O        -12.6220    1.0780   21.4540 O.2   140  VAL140     -0.2867
     69  CB       -10.4160    2.0980   19.6230 C.3   140  VAL140      0.0252
     70  CG1      -10.5510    1.0530   18.5130 C.3   140  VAL140      0.0019
     71  CG2       -9.4260    3.1880   19.2020 C.3   140  VAL140      0.0019
     72  N         -2.8530    2.9260   21.0140 N.3   195  LEU195     -0.1231
     73  CA        -3.0860    2.4660   19.6590 C.3   195  LEU195      0.1693
     74  C         -2.2910    1.1640   19.6650 C.2   195  LEU195      0.2593
     75  O         -1.2760    1.0650   20.3610 O.2   195  LEU195     -0.2718
     76  CB        -2.4670    3.4280   18.6530 C.3   195  LEU195      0.0284
     77  CG        -2.9720    4.8680   18.6330 C.3   195  LEU195      0.0019
     78  CD1       -2.1170    5.7000   17.6780 C.3   195  LEU195      0.0001
     79  CD2       -4.4270    4.8770   18.2040 C.3   195  LEU195      0.0001
     80  N         -2.7300    0.1700   18.9030 N.am  196  THR196     -0.1939
     81  CA        -2.0170   -1.1050   18.8800 C.3   196  THR196      0.2028
     82  C         -0.9720   -1.1940   17.7700 C.2   196  THR196      0.2643
     83  O         -0.3020   -2.2170   17.6160 O.2   196  THR196     -0.2714
     84  CB        -2.9890   -2.2710   18.7350 C.3   196  THR196      0.1808
     85  OG1       -3.6120   -2.2110   17.4490 O.3   196  THR196     -0.2208
     86  CG2       -4.0470   -2.2050   19.8260 C.3   196  THR196      0.0379
     87  N         -0.8480   -0.1260   16.9910 N.am  197  THR197     -0.1937
     88  CA         0.1430   -0.0750   15.9250 C.3   197  THR197      0.2013
     89  C          0.9760    1.1720   16.1560 C.2   197  THR197      0.2484
     90  O          0.5120    2.1310   16.7800 O.2   197  THR197     -0.2729
     91  CB        -0.5070    0.0490   14.5260 C.3   197  THR197      0.1807
     92  OG1       -1.1440    1.3260   14.4040 O.3   197  THR197     -0.2208
     93  CG2       -1.5420   -1.0390   14.3160 C.3   197  THR197      0.0379
     94  N          2.2330    1.1690   15.6900 N.am  198  PRO198     -0.2715
     95  CA         3.0390    2.3750   15.8930 C.3   198  PRO198      0.1521
     96  C          2.2240    3.5320   15.3180 C.2   198  PRO198      0.2440
     97  O          1.4980    3.3460   14.3450 O.2   198  PRO198     -0.2731
     98  CB         4.2930    2.0740   15.0840 C.3   198  PRO198      0.0310
     99  CG         4.4750    0.5990   15.3290 C.3   198  PRO198      0.0237
    100  CD         3.0550    0.0590   15.1710 C.3   198  PRO198      0.0939
    101  N          2.3540    4.7440   15.8780 N.am  199  PRO199     -0.2727
    102  CA         3.1890    5.1830   16.9990 C.3   199  PRO199      0.1402
    103  C          2.8070    4.7220   18.4090 C.2   199  PRO199      0.2269
    104  O          3.3970    5.1850   19.3810 O.2   199  PRO199     -0.2865
    105  CB         3.1670    6.6990   16.8540 C.3   199  PRO199      0.0296
    106  CG         1.7720    6.9510   16.4040 C.3   199  PRO199      0.0237
    107  CD         1.5530    5.8690   15.3560 C.3   199  PRO199      0.0939
    108  N          0.5240    5.4680   20.4730 N.3   201  LEU201     -0.1245
    109  CA         0.2150    6.5570   21.3930 C.3   201  LEU201      0.1561
    110  C         -0.8090    6.1510   22.4530 C.2   201  LEU201      0.2260
    111  O         -1.8000    5.4820   22.1580 O.2   201  LEU201     -0.2867
    112  CB        -0.2830    7.7660   20.5950 C.3   201  LEU201      0.0270
    113  CG         0.6970    8.1930   19.4920 C.3   201  LEU201      0.0019
    114  CD1        0.0460    9.2040   18.5570 C.3   201  LEU201      0.0001
    115  CD2        1.9440    8.7720   20.1380 C.3   201  LEU201      0.0001
    116  N        -10.3720    2.2930   25.5400 N.3   206  TRP206     -0.1241
    117  CA       -10.8410    1.1140   24.8400 C.3   206  TRP206      0.1605
    118  C        -12.1910    0.6360   25.3350 C.2   206  TRP206      0.2264
    119  O        -12.4520    0.5880   26.5390 O.2   206  TRP206     -0.2867
    120  CB        -9.8350   -0.0350   24.9600 C.3   206  TRP206      0.0550
    121  CG        -8.7270    0.0560   23.9770 C.ar  206  TRP206      0.0003
    122  CD1       -7.5040    0.6350   24.1620 C.ar  206  TRP206      0.0946
    123  CD2       -8.7600   -0.3940   22.6190 C.ar  206  TRP206      0.0152
    124  NE1       -6.7730    0.5760   22.9980 N.ar  206  TRP206     -0.2442
    125  CE2       -7.5210   -0.0520   22.0350 C.ar  206  TRP206      0.0810
    126  CE3       -9.7210   -1.0510   21.8360 C.ar  206  TRP206      0.0012
    127  CZ2       -7.2140   -0.3470   20.7050 C.ar  206  TRP206      0.0191
    128  CZ3       -9.4160   -1.3450   20.5120 C.ar  206  TRP206      0.0001
    129  CH2       -8.1720   -0.9910   19.9610 C.ar  206  TRP206      0.0015
@<TRIPOS>BOND
     1     5     2    1
     2     5     6    1
     3    14    11    1
     4    14    15    1
     5    11    10    1
     6    11    12    1
     7     2     3    1
     8     2     1    1
     9     9     7   am
    10     6     7    1
    11     7     8    2
    12    12    13    2
    13     3     4    2
    14    15    16   ar
    15    15    17   ar
    16    16    18   ar
    17    20    21    1
    18    17    19   ar
    19    22    21    1
    20    22    23    2
    21    21    24    1
    22    18    19   ar
    23    33    32    2
    24    51    52    1
    25    51    48    1
    26    53    52   ar
    27    53    55   ar
    28    26    25   ar
    29    26    28   ar
    30    24    25    1
    31    52    54   ar
    32    55    57   ar
    33    25    27   ar
    34    28    29   ar
    35    93    91    1
    36    97    96    2
    37    92    91    1
    38    91    88    1
    39    54    56   ar
    40    47    48    1
    41    30    31    1
    42    57    56   ar
    43    27    29   ar
    44    43    42    2
    45    32    31    1
    46    46    44    1
    47    44    41    1
    48    44    45    1
    49    48    49    1
    50    40    41    1
    51    98    99    1
    52    98    95    1
    53   100    99    1
    54   100    94    1
    55    96   101   am
    56    96    95    1
    57    49    50    2
    58   107   101    1
    59   107   106    1
    60    31    34    1
    61    34    35    1
    62    41    42    1
    63    94    95    1
    64    94    89   am
    65   101   102    1
    66    88    89    1
    67    88    87    1
    68    89    90    2
    69   106   105    1
    70    35    36   ar
    71    35    37   ar
    72    36    38   ar
    73   105   102    1
    74    87    82   am
    75   102   103    1
    76    64    62    1
    77    38    39   ar
    78    37    39   ar
    79    85    84    1
    80    63    62    1
    81    83    82    2
    82    78    77    1
    83    82    81    1
    84    79    77    1
    85    62    59    1
    86   103   104    2
    87    70    69    1
    88   114   113    1
    89    77    76    1
    90    76    73    1
    91    84    81    1
    92    84    86    1
    93    81    80    1
    94    80    74   am
    95    71    69    1
    96    58    59    1
    97   113   115    1
    98   113   112    1
    99    59    60    1
   100    69    66    1
   101    73    74    1
   102    73    72    1
   103    74    75    2
   104    66    67    1
   105    66    65    1
   106   129   128   ar
   107   129   127   ar
   108    60    61    2
   109    67    68    2
   110   108   109    1
   111   128   126   ar
   112   112   109    1
   113   127   125   ar
   114   109   110    1
   115   126   123   ar
   116   125   123   ar
   117   125   124   ar
   118   111   110    2
   119   123   121   ar
   120   124   122   ar
   121   121   122   ar
   122   121   120    1
   123   117   120    1
   124   117   118    1
   125   117   116    1
   126   118   119    2
