@<TRIPOS>MOLECULE
tmp/3iblA00.pdb
 133 130 0 0 0
SMALL
GASTEIGER

@<TRIPOS>ATOM
      1  N        -12.6220    6.2890   11.1190 N.3    90  GLN90      -0.1245
      2  CA       -12.3200    5.1400   10.2740 C.3    90  GLN90       0.1566
      3  C        -12.4400    3.8560   11.0600 C.2    90  GLN90       0.2260
      4  O        -12.4790    3.8760   12.2900 O.2    90  GLN90      -0.2867
      5  CB       -10.8830    5.2280    9.7440 C.3    90  GLN90       0.0367
      6  CG        -9.8060    5.2170   10.8440 C.3    90  GLN90       0.0905
      7  CD        -9.0530    3.8920   10.9640 C.2    90  GLN90       0.2608
      8  OE1       -9.6440    2.8450   11.2170 O.2    90  GLN90      -0.2717
      9  NE2       -7.7380    3.9420   10.7840 N.am   90  GLN90      -0.0878
     10  N        -11.1150   -0.4950   10.8470 N.3    92  HIS92      -0.1241
     11  CA       -10.2430   -1.4620   10.2040 C.3    92  HIS92       0.1621
     12  C        -10.2990   -2.7220   11.0400 C.2    92  HIS92       0.2264
     13  O        -10.9160   -2.7380   12.1070 O.2    92  HIS92      -0.2867
     14  CB        -8.8030   -0.9600   10.1710 C.3    92  HIS92       0.0745
     15  CG        -8.2430   -0.6830   11.5280 C.ar   92  HIS92       0.0817
     16  ND1       -8.4490    0.5090   12.1870 N.ar   92  HIS92      -0.2268
     17  CD2       -7.5580   -1.4760   12.3850 C.ar   92  HIS92       0.1154
     18  CE1       -7.9190    0.4370   13.3960 C.ar   92  HIS92       0.1986
     19  NE2       -7.3740   -0.7570   13.5410 N.ar   92  HIS92      -0.2212
     20  N         -8.0810   -6.5390   12.3310 N.3    94  HIS94      -0.1241
     21  CA        -6.8320   -7.2340   12.6070 C.3    94  HIS94       0.1621
     22  C         -7.2800   -8.6850   12.4890 C.2    94  HIS94       0.2264
     23  O         -8.3190   -9.0560   13.0360 O.2    94  HIS94      -0.2867
     24  CB        -6.3400   -6.9570   14.0260 C.3    94  HIS94       0.0745
     25  CG        -5.9790   -5.5260   14.2670 C.ar   94  HIS94       0.0817
     26  ND1       -4.7120   -5.0310   14.0470 N.ar   94  HIS94      -0.2268
     27  CD2       -6.7300   -4.4750   14.6690 C.ar   94  HIS94       0.1154
     28  CE1       -4.6990   -3.7350   14.3050 C.ar   94  HIS94       0.1986
     29  NE2       -5.9110   -3.3720   14.6830 N.ar   94  HIS94      -0.2212
     30  N        -11.9840   -2.6150   14.7130 N.3   117  HIS117     -0.1241
     31  CA       -11.7170   -1.3960   15.4650 C.3   117  HIS117      0.1621
     32  C        -12.3580   -0.1910   14.8050 C.2   117  HIS117      0.2264
     33  O        -12.0160    0.1580   13.6780 O.2   117  HIS117     -0.2867
     34  CB       -10.2120   -1.1580   15.5750 C.3   117  HIS117      0.0745
     35  CG        -9.5310   -2.1080   16.5020 C.ar  117  HIS117      0.0817
     36  ND1       -8.1680   -2.3090   16.5030 N.ar  117  HIS117     -0.2268
     37  CD2      -10.0300   -2.8990   17.4800 C.ar  117  HIS117      0.1154
     38  CE1       -7.8570   -3.1830   17.4420 C.ar  117  HIS117      0.1986
     39  NE2       -8.9680   -3.5570   18.0490 N.ar  117  HIS117     -0.2212
     40  N        -12.5230    3.5780   15.1070 N.3   119  VAL119     -0.1245
     41  CA       -11.7600    4.6610   15.7250 C.3   119  VAL119      0.1561
     42  C        -12.4990    5.9900   15.7670 C.2   119  VAL119      0.2260
     43  O        -13.0030    6.4520   14.7450 O.2   119  VAL119     -0.2867
     44  CB       -10.4280    4.8480   14.9680 C.3   119  VAL119      0.0252
     45  CG1       -9.5380    5.8490   15.6930 C.3   119  VAL119      0.0019
     46  CG2       -9.7320    3.5040   14.8140 C.3   119  VAL119      0.0019
     47  N         -8.2890   15.1150   14.7600 N.3   128  PHE128     -0.1227
     48  CA        -7.6410   13.8830   15.1730 C.3   128  PHE128      0.1736
     49  C         -6.1990   14.1180   15.6070 C.2   128  PHE128      0.2596
     50  O         -5.7440   13.5450   16.5940 O.2   128  PHE128     -0.2718
     51  CB        -7.6950   12.8600   14.0330 C.3   128  PHE128      0.0547
     52  CG        -7.0790   11.5380   14.3760 C.ar  128  PHE128     -0.0202
     53  CD1       -5.7050   11.3500   14.2820 C.ar  128  PHE128     -0.0042
     54  CD2       -7.8710   10.4850   14.8200 C.ar  128  PHE128     -0.0042
     55  CE1       -5.1270   10.1330   14.6250 C.ar  128  PHE128     -0.0003
     56  CE2       -7.3020    9.2640   15.1650 C.ar  128  PHE128     -0.0003
     57  CZ        -5.9270    9.0890   15.0670 C.ar  128  PHE128     -0.0000
     58  N         -5.4820   14.9610   14.8670 N.am  129  GLY129     -0.1957
     59  CA        -4.0940   15.2380   15.1980 C.3   129  GLY129      0.1869
     60  C         -3.8890   15.7750   16.6040 C.2   129  GLY129      0.2309
     61  O         -2.9600   15.3770   17.3040 O.2   129  GLY129     -0.2863
     62  N         -4.7590   13.0700   19.4740 N.3   132  VAL132     -0.1245
     63  CA        -3.7380   12.0910   19.8310 C.3   132  VAL132      0.1561
     64  C         -2.5770   12.6730   20.6310 C.2   132  VAL132      0.2260
     65  O         -1.5050   12.0780   20.7180 O.2   132  VAL132     -0.2867
     66  CB        -3.1930   11.3500   18.5900 C.3   132  VAL132      0.0252
     67  CG1       -4.3040   10.5270   17.9650 C.3   132  VAL132      0.0019
     68  CG2       -2.6260   12.3340   17.5830 C.3   132  VAL132      0.0019
     69  N        -11.8260    3.8340   20.9750 N.3   140  VAL140     -0.1245
     70  CA       -11.9020    2.8020   19.9550 C.3   140  VAL140      0.1561
     71  C        -12.8740    1.7420   20.4330 C.2   140  VAL140      0.2260
     72  O        -12.7720    1.2430   21.5570 O.2   140  VAL140     -0.2867
     73  CB       -10.5310    2.1500   19.6730 C.3   140  VAL140      0.0252
     74  CG1      -10.6730    1.0930   18.5730 C.3   140  VAL140      0.0019
     75  CG2       -9.5390    3.2090   19.2300 C.3   140  VAL140      0.0019
     76  N         -2.9690    3.0470   21.1050 N.3   195  LEU195     -0.1231
     77  CA        -3.1470    2.5840   19.7400 C.3   195  LEU195      0.1693
     78  C         -2.3570    1.2760   19.7610 C.2   195  LEU195      0.2593
     79  O         -1.3240    1.1800   20.4400 O.2   195  LEU195     -0.2718
     80  CB        -2.4960    3.5510   18.7570 C.3   195  LEU195      0.0284
     81  CG        -3.0190    4.9840   18.7380 C.3   195  LEU195      0.0019
     82  CD1       -2.1700    5.8190   17.7820 C.3   195  LEU195      0.0001
     83  CD2       -4.4760    4.9900   18.3090 C.3   195  LEU195      0.0001
     84  N         -2.8220    0.2710   19.0310 N.am  196  THR196     -0.1939
     85  CA        -2.1270   -1.0130   19.0200 C.3   196  THR196      0.2028
     86  C         -1.0830   -1.1070   17.9130 C.2   196  THR196      0.2643
     87  O         -0.4080   -2.1240   17.7750 O.2   196  THR196     -0.2714
     88  CB        -3.1080   -2.1830   18.8720 C.3   196  THR196      0.1808
     89  OG1       -3.7120   -2.1370   17.5750 O.3   196  THR196     -0.2208
     90  CG2       -4.1840   -2.1130   19.9450 C.3   196  THR196      0.0379
     91  N         -0.9580   -0.0450   17.1230 N.am  197  THR197     -0.1937
     92  CA         0.0410    0.0000   16.0610 C.3   197  THR197      0.2013
     93  C          0.8640    1.2540   16.2860 C.2   197  THR197      0.2484
     94  O          0.3880    2.2080   16.9010 O.2   197  THR197     -0.2729
     95  CB        -0.5790    0.1540   14.6560 C.3   197  THR197      0.1807
     96  OG1       -1.2210    1.4320   14.5640 O.3   197  THR197     -0.2208
     97  CG2       -1.5810   -0.9460   14.3690 C.3   197  THR197      0.0379
     98  N          2.1200    1.2640   15.8140 N.am  198  PRO198     -0.2715
     99  CA         2.9300    2.4670   15.9960 C.3   198  PRO198      0.1521
    100  C          2.0850    3.6000   15.4120 C.2   198  PRO198      0.2440
    101  O          1.3690    3.3990   14.4270 O.2   198  PRO198     -0.2731
    102  CB         4.1660    2.1650   15.1550 C.3   198  PRO198      0.0310
    103  CG         4.3480    0.6890   15.3720 C.3   198  PRO198      0.0237
    104  CD         2.9210    0.1580   15.2580 C.3   198  PRO198      0.0939
    105  N          2.1800    4.8110   15.9730 N.am  199  PRO199     -0.2727
    106  CA         3.0000    5.2720   17.0980 C.3   199  PRO199      0.1402
    107  C          2.6720    4.7910   18.5180 C.2   199  PRO199      0.2269
    108  O          3.2980    5.2460   19.4740 O.2   199  PRO199     -0.2865
    109  CB         2.9150    6.7890   16.9660 C.3   199  PRO199      0.0296
    110  CG         1.5220    6.9870   16.4720 C.3   199  PRO199      0.0237
    111  CD         1.4060    5.9300   15.4020 C.3   199  PRO199      0.0939
    112  N          0.4620    5.5140   20.5940 N.3   201  LEU201     -0.1245
    113  CA         0.1140    6.6070   21.4950 C.3   201  LEU201      0.1561
    114  C         -0.9230    6.2110   22.5450 C.2   201  LEU201      0.2260
    115  O         -1.9250    5.5640   22.2440 O.2   201  LEU201     -0.2867
    116  CB        -0.3700    7.8050   20.6750 C.3   201  LEU201      0.0270
    117  CG         0.6570    8.2870   19.6400 C.3   201  LEU201      0.0019
    118  CD1        0.0580    9.4050   18.8040 C.3   201  LEU201      0.0001
    119  CD2        1.9240    8.7570   20.3450 C.3   201  LEU201      0.0001
    120  N        -10.5460    2.3730   25.6310 N.3   206  TRP206     -0.1241
    121  CA       -11.0050    1.2000   24.9120 C.3   206  TRP206      0.1605
    122  C        -12.3620    0.7270   25.3920 C.2   206  TRP206      0.2264
    123  O        -12.6310    0.6790   26.5890 O.2   206  TRP206     -0.2867
    124  CB        -9.9960    0.0500   25.0450 C.3   206  TRP206      0.0550
    125  CG        -8.8670    0.1470   24.0810 C.ar  206  TRP206      0.0003
    126  CD1       -7.6560    0.7500   24.2810 C.ar  206  TRP206      0.0946
    127  CD2       -8.8750   -0.2970   22.7220 C.ar  206  TRP206      0.0152
    128  NE1       -6.9130    0.7140   23.1250 N.ar  206  TRP206     -0.2442
    129  CE2       -7.6390    0.0770   22.1520 C.ar  206  TRP206      0.0810
    130  CE3       -9.8120   -0.9740   21.9270 C.ar  206  TRP206      0.0012
    131  CZ2       -7.3150   -0.2010   20.8230 C.ar  206  TRP206      0.0191
    132  CZ3       -9.4890   -1.2510   20.6080 C.ar  206  TRP206      0.0001
    133  CH2       -8.2510   -0.8650   20.0690 C.ar  206  TRP206      0.0015
@<TRIPOS>BOND
     1     5     2    1
     2     5     6    1
     3    14    11    1
     4    14    15    1
     5    11    10    1
     6    11    12    1
     7     2     3    1
     8     2     1    1
     9     9     7   am
    10     6     7    1
    11     7     8    2
    12    12    13    2
    13     3     4    2
    14    15    16   ar
    15    15    17   ar
    16    16    18   ar
    17    20    21    1
    18    17    19   ar
    19    22    21    1
    20    22    23    2
    21    21    24    1
    22    18    19   ar
    23    33    32    2
    24    24    25    1
    25    51    52    1
    26    51    48    1
    27    26    25   ar
    28    26    28   ar
    29    25    27   ar
    30    53    52   ar
    31    53    55   ar
    32    28    29   ar
    33    97    95    1
    34    52    54   ar
    35   101   100    2
    36    96    95    1
    37    55    57   ar
    38    95    92    1
    39    27    29   ar
    40    30    31    1
    41    43    42    2
    42    47    48    1
    43    32    31    1
    44    46    44    1
    45    54    56   ar
    46    58    59    1
    47    58    49   am
    48    44    45    1
    49    44    41    1
    50    57    56   ar
    51    40    41    1
    52   102   103    1
    53   102    99    1
    54    48    49    1
    55    59    60    1
    56   104   103    1
    57   104    98    1
    58   111   105    1
    59   111   110    1
    60   100   105   am
    61   100    99    1
    62    31    34    1
    63    34    35    1
    64    49    50    2
    65    41    42    1
    66    98    99    1
    67    98    93   am
    68   105   106    1
    69    92    93    1
    70    92    91    1
    71    93    94    2
    72   110   109    1
    73    35    36   ar
    74    35    37   ar
    75    36    38   ar
    76    60    61    2
    77   109   106    1
    78   106   107    1
    79    91    86   am
    80    38    39   ar
    81    37    39   ar
    82    89    88    1
    83    68    66    1
    84    87    86    2
    85    82    81    1
    86    86    85    1
    87    67    66    1
    88    83    81    1
    89   107   108    2
    90    74    73    1
    91    66    63    1
    92    81    80    1
    93    80    77    1
    94   118   117    1
    95    88    85    1
    96    88    90    1
    97    85    84    1
    98    84    78   am
    99    75    73    1
   100    62    63    1
   101   117   119    1
   102   117   116    1
   103    73    70    1
   104    77    78    1
   105    77    76    1
   106    78    79    2
   107    63    64    1
   108    70    71    1
   109    70    69    1
   110   133   132   ar
   111   133   131   ar
   112    71    72    2
   113   112   113    1
   114   132   130   ar
   115    64    65    2
   116   116   113    1
   117   131   129   ar
   118   113   114    1
   119   130   127   ar
   120   129   127   ar
   121   129   128   ar
   122   115   114    2
   123   127   125   ar
   124   128   126   ar
   125   125   126   ar
   126   125   124    1
   127   121   124    1
   128   121   122    1
   129   121   120    1
   130   122   123    2
