@<TRIPOS>MOLECULE
tmp/3ibnA00.pdb
 133 130 0 0 0
SMALL
GASTEIGER

@<TRIPOS>ATOM
      1  N        -12.5770    6.3660   11.1550 N.3    90  GLN90      -0.1245
      2  CA       -12.2750    5.1860   10.3560 C.3    90  GLN90       0.1566
      3  C        -12.3670    3.8820   11.1380 C.2    90  GLN90       0.2260
      4  O        -12.4470    3.8900   12.3670 O.2    90  GLN90      -0.2867
      5  CB       -10.8650    5.3100    9.7690 C.3    90  GLN90       0.0367
      6  CG        -9.7420    5.2930   10.8180 C.3    90  GLN90       0.0905
      7  CD        -9.0980    3.9270   10.9700 C.2    90  GLN90       0.2608
      8  OE1       -9.7840    2.9160   11.1280 O.2    90  GLN90      -0.2717
      9  NE2       -7.7690    3.8910   10.9240 N.am   90  GLN90      -0.0878
     10  N        -10.9690   -0.5180   10.8650 N.3    92  HIS92      -0.1241
     11  CA       -10.0950   -1.4780   10.2060 C.3    92  HIS92       0.1621
     12  C        -10.1790   -2.7820   10.9610 C.2    92  HIS92       0.2264
     13  O        -10.8840   -2.8710   11.9640 O.2    92  HIS92      -0.2867
     14  CB        -8.6430   -0.9950   10.2270 C.3    92  HIS92       0.0745
     15  CG        -8.1390   -0.6800   11.6010 C.ar   92  HIS92       0.0817
     16  ND1       -8.4730    0.4800   12.2650 N.ar   92  HIS92      -0.2268
     17  CD2       -7.3910   -1.4050   12.4660 C.ar   92  HIS92       0.1154
     18  CE1       -7.9580    0.4540   13.4790 C.ar   92  HIS92       0.1986
     19  NE2       -7.2970   -0.6790   13.6280 N.ar   92  HIS92      -0.2212
     20  N         -7.9810   -6.5970   12.3120 N.3    94  HIS94      -0.1241
     21  CA        -6.7600   -7.3150   12.6610 C.3    94  HIS94       0.1621
     22  C         -7.2030   -8.7760   12.5690 C.2    94  HIS94       0.2264
     23  O         -8.2070   -9.1570   13.1690 O.2    94  HIS94      -0.2867
     24  CB        -6.3230   -6.9790   14.0890 C.3    94  HIS94       0.0745
     25  CG        -5.8480   -5.5720   14.2570 C.ar   94  HIS94       0.0817
     26  ND1       -4.5720   -5.1700   13.9230 N.ar   94  HIS94      -0.2268
     27  CD2       -6.4800   -4.4650   14.7130 C.ar   94  HIS94       0.1154
     28  CE1       -4.4390   -3.8810   14.1680 C.ar   94  HIS94       0.1986
     29  NE2       -5.5850   -3.4280   14.6490 N.ar   94  HIS94      -0.2212
     30  N        -11.9280   -2.6700   14.7170 N.3   117  HIS117     -0.1241
     31  CA       -11.6640   -1.4500   15.4720 C.3   117  HIS117      0.1621
     32  C        -12.3040   -0.2260   14.8270 C.2   117  HIS117      0.2264
     33  O        -11.9620    0.1330   13.7010 O.2   117  HIS117     -0.2867
     34  CB       -10.1560   -1.2090   15.5850 C.3   117  HIS117      0.0745
     35  CG        -9.4520   -2.1490   16.5120 C.ar  117  HIS117      0.0817
     36  ND1       -8.0790   -2.2750   16.5390 N.ar  117  HIS117     -0.2268
     37  CD2       -9.9230   -2.9800   17.4720 C.ar  117  HIS117      0.1154
     38  CE1       -7.7360   -3.1410   17.4760 C.ar  117  HIS117      0.1986
     39  NE2       -8.8360   -3.5830   18.0580 N.ar  117  HIS117     -0.2212
     40  N        -12.4510    3.5540   15.1320 N.3   119  VAL119     -0.1245
     41  CA       -11.7040    4.6600   15.7250 C.3   119  VAL119      0.1561
     42  C        -12.4390    6.0000   15.7480 C.2   119  VAL119      0.2260
     43  O        -12.9500    6.4550   14.7240 O.2   119  VAL119     -0.2867
     44  CB       -10.3580    4.8440   14.9780 C.3   119  VAL119      0.0252
     45  CG1       -9.4450    5.7840   15.7550 C.3   119  VAL119      0.0019
     46  CG2       -9.6960    3.4920   14.7690 C.3   119  VAL119      0.0019
     47  N         -8.4260   15.0900   14.5360 N.3   128  PHE128     -0.1227
     48  CA        -7.7460   13.8660   14.9400 C.3   128  PHE128      0.1736
     49  C         -6.3140   14.1540   15.3980 C.2   128  PHE128      0.2596
     50  O         -5.8490   13.6040   16.3960 O.2   128  PHE128     -0.2718
     51  CB        -7.7400   12.8500   13.7860 C.3   128  PHE128      0.0547
     52  CG        -7.1170   11.5270   14.1510 C.ar  128  PHE128     -0.0202
     53  CD1       -5.7760   11.2820   13.8990 C.ar  128  PHE128     -0.0042
     54  CD2       -7.8630   10.5490   14.8030 C.ar  128  PHE128     -0.0042
     55  CE1       -5.1820   10.0860   14.2920 C.ar  128  PHE128     -0.0003
     56  CE2       -7.2770    9.3470   15.2030 C.ar  128  PHE128     -0.0003
     57  CZ        -5.9330    9.1170   14.9460 C.ar  128  PHE128     -0.0000
     58  N         -5.6260   15.0290   14.6710 N.am  129  GLY129     -0.1957
     59  CA        -4.2530   15.3680   15.0100 C.3   129  GLY129      0.1869
     60  C         -4.0140   15.8720   16.4240 C.2   129  GLY129      0.2309
     61  O         -3.1220   15.3930   17.1140 O.2   129  GLY129     -0.2863
     62  N         -4.7250   13.0380   19.2780 N.3   132  VAL132     -0.1245
     63  CA        -3.7470   12.0060   19.6130 C.3   132  VAL132      0.1561
     64  C         -2.5940   12.5670   20.4230 C.2   132  VAL132      0.2260
     65  O         -1.5360   11.9580   20.5210 O.2   132  VAL132     -0.2867
     66  CB        -3.1840   11.2880   18.3620 C.3   132  VAL132      0.0252
     67  CG1       -4.2550   10.4100   17.7560 C.3   132  VAL132      0.0019
     68  CG2       -2.6700   12.2970   17.3560 C.3   132  VAL132      0.0019
     69  N        -11.7150    3.8730   20.9880 N.3   140  VAL140     -0.1245
     70  CA       -11.8150    2.8490   19.9680 C.3   140  VAL140      0.1561
     71  C        -12.7840    1.7790   20.4370 C.2   140  VAL140      0.2260
     72  O        -12.6910    1.2950   21.5690 O.2   140  VAL140     -0.2867
     73  CB       -10.4520    2.1970   19.6640 C.3   140  VAL140      0.0252
     74  CG1      -10.6210    1.1700   18.5490 C.3   140  VAL140      0.0019
     75  CG2       -9.4420    3.2620   19.2480 C.3   140  VAL140      0.0019
     76  N         -2.8910    2.9340   21.0600 N.3   195  LEU195     -0.1231
     77  CA        -3.0640    2.4710   19.7000 C.3   195  LEU195      0.1693
     78  C         -2.2990    1.1480   19.6960 C.2   195  LEU195      0.2593
     79  O         -1.3050    1.0070   20.4110 O.2   195  LEU195     -0.2718
     80  CB        -2.4210    3.4560   18.7290 C.3   195  LEU195      0.0284
     81  CG        -3.0370    4.8550   18.7550 C.3   195  LEU195      0.0019
     82  CD1       -2.2030    5.8190   17.9120 C.3   195  LEU195      0.0001
     83  CD2       -4.4610    4.7640   18.2370 C.3   195  LEU195      0.0001
     84  N         -2.7530    0.1720   18.9210 N.am  196  THR196     -0.1939
     85  CA        -2.0520   -1.1040   18.8990 C.3   196  THR196      0.2028
     86  C         -0.9840   -1.1700   17.8140 C.2   196  THR196      0.2643
     87  O         -0.2910   -2.1800   17.6760 O.2   196  THR196     -0.2714
     88  CB        -3.0130   -2.2660   18.7070 C.3   196  THR196      0.1808
     89  OG1       -3.7030   -2.0970   17.4680 O.3   196  THR196     -0.2208
     90  CG2       -4.0150   -2.3210   19.8630 C.3   196  THR196      0.0379
     91  N         -0.8600   -0.0970   17.0410 N.am  197  THR197     -0.1937
     92  CA         0.1580   -0.0320   16.0030 C.3   197  THR197      0.2013
     93  C          1.0050    1.2070   16.2580 C.2   197  THR197      0.2484
     94  O          0.5820    2.1310   16.9520 O.2   197  THR197     -0.2729
     95  CB        -0.4540    0.1030   14.5920 C.3   197  THR197      0.1807
     96  OG1       -1.0590    1.3930   14.4620 O.3   197  THR197     -0.2208
     97  CG2       -1.5080   -0.9700   14.3510 C.3   197  THR197      0.0379
     98  N          2.2300    1.2310   15.7270 N.am  198  PRO198     -0.2715
     99  CA         3.0330    2.4290   15.9600 C.3   198  PRO198      0.1521
    100  C          2.2150    3.5920   15.4080 C.2   198  PRO198      0.2440
    101  O          1.4670    3.4150   14.4480 O.2   198  PRO198     -0.2731
    102  CB         4.2780    2.1620   15.1260 C.3   198  PRO198      0.0310
    103  CG         4.4310    0.6580   15.2560 C.3   198  PRO198      0.0237
    104  CD         3.0110    0.1770   15.0590 C.3   198  PRO198      0.0939
    105  N          2.3440    4.7930   15.9880 N.am  199  PRO199     -0.2727
    106  CA         3.1930    5.2380   17.0980 C.3   199  PRO199      0.1402
    107  C          2.7930    4.7630   18.5040 C.2   199  PRO199      0.2269
    108  O          3.3570    5.2280   19.4930 O.2   199  PRO199     -0.2865
    109  CB         3.1490    6.7610   16.9680 C.3   199  PRO199      0.0296
    110  CG         1.7550    7.0000   16.4720 C.3   199  PRO199      0.0237
    111  CD         1.6020    5.9310   15.4140 C.3   199  PRO199      0.0939
    112  N          0.5000    5.4700   20.4840 N.3   201  LEU201     -0.1245
    113  CA         0.1540    6.5740   21.3720 C.3   201  LEU201      0.1561
    114  C         -0.8560    6.1710   22.4550 C.2   201  LEU201      0.2260
    115  O         -1.8520    5.4920   22.1850 O.2   201  LEU201     -0.2867
    116  CB        -0.3600    7.7570   20.5300 C.3   201  LEU201      0.0270
    117  CG         0.6560    8.1710   19.4480 C.3   201  LEU201      0.0019
    118  CD1        0.0840    9.2710   18.5490 C.3   201  LEU201      0.0001
    119  CD2        1.9480    8.6330   20.1200 C.3   201  LEU201      0.0001
    120  N        -10.3780    2.3090   25.6370 N.3   206  TRP206     -0.1241
    121  CA       -10.8720    1.1480   24.9100 C.3   206  TRP206      0.1605
    122  C        -12.2210    0.6850   25.4080 C.2   206  TRP206      0.2264
    123  O        -12.4910    0.6650   26.6100 O.2   206  TRP206     -0.2867
    124  CB        -9.8880   -0.0230   24.9970 C.3   206  TRP206      0.0550
    125  CG        -8.7740    0.0600   24.0130 C.ar  206  TRP206      0.0003
    126  CD1       -7.5460    0.6300   24.2010 C.ar  206  TRP206      0.0946
    127  CD2       -8.8010   -0.4010   22.6570 C.ar  206  TRP206      0.0152
    128  NE1       -6.8060    0.5530   23.0460 N.ar  206  TRP206     -0.2442
    129  CE2       -7.5500   -0.0770   22.0820 C.ar  206  TRP206      0.0810
    130  CE3       -9.7590   -1.0600   21.8730 C.ar  206  TRP206      0.0012
    131  CZ2       -7.2340   -0.3860   20.7580 C.ar  206  TRP206      0.0191
    132  CZ3       -9.4420   -1.3680   20.5530 C.ar  206  TRP206      0.0001
    133  CH2       -8.1880   -1.0320   20.0110 C.ar  206  TRP206      0.0015
@<TRIPOS>BOND
     1     5     2    1
     2     5     6    1
     3    11    14    1
     4    11    10    1
     5    11    12    1
     6    14    15    1
     7     2     3    1
     8     2     1    1
     9     6     7    1
    10     9     7   am
    11    12    13    2
    12     7     8    2
    13     3     4    2
    14    15    16   ar
    15    15    17   ar
    16    16    18   ar
    17    20    21    1
    18    17    19   ar
    19    22    21    1
    20    22    23    2
    21    21    24    1
    22    18    19   ar
    23    33    32    2
    24    51    52    1
    25    51    48    1
    26    53    52   ar
    27    53    55   ar
    28    26    28   ar
    29    26    25   ar
    30    24    25    1
    31    52    54   ar
    32    28    29   ar
    33    25    27   ar
    34    55    57   ar
    35    97    95    1
    36   101   100    2
    37    96    95    1
    38    47    48    1
    39    95    92    1
    40    29    27   ar
    41    58    59    1
    42    58    49   am
    43    30    31    1
    44    43    42    2
    45    46    44    1
    46    54    56   ar
    47    32    31    1
    48    48    49    1
    49    57    56   ar
    50    44    41    1
    51    44    45    1
    52    59    60    1
    53   104   103    1
    54   104    98    1
    55   102   103    1
    56   102    99    1
    57    40    41    1
    58    49    50    2
    59   100    99    1
    60   100   105   am
    61   111   105    1
    62   111   110    1
    63    31    34    1
    64    34    35    1
    65    41    42    1
    66    98    99    1
    67    98    93   am
    68   105   106    1
    69    92    93    1
    70    92    91    1
    71    93    94    2
    72    60    61    2
    73   110   109    1
    74    35    36   ar
    75    35    37   ar
    76    36    38   ar
    77   109   106    1
    78    91    86   am
    79   106   107    1
    80    68    66    1
    81    89    88    1
    82    37    39   ar
    83    38    39   ar
    84    87    86    2
    85    67    66    1
    86    86    85    1
    87    82    81    1
    88    83    81    1
    89    66    63    1
    90   107   108    2
    91   118   117    1
    92    74    73    1
    93    88    85    1
    94    88    90    1
    95    80    81    1
    96    80    77    1
    97    85    84    1
    98    84    78   am
    99    75    73    1
   100    62    63    1
   101   117   119    1
   102   117   116    1
   103    63    64    1
   104    73    70    1
   105    78    77    1
   106    78    79    2
   107    77    76    1
   108    70    71    1
   109    70    69    1
   110   133   132   ar
   111   133   131   ar
   112    64    65    2
   113    71    72    2
   114   112   113    1
   115   116   113    1
   116   132   130   ar
   117   131   129   ar
   118   113   114    1
   119   130   127   ar
   120   129   127   ar
   121   129   128   ar
   122   115   114    2
   123   127   125   ar
   124   128   126   ar
   125   125   126   ar
   126   125   124    1
   127   121   124    1
   128   121   122    1
   129   121   120    1
   130   122   123    2
