@<TRIPOS>MOLECULE
tmp/3ibqA00.pdb
 207 197 0 0 0
SMALL
GASTEIGER

@<TRIPOS>ATOM
      1  N         27.1860   29.4730   15.5750 N.3   102  ASP102     -0.1239
      2  CA        25.7710   29.4180   15.8050 C.3   102  ASP102      0.1674
      3  C         25.2530   30.8340   15.6530 C.2   102  ASP102      0.2266
      4  O         25.4260   31.6060   16.5150 O.2   102  ASP102     -0.2867
      5  CB        25.4190   28.8950   17.1630 C.3   102  ASP102      0.1410
      6  CG        23.9350   28.7340   17.3550 C.2   102  ASP102      0.3668
      7  OD1       23.1740   29.1220   16.4900 O.co2 102  ASP102     -0.2456
      8  OD2       23.5360   28.2000   18.3510 O.co2 102  ASP102     -0.2456
      9  N         23.0010   33.1080   16.1180 N.3   104  VAL104     -0.1245
     10  CA        21.8880   33.4910   16.9420 C.3   104  VAL104      0.1561
     11  C         21.2680   34.8470   16.5350 C.2   104  VAL104      0.2260
     12  O         21.8930   35.8510   16.6080 O.2   104  VAL104     -0.2867
     13  CB        22.1830   33.3180   18.4490 C.3   104  VAL104      0.0252
     14  CG1       20.9970   33.6250   19.2470 C.3   104  VAL104      0.0019
     15  CG2       22.6040   31.9100   18.7200 C.3   104  VAL104      0.0019
     16  N         13.9310   33.4410   16.1600 N.3   107  ASP107     -0.1239
     17  CA        13.1170   32.2550   16.2200 C.3   107  ASP107      0.1674
     18  C         11.6260   32.6510   16.0270 C.2   107  ASP107      0.2266
     19  O         11.2500   33.7840   16.1820 O.2   107  ASP107     -0.2867
     20  CB        13.3620   31.5740   17.5570 C.3   107  ASP107      0.1410
     21  CG        12.8840   30.1260   17.6180 C.2   107  ASP107      0.3668
     22  OD1       12.5670   29.5090   16.6130 O.co2 107  ASP107     -0.2456
     23  OD2       12.8510   29.6210   18.7130 O.co2 107  ASP107     -0.2456
     24  N         15.2010   38.5010   17.3100 N.3   112  TYR112     -0.1241
     25  CA        15.0510   38.6690   18.7280 C.3   112  TYR112      0.1605
     26  C         14.9730   40.1760   19.0050 C.2   112  TYR112      0.2264
     27  O         15.4840   40.9360   18.2510 O.2   112  TYR112     -0.2867
     28  CB        16.2350   38.0170   19.4260 C.3   112  TYR112      0.0534
     29  CG        16.2150   36.5020   19.4470 C.ar  112  TYR112     -0.0201
     30  CD1       15.0770   35.8200   19.7830 C.ar  112  TYR112     -0.0009
     31  CD2       17.3250   35.7710   19.1530 C.ar  112  TYR112     -0.0009
     32  CE1       15.0420   34.4620   19.7990 C.ar  112  TYR112      0.0417
     33  CE2       17.3100   34.4180   19.1870 C.ar  112  TYR112      0.0417
     34  CZ        16.1590   33.7590   19.5050 C.ar  112  TYR112      0.1957
     35  OH        16.1180   32.4240   19.5570 O.3   112  TYR112     -0.2866
     36  N         18.7970   28.0030   12.8560 N.3   135  ASN135     -0.1240
     37  CA        17.4910   27.4470   12.8270 C.3   135  ASN135      0.1653
     38  C         16.8130   28.0090   11.5640 C.2   135  ASN135      0.2266
     39  O         17.3620   28.7920   10.8780 O.2   135  ASN135     -0.2867
     40  CB        16.6780   27.7630   14.0610 C.3   135  ASN135      0.1155
     41  CG        16.4090   29.2100   14.2410 C.2   135  ASN135      0.2627
     42  OD1       16.2100   29.9390   13.3270 O.2   135  ASN135     -0.2716
     43  ND2       16.3900   29.6190   15.4530 N.am  135  ASN135     -0.0877
     44  N         19.1480   23.4170   11.9480 N.3   173  THR173     -0.1203
     45  CA        19.0100   22.5900   13.1790 C.3   173  THR173      0.1994
     46  C         17.6370   22.1690   13.8010 C.2   173  THR173      0.2617
     47  O         17.5490   21.3260   14.6410 O.2   173  THR173     -0.2717
     48  CB        19.7880   23.2580   14.3290 C.3   173  THR173      0.1784
     49  OG1       19.2630   24.5440   14.5520 O.3   173  THR173     -0.2211
     50  CG2       21.2670   23.3160   14.0100 C.3   173  THR173      0.0376
     51  N         16.5970   22.7950   13.4100 N.am  174  ASP174     -0.1973
     52  CA        15.3530   22.5180   14.0620 C.3   174  ASP174      0.1709
     53  C         14.3090   22.0480   13.0550 C.2   174  ASP174      0.2293
     54  O         13.1760   22.3880   13.1760 O.2   174  ASP174     -0.2864
     55  CB        14.8730   23.8220   14.6770 C.3   174  ASP174      0.1436
     56  CG        14.7010   24.8920   13.6170 C.2   174  ASP174      0.3671
     57  OD1       15.1290   24.6940   12.5020 O.co2 174  ASP174     -0.2456
     58  OD2       14.0640   25.8740   13.8800 O.co2 174  ASP174     -0.2456
     59  N         12.4930   15.5750   14.9730 N.3   181  ILE181     -0.1227
     60  CA        13.1220   16.8700   14.9540 C.3   181  ILE181      0.1736
     61  C         14.6510   16.6730   14.7650 C.2   181  ILE181      0.2635
     62  O         15.2030   15.7850   15.3300 O.2   181  ILE181     -0.2714
     63  CB        12.8180   17.7190   16.1910 C.3   181  ILE181      0.0486
     64  CG1       13.2540   19.1610   15.9660 C.2   181  ILE181     -0.0245
     65  CG2       13.4320   17.1400   17.3660 C.3   181  ILE181      0.0067
     66  CD1       13.0750   20.0200   17.0130 C.2   181  ILE181     -0.0049
     67  N         15.2660   17.4860   13.9350 N.am  182  GLY182     -0.1718
     68  CA        16.6710   17.4050   13.6710 C.2   182  GLY182      0.1480
     69  C         17.3000   18.4050   12.6940 C.2   182  GLY182      0.2820
     70  O         16.7990   19.4650   12.5460 O.2   182  GLY182     -0.2669
     71  N         18.3880   17.9900   12.0730 N.am  183  CYS183     -0.1933
     72  CA        19.2900   18.7470   11.2450 C.3   183  CYS183      0.1715
     73  C         19.2490   18.3520    9.7870 C.2   183  CYS183      0.2296
     74  O         19.1660   17.2180    9.4670 O.2   183  CYS183     -0.2864
     75  CB        20.7180   18.5820   11.7620 C.3   183  CYS183      0.0983
     76  SG        21.1240   19.2180   13.4270 S.3   183  CYS183     -0.0798
     77  N         15.6160   12.8850   15.6220 N.3   197  ALA197     -0.1231
     78  CA        15.3110   11.9940   16.6800 C.3   197  ALA197      0.1694
     79  C         13.8930   12.3600   17.0020 C.2   197  ALA197      0.2592
     80  O         13.4350   13.3930   16.6140 O.2   197  ALA197     -0.2718
     81  CB        16.1710   12.2520   17.8290 C.3   197  ALA197      0.0304
     82  N         13.2310   11.4860   17.7140 N.am  198  ARG198     -0.1966
     83  CA        11.8380   11.6530   18.0250 C.3   198  ARG198      0.1729
     84  C         11.6270   12.8420   18.9510 C.2   198  ARG198      0.2616
     85  O         12.1780   12.9130   19.9610 O.2   198  ARG198     -0.2715
     86  CB        11.2290   10.3630   18.5840 C.3   198  ARG198      0.0348
     87  CG         9.7290   10.3390   18.6240 C.3   198  ARG198      0.0492
     88  CD         9.1270    8.9470   18.9460 C.3   198  ARG198      0.2205
     89  NE         9.4610    7.9800   17.9220 N.pl3 198  ARG198     -0.0865
     90  CZ         8.6340    7.5400   16.9980 C.cat 198  ARG198      0.5346
     91  NH1        7.3640    7.8550   17.0280 N.pl3 198  ARG198      0.1354
     92  NH2        9.0640    6.7110   16.0740 N.pl3 198  ARG198      0.1354
     93  N         10.7790   13.7680   18.5160 N.am  199  ARG199     -0.1963
     94  CA        10.4910   14.9750   19.2800 C.3   199  ARG199      0.1729
     95  C          9.7920   14.6590   20.5970 C.2   199  ARG199      0.2616
     96  O          8.8450   13.8730   20.6400 O.2   199  ARG199     -0.2715
     97  CB         9.6390   15.9400   18.4530 C.3   199  ARG199      0.0348
     98  CG         9.6380   17.3690   18.9720 C.3   199  ARG199      0.0492
     99  CD         9.1160   18.3370   17.9230 C.3   199  ARG199      0.2205
    100  NE         7.7780   17.9770   17.4640 N.pl3 199  ARG199     -0.0865
    101  CZ         7.5260   17.3170   16.3370 C.cat 199  ARG199      0.5346
    102  NH1        8.5250   16.9420   15.5500 N.pl3 199  ARG199      0.1354
    103  NH2        6.2770   17.0320   15.9980 N.pl3 199  ARG199      0.1354
    104  N         10.2690   15.2820   21.6680 N.am  200  LEU200     -0.1977
    105  CA         9.7000   15.1110   22.9700 C.3   200  LEU200      0.1596
    106  C          8.8470   16.3040   23.4060 C.2   200  LEU200      0.2287
    107  O          9.0810   17.3680   23.0210 O.2   200  LEU200     -0.2864
    108  CB        10.7730   14.7960   23.9950 C.3   200  LEU200      0.0297
    109  CG        11.7990   13.7280   23.6050 C.3   200  LEU200      0.0022
    110  CD1       12.8490   13.5360   24.6200 C.3   200  LEU200      0.0001
    111  CD2       11.1310   12.4390   23.2290 C.3   200  LEU200      0.0001
    112  N          7.2300   19.5130   25.1620 N.3   202  GLY202     -0.1210
    113  CA         7.7650   20.6010   25.9200 C.3   202  GLY202      0.1956
    114  C          8.7740   21.4500   25.2250 C.2   202  GLY202      0.2612
    115  O          9.1190   21.2080   24.1400 O.2   202  GLY202     -0.2717
    116  N          9.2200   22.4790   25.8970 N.am  203  HIS203     -0.1961
    117  CA        10.2270   23.3540   25.3640 C.3   203  HIS203      0.1787
    118  C         11.2840   23.6030   26.4470 C.2   203  HIS203      0.2620
    119  O         10.9550   23.8170   27.5650 O.2   203  HIS203     -0.2715
    120  CB         9.5830   24.6170   24.8290 C.3   203  HIS203      0.0785
    121  CG         8.4820   24.3510   23.8340 C.ar  203  HIS203      0.0821
    122  ND1        8.7140   24.1960   22.4850 N.ar  203  HIS203     -0.2267
    123  CD2        7.1520   24.1610   24.0000 C.ar  203  HIS203      0.1154
    124  CE1        7.5810   23.9390   21.8630 C.ar  203  HIS203      0.1986
    125  NE2        6.6180   23.9140   22.7550 N.ar  203  HIS203     -0.2212
    126  N         12.5380   23.5190   26.0640 N.am  204  TYR204     -0.1960
    127  CA        13.6530   23.5510   26.9780 C.3   204  TYR204      0.1771
    128  C         14.6670   24.6470   26.6620 C.2   204  TYR204      0.2620
    129  O         14.7370   25.1050   25.5690 O.2   204  TYR204     -0.2715
    130  CB        14.2640   22.1110   27.1110 C.3   204  TYR204      0.0574
    131  CG        13.2010   21.1170   27.3940 C.ar  204  TYR204     -0.0198
    132  CD1       12.8200   20.8440   28.6580 C.ar  204  TYR204     -0.0009
    133  CD2       12.4960   20.5370   26.3940 C.ar  204  TYR204     -0.0009
    134  CE1       11.7930   19.9930   28.9330 C.ar  204  TYR204      0.0417
    135  CE2       11.4480   19.6790   26.6460 C.ar  204  TYR204      0.0417
    136  CZ        11.1080   19.4090   27.9320 C.ar  204  TYR204      0.1957
    137  OH        10.1010   18.6110   28.2540 O.3   204  TYR204     -0.2866
    138  N         15.4150   25.0920   27.6420 N.am  205  ASN205     -0.1958
    139  CA        16.3900   26.1040   27.3910 C.3   205  ASN205      0.1819
    140  C         17.7670   25.4480   27.2060 C.2   205  ASN205      0.2622
    141  O         18.0110   24.4340   27.7580 O.2   205  ASN205     -0.2715
    142  CB        16.4170   27.1070   28.5550 C.3   205  ASN205      0.1195
    143  CG        15.1670   28.0160   28.6020 C.2   205  ASN205      0.2630
    144  OD1       14.6540   28.3780   27.6120 O.2   205  ASN205     -0.2716
    145  ND2       14.7440   28.3530   29.7580 N.am  205  ASN205     -0.0877
    146  N         18.6470   26.0840   26.4570 N.am  206  GLY206     -0.1940
    147  CA        19.9810   25.5890   26.2950 C.3   206  GLY206      0.2014
    148  C         20.2090   24.4640   25.2790 C.2   206  GLY206      0.2640
    149  O         21.2900   24.0280   25.1130 O.2   206  GLY206     -0.2714
    150  N         19.1700   24.0300   24.5960 N.am  207  THR207     -0.1936
    151  CA        19.2600   22.9380   23.6650 C.3   207  THR207      0.2028
    152  C         20.1690   23.2690   22.4930 C.2   207  THR207      0.2643
    153  O         21.0460   22.5360   22.1920 O.2   207  THR207     -0.2714
    154  CB        17.8920   22.3730   23.2540 C.3   207  THR207      0.1808
    155  OG1       16.9920   23.3950   22.9680 O.3   207  THR207     -0.2208
    156  CG2       17.3050   21.5220   24.3550 C.3   207  THR207      0.0379
    157  N         19.9280   24.4060   21.8720 N.am  208  GLY208     -0.1939
    158  CA        20.7750   24.8930   20.8290 C.3   208  GLY208      0.2014
    159  C         22.2400   25.0120   21.2380 C.2   208  GLY208      0.2638
    160  O         23.0750   24.5410   20.5530 O.2   208  GLY208     -0.2714
    161  N         22.4670   25.6090   22.3860 N.am  209  ASP209     -0.1971
    162  CA        23.7710   25.7620   22.9790 C.3   209  ASP209      0.1709
    163  C         24.4960   24.4240   23.0890 C.2   209  ASP209      0.2293
    164  O         25.5640   24.3100   22.5860 O.2   209  ASP209     -0.2864
    165  CB        23.6770   26.4680   24.3270 C.3   209  ASP209      0.1436
    166  CG        23.0550   27.8440   24.2340 C.2   209  ASP209      0.3671
    167  OD1       23.1090   28.4570   23.2160 O.co2 209  ASP209     -0.2456
    168  OD2       22.5190   28.3020   25.1610 O.co2 209  ASP209     -0.2456
    169  N         23.7740   21.4930   21.6470 N.3   211  LEU211     -0.1245
    170  CA        23.8740   20.9560   20.3120 C.3   211  LEU211      0.1561
    171  C         25.1270   21.4930   19.6670 C.2   211  LEU211      0.2260
    172  O         25.8660   20.7640   19.1600 O.2   211  LEU211     -0.2867
    173  CB        22.6840   21.2620   19.4310 C.3   211  LEU211      0.0270
    174  CG        22.6750   20.5750   18.0380 C.3   211  LEU211      0.0019
    175  CD1       22.4780   19.1290   18.1130 C.3   211  LEU211      0.0001
    176  CD2       21.7330   21.2120   17.1210 C.3   211  LEU211      0.0001
    177  N         22.4510   14.6900   17.6640 N.3   233  ASN233     -0.1240
    178  CA        21.0030   14.6040   17.7850 C.3   233  ASN233      0.1653
    179  C         20.5410   13.5750   18.7960 C.2   233  ASN233      0.2266
    180  O         19.6760   13.8580   19.5320 O.2   233  ASN233     -0.2867
    181  CB        20.2640   14.4560   16.4570 C.3   233  ASN233      0.1155
    182  CG        20.2030   15.7300   15.7070 C.2   233  ASN233      0.2627
    183  OD1       21.0520   15.9850   14.9460 O.2   233  ASN233     -0.2716
    184  ND2       19.2860   16.5490   15.9840 N.am  233  ASN233     -0.0877
    185  N         21.3560   15.0300   22.2860 N.3   236  LEU236     -0.1231
    186  CA        20.4100   16.0530   22.7250 C.3   236  LEU236      0.1693
    187  C         19.0930   15.4150   23.1670 C.2   236  LEU236      0.2592
    188  O         18.5200   15.7820   24.1930 O.2   236  LEU236     -0.2718
    189  CB        20.1560   17.0660   21.6070 C.3   236  LEU236      0.0284
    190  CG        20.9800   18.3540   21.6600 C.3   236  LEU236      0.0019
    191  CD1       20.5130   19.2440   22.8010 C.3   236  LEU236      0.0001
    192  CD2       22.4620   18.0400   21.7920 C.3   236  LEU236      0.0001
    193  N         18.6310   14.4540   22.3760 N.am  237  ASN237     -0.1974
    194  CA        17.4120   13.7130   22.6380 C.3   237  ASN237      0.1688
    195  C         17.5020   13.1710   24.0710 C.2   237  ASN237      0.2292
    196  O         16.6880   13.4510   24.8510 O.2   237  ASN237     -0.2864
    197  CB        17.2080   12.6400   21.6040 C.3   237  ASN237      0.1181
    198  CG        15.7500   12.1500   21.5350 C.2   237  ASN237      0.2629
    199  OD1       15.4830   11.0850   21.9320 O.2   237  ASN237     -0.2716
    200  ND2       14.8750   12.9630   21.1030 N.am  237  ASN237     -0.0877
    201  N         17.3770   16.0190   26.7780 N.3   239  VAL239     -0.1245
    202  CA        16.0350   16.4660   26.9590 C.3   239  VAL239      0.1561
    203  C         15.2700   15.3820   27.7680 C.2   239  VAL239      0.2260
    204  O         14.6070   15.6940   28.6420 O.2   239  VAL239     -0.2867
    205  CB        15.3400   16.8080   25.6510 C.3   239  VAL239      0.0252
    206  CG1       13.8640   17.0520   25.8510 C.3   239  VAL239      0.0019
    207  CG2       16.0360   17.9910   24.9530 C.3   239  VAL239      0.0019
@<TRIPOS>BOND
     1    74    73    2
     2    73    72    1
     3    39    38    2
     4    72    75    1
     5    72    71    1
     6    38    37    1
     7    75    76    1
     8    44    45    1
     9    71    69   am
    10    57    56   ar
    11    70    69    2
    12    69    68    1
    13    37    36    1
    14    37    40    1
    15    53    54    2
    16    53    52    1
    17    45    46    1
    18    45    48    1
    19    42    41    2
    20    51    46   am
    21    51    52    1
    22    56    58   ar
    23    56    55    1
    24    68    67    2
    25    46    47    2
    26    67    61    1
    27    50    48    1
    28    40    41    1
    29    52    55    1
    30    41    43   am
    31    48    49    1
    32    61    60    1
    33    61    62    2
    34   183   182    2
    35    60    59    1
    36    60    63    1
    37   102   101    1
    38     1     2    1
    39    77    78    1
    40     3     2    1
    41     3     4    2
    42   182   184   am
    43   182   181    1
    44     2     5    1
    45    64    63    1
    46    64    66    2
    47   103   101    1
    48    18    19    2
    49    18    17    1
    50    92    90    1
    51     9    10    1
    52    16    17    1
    53    63    65    1
    54    17    20    1
    55   101   100    2
    56   181   178    1
    57     7     6   ar
    58    11    12    2
    59    11    10    1
    60    22    21   ar
    61    80    79    2
    62    78    79    1
    63    78    81    1
    64    10    13    1
    65    90    91    1
    66    90    89    2
    67    79    82   am
    68   176   174    1
    69     5     6    1
    70    24    25    1
    71     6     8   ar
    72   100    99    1
    73    20    21    1
    74    21    23   ar
    75   177   178    1
    76    82    83    1
    77   178   179    1
    78    89    88    1
    79    99    98    1
    80    83    86    1
    81    83    84    1
    82   174   175    1
    83   174   173    1
    84    27    26    2
    85    13    15    1
    86    13    14    1
    87    97    98    1
    88    97    94    1
    89    93    84   am
    90    93    94    1
    91    86    87    1
    92    87    88    1
    93    25    26    1
    94    25    28    1
    95   179   180    2
    96    84    85    2
    97    31    33   ar
    98    31    29   ar
    99   172   171    2
   100    33    34   ar
   101    94    95    1
   102    28    29    1
   103   173   170    1
   104    29    30   ar
   105    34    35    1
   106    34    32   ar
   107   171   170    1
   108    30    32   ar
   109   170   169    1
   110   160   159    2
   111    95    96    2
   112    95   104   am
   113   158   159    1
   114   158   157    1
   115   200   198   am
   116   159   161   am
   117   198   197    1
   118   198   199    2
   119   197   194    1
   120   189   190    1
   121   189   186    1
   122   190   192    1
   123   190   191    1
   124   104   105    1
   125   124   122   ar
   126   124   125   ar
   127   157   152   am
   128   153   152    2
   129   185   186    1
   130   193   194    1
   131   193   187   am
   132   161   162    1
   133   122   121   ar
   134   152   151    1
   135   164   163    2
   136   194   195    1
   137   186   187    1
   138   125   123   ar
   139   155   154    1
   140   105   106    1
   141   105   108    1
   142   162   163    1
   143   162   165    1
   144   107   106    2
   145   187   188    2
   146   167   166   ar
   147   111   109    1
   148   154   151    1
   149   154   156    1
   150   109   108    1
   151   109   110    1
   152   151   150    1
   153   121   123   ar
   154   121   120    1
   155   195   196    2
   156   115   114    2
   157   166   165    1
   158   166   168   ar
   159   150   148   am
   160   120   117    1
   161   207   205    1
   162   149   148    2
   163   112   113    1
   164   114   116   am
   165   114   113    1
   166   148   147    1
   167   117   116    1
   168   117   118    1
   169   129   128    2
   170   205   206    1
   171   205   202    1
   172   126   118   am
   173   126   127    1
   174   147   146    1
   175   133   135   ar
   176   133   131   ar
   177   118   119    2
   178   146   140   am
   179   135   136   ar
   180   128   127    1
   181   128   138   am
   182   201   202    1
   183   202   203    1
   184   127   130    1
   185   130   131    1
   186   140   139    1
   187   140   141    2
   188   139   138    1
   189   139   142    1
   190   131   132   ar
   191   144   143    2
   192   203   204    2
   193   136   137    1
   194   136   134   ar
   195   142   143    1
   196   143   145   am
   197   132   134   ar
