@<TRIPOS>MOLECULE
tmp/3ibuA00.pdb
 129 126 0 0 0
SMALL
GASTEIGER

@<TRIPOS>ATOM
      1  N        -12.6290    6.2900   11.1370 N.3    90  GLN90      -0.1245
      2  CA       -12.3220    5.1350   10.3020 C.3    90  GLN90       0.1566
      3  C        -12.4530    3.8460   11.0820 C.2    90  GLN90       0.2260
      4  O        -12.5360    3.8630   12.3080 O.2    90  GLN90      -0.2867
      5  CB       -10.8790    5.2230    9.7860 C.3    90  GLN90       0.0367
      6  CG        -9.8070    5.2310   10.8950 C.3    90  GLN90       0.0905
      7  CD        -9.0350    3.9190   11.0230 C.2    90  GLN90       0.2608
      8  OE1       -9.6220    2.8450   11.1500 O.2    90  GLN90      -0.2717
      9  NE2       -7.7090    4.0090   11.0040 N.am   90  GLN90      -0.0878
     10  N        -11.0950   -0.5140   10.8380 N.3    92  HIS92      -0.1241
     11  CA       -10.2170   -1.4750   10.1990 C.3    92  HIS92       0.1621
     12  C        -10.2650   -2.7420   11.0340 C.2    92  HIS92       0.2264
     13  O        -10.8840   -2.7700   12.0990 O.2    92  HIS92      -0.2867
     14  CB        -8.7810   -0.9520   10.1610 C.3    92  HIS92       0.0745
     15  CG        -8.2090   -0.6910   11.5180 C.ar   92  HIS92       0.0817
     16  ND1       -8.4150    0.4890   12.1990 N.ar   92  HIS92      -0.2268
     17  CD2       -7.5150   -1.4940   12.3570 C.ar   92  HIS92       0.1154
     18  CE1       -7.8770    0.3980   13.4030 C.ar   92  HIS92       0.1986
     19  NE2       -7.3260   -0.7970   13.5250 N.ar   92  HIS92      -0.2212
     20  N         -8.0370   -6.5740   12.3210 N.3    94  HIS94      -0.1241
     21  CA        -6.7880   -7.2750   12.6010 C.3    94  HIS94       0.1621
     22  C         -7.2380   -8.7240   12.4790 C.2    94  HIS94       0.2264
     23  O         -8.2800   -9.0890   13.0180 O.2    94  HIS94      -0.2867
     24  CB        -6.2970   -7.0000   14.0220 C.3    94  HIS94       0.0745
     25  CG        -5.9440   -5.5700   14.2660 C.ar   94  HIS94       0.0817
     26  ND1       -4.6780   -5.0640   14.0600 N.ar   94  HIS94      -0.2268
     27  CD2       -6.7080   -4.5250   14.6610 C.ar   94  HIS94       0.1154
     28  CE1       -4.6780   -3.7680   14.3200 C.ar   94  HIS94       0.1986
     29  NE2       -5.8980   -3.4160   14.6850 N.ar   94  HIS94      -0.2212
     30  N        -11.9670   -2.6320   14.6970 N.3   117  HIS117     -0.1241
     31  CA       -11.6940   -1.4230   15.4660 C.3   117  HIS117      0.1621
     32  C        -12.3260   -0.2080   14.8070 C.2   117  HIS117      0.2264
     33  O        -11.9670    0.1510   13.6830 O.2   117  HIS117     -0.2867
     34  CB       -10.1830   -1.2000   15.5820 C.3   117  HIS117      0.0745
     35  CG        -9.5040   -2.1560   16.5100 C.ar  117  HIS117      0.0817
     36  ND1       -8.1360   -2.3400   16.5270 N.ar  117  HIS117     -0.2268
     37  CD2      -10.0060   -2.9780   17.4620 C.ar  117  HIS117      0.1154
     38  CE1       -7.8270   -3.2350   17.4460 C.ar  117  HIS117      0.1986
     39  NE2       -8.9420   -3.6380   18.0270 N.ar  117  HIS117     -0.2212
     40  N        -12.5080    3.5490   15.1110 N.3   119  VAL119     -0.1245
     41  CA       -11.7480    4.6390   15.7200 C.3   119  VAL119      0.1561
     42  C        -12.4820    5.9760   15.7570 C.2   119  VAL119      0.2260
     43  O        -12.9660    6.4490   14.7270 O.2   119  VAL119     -0.2867
     44  CB       -10.4060    4.8100   14.9690 C.3   119  VAL119      0.0252
     45  CG1       -9.5280    5.8330   15.6730 C.3   119  VAL119      0.0019
     46  CG2       -9.7030    3.4640   14.8620 C.3   119  VAL119      0.0019
     47  N         -8.5600   14.9950   14.7150 N.3   128  PHE128     -0.1241
     48  CA        -7.7940   13.8170   15.0850 C.3   128  PHE128      0.1605
     49  C         -6.3550   14.1130   15.4930 C.2   128  PHE128      0.2264
     50  O         -5.8700   13.5840   16.4960 O.2   128  PHE128     -0.2867
     51  CB        -7.8190   12.8090   13.9330 C.3   128  PHE128      0.0534
     52  CG        -7.1440   11.5110   14.2510 C.ar  128  PHE128     -0.0203
     53  CD1       -5.7770   11.3500   14.0470 C.ar  128  PHE128     -0.0042
     54  CD2       -7.8730   10.4530   14.7810 C.ar  128  PHE128     -0.0042
     55  CE1       -5.1470   10.1500   14.3660 C.ar  128  PHE128     -0.0003
     56  CE2       -7.2510    9.2510   15.1030 C.ar  128  PHE128     -0.0003
     57  CZ        -5.8890    9.1000   14.8950 C.ar  128  PHE128     -0.0000
     58  N         -4.7800   13.1130   19.3330 N.3   132  VAL132     -0.1245
     59  CA        -3.7450   12.1360   19.6630 C.3   132  VAL132      0.1561
     60  C         -2.5820   12.7170   20.4660 C.2   132  VAL132      0.2260
     61  O         -1.5040   12.1290   20.5390 O.2   132  VAL132     -0.2867
     62  CB        -3.2050   11.4270   18.3950 C.3   132  VAL132      0.0252
     63  CG1       -4.3390   10.6910   17.7060 C.3   132  VAL132      0.0019
     64  CG2       -2.5680   12.4300   17.4460 C.3   132  VAL132      0.0019
     65  N        -11.7580    3.7870   20.9990 N.3   140  VAL140     -0.1245
     66  CA       -11.8530    2.7560   19.9850 C.3   140  VAL140      0.1561
     67  C        -12.8260    1.6890   20.4530 C.2   140  VAL140      0.2260
     68  O        -12.7070    1.1590   21.5650 O.2   140  VAL140     -0.2867
     69  CB       -10.4830    2.1020   19.6720 C.3   140  VAL140      0.0252
     70  CG1      -10.6570    1.0690   18.5590 C.3   140  VAL140      0.0019
     71  CG2       -9.4780    3.1610   19.2270 C.3   140  VAL140      0.0019
     72  N         -2.8750    3.0250   21.1120 N.3   195  LEU195     -0.1231
     73  CA        -3.0650    2.5670   19.7480 C.3   195  LEU195      0.1693
     74  C         -2.2900    1.2460   19.7680 C.2   195  LEU195      0.2593
     75  O         -1.2860    1.1230   20.4840 O.2   195  LEU195     -0.2718
     76  CB        -2.3980    3.5200   18.7570 C.3   195  LEU195      0.0284
     77  CG        -2.9220    4.9490   18.6290 C.3   195  LEU195      0.0019
     78  CD1       -2.0540    5.7070   17.6250 C.3   195  LEU195      0.0001
     79  CD2       -4.3740    4.9330   18.1830 C.3   195  LEU195      0.0001
     80  N         -2.7310    0.2640   18.9900 N.am  196  THR196     -0.1939
     81  CA        -2.0440   -1.0230   18.9720 C.3   196  THR196      0.2028
     82  C         -1.0110   -1.1220   17.8520 C.2   196  THR196      0.2643
     83  O         -0.3670   -2.1550   17.6840 O.2   196  THR196     -0.2714
     84  CB        -3.0350   -2.1850   18.8410 C.3   196  THR196      0.1808
     85  OG1       -3.6650   -2.1310   17.5580 O.3   196  THR196     -0.2208
     86  CG2       -4.0900   -2.1090   19.9340 C.3   196  THR196      0.0379
     87  N         -0.8680   -0.0480   17.0820 N.am  197  THR197     -0.1937
     88  CA         0.1270   -0.0040   16.0120 C.3   197  THR197      0.2013
     89  C          0.9620    1.2420   16.2370 C.2   197  THR197      0.2484
     90  O          0.5070    2.1930   16.8720 O.2   197  THR197     -0.2729
     91  CB        -0.4910    0.1540   14.5990 C.3   197  THR197      0.1807
     92  OG1       -1.1340    1.4310   14.4990 O.3   197  THR197     -0.2208
     93  CG2       -1.4880   -0.9450   14.3060 C.3   197  THR197      0.0379
     94  N          2.2090    1.2460   15.7470 N.am  198  PRO198     -0.2715
     95  CA         3.0300    2.4420   15.9290 C.3   198  PRO198      0.1521
     96  C          2.1980    3.6000   15.3790 C.2   198  PRO198      0.2440
     97  O          1.4720    3.4270   14.3960 O.2   198  PRO198     -0.2731
     98  CB         4.2510    2.1420   15.0710 C.3   198  PRO198      0.0310
     99  CG         4.4280    0.6710   15.2670 C.3   198  PRO198      0.0237
    100  CD         3.0010    0.1340   15.1900 C.3   198  PRO198      0.0939
    101  N          2.3210    4.8010   15.9630 N.am  199  PRO199     -0.2727
    102  CA         3.1760    5.1870   17.0900 C.3   199  PRO199      0.1402
    103  C          2.8100    4.7410   18.5110 C.2   199  PRO199      0.2269
    104  O          3.4230    5.2060   19.4710 O.2   199  PRO199     -0.2865
    105  CB         3.2350    6.7030   16.9560 C.3   199  PRO199      0.0296
    106  CG         1.8600    7.0310   16.4850 C.3   199  PRO199      0.0237
    107  CD         1.6000    5.9740   15.4300 C.3   199  PRO199      0.0939
    108  N          0.5250    5.5010   20.5890 N.3   201  LEU201     -0.1245
    109  CA         0.1850    6.5930   21.4930 C.3   201  LEU201      0.1561
    110  C         -0.8400    6.2080   22.5560 C.2   201  LEU201      0.2260
    111  O         -1.8370    5.5490   22.2720 O.2   201  LEU201     -0.2867
    112  CB        -0.3070    7.7920   20.6790 C.3   201  LEU201      0.0270
    113  CG         0.6980    8.2930   19.6350 C.3   201  LEU201      0.0019
    114  CD1        0.0400    9.3390   18.7630 C.3   201  LEU201      0.0001
    115  CD2        1.9340    8.8530   20.3240 C.3   201  LEU201      0.0001
    116  N        -10.4870    2.3450   25.6210 N.3   206  TRP206     -0.1241
    117  CA       -10.9380    1.1560   24.9170 C.3   206  TRP206      0.1605
    118  C        -12.2860    0.6730   25.4050 C.2   206  TRP206      0.2264
    119  O        -12.5350    0.5990   26.6040 O.2   206  TRP206     -0.2867
    120  CB        -9.9190    0.0150   25.0570 C.3   206  TRP206      0.0550
    121  CG        -8.7920    0.1170   24.0920 C.ar  206  TRP206      0.0003
    122  CD1       -7.5830    0.7300   24.2900 C.ar  206  TRP206      0.0946
    123  CD2       -8.8010   -0.3250   22.7310 C.ar  206  TRP206      0.0152
    124  NE1       -6.8450    0.7010   23.1290 N.ar  206  TRP206     -0.2442
    125  CE2       -7.5690    0.0600   22.1570 C.ar  206  TRP206      0.0810
    126  CE3       -9.7350   -1.0060   21.9380 C.ar  206  TRP206      0.0012
    127  CZ2       -7.2470   -0.2140   20.8250 C.ar  206  TRP206      0.0191
    128  CZ3       -9.4150   -1.2800   20.6160 C.ar  206  TRP206      0.0001
    129  CH2       -8.1820   -0.8830   20.0720 C.ar  206  TRP206      0.0015
@<TRIPOS>BOND
     1     5     2    1
     2     5     6    1
     3    14    11    1
     4    14    15    1
     5    11    10    1
     6    11    12    1
     7     2     3    1
     8     2     1    1
     9     6     7    1
    10     9     7   am
    11     7     8    2
    12    12    13    2
    13     3     4    2
    14    15    16   ar
    15    15    17   ar
    16    16    18   ar
    17    20    21    1
    18    17    19   ar
    19    22    21    1
    20    22    23    2
    21    21    24    1
    22    18    19   ar
    23    33    32    2
    24    51    52    1
    25    51    48    1
    26    24    25    1
    27    53    52   ar
    28    53    55   ar
    29    26    25   ar
    30    26    28   ar
    31    52    54   ar
    32    25    27   ar
    33    93    91    1
    34    28    29   ar
    35    55    57   ar
    36    97    96    2
    37    92    91    1
    38    91    88    1
    39    27    29   ar
    40    30    31    1
    41    47    48    1
    42    43    42    2
    43    54    56   ar
    44    32    31    1
    45    46    44    1
    46    57    56   ar
    47    44    45    1
    48    44    41    1
    49    98    99    1
    50    98    95    1
    51    48    49    1
    52    40    41    1
    53   100    99    1
    54   100    94    1
    55    96    95    1
    56    96   101   am
    57   107   101    1
    58   107   106    1
    59    31    34    1
    60    49    50    2
    61    34    35    1
    62    41    42    1
    63    94    95    1
    64    94    89   am
    65   101   102    1
    66    88    89    1
    67    88    87    1
    68    89    90    2
    69   106   105    1
    70    35    36   ar
    71    35    37   ar
    72    36    38   ar
    73   105   102    1
    74    87    82   am
    75   102   103    1
    76    64    62    1
    77    38    39   ar
    78    37    39   ar
    79    85    84    1
    80    78    77    1
    81    83    82    2
    82    63    62    1
    83    82    81    1
    84    79    77    1
    85    62    59    1
    86   103   104    2
    87    70    69    1
    88    77    76    1
    89    76    73    1
    90   114   113    1
    91    84    81    1
    92    84    86    1
    93    81    80    1
    94    80    74   am
    95    71    69    1
    96    58    59    1
    97   113   115    1
    98   113   112    1
    99    59    60    1
   100    69    66    1
   101    73    74    1
   102    73    72    1
   103    74    75    2
   104    66    67    1
   105    66    65    1
   106   129   128   ar
   107   129   127   ar
   108    67    68    2
   109    60    61    2
   110   108   109    1
   111   128   126   ar
   112   112   109    1
   113   127   125   ar
   114   109   110    1
   115   126   123   ar
   116   125   123   ar
   117   125   124   ar
   118   111   110    2
   119   123   121   ar
   120   124   122   ar
   121   121   122   ar
   122   121   120    1
   123   117   120    1
   124   117   118    1
   125   117   116    1
   126   118   119    2
