@<TRIPOS>MOLECULE
tmp/3ic0C02.pdb
 92 87 0 0 0
SMALL
GASTEIGER

@<TRIPOS>ATOM
      1  N         42.7080   26.1540   41.6480 N.3    95  PRO95      -0.2116
      2  CA        42.5770   25.1920   40.5450 C.3    95  PRO95       0.1372
      3  C         43.8680   24.5130   40.1550 C.2    95  PRO95       0.2244
      4  O         43.8280   23.4060   39.6370 O.2    95  PRO95      -0.2868
      5  CB        41.9570   25.9990   39.3990 C.3    95  PRO95       0.0268
      6  CG        42.0920   27.4380   39.8260 C.3    95  PRO95       0.0207
      7  CD        42.0290   27.4180   41.3330 C.3    95  PRO95       0.0892
      8  N         43.9430   20.9730   41.3480 N.3    98  PHE98      -0.1227
      9  CA        43.1280   19.9710   40.6270 C.3    98  PHE98       0.1736
     10  C         43.9360   19.4190   39.4420 C.2    98  PHE98       0.2595
     11  O         43.7790   18.2540   39.0770 O.2    98  PHE98      -0.2718
     12  CB        41.8280   20.5810   40.0950 C.3    98  PHE98       0.0547
     13  CG        40.8090   20.8250   41.1690 C.ar   98  PHE98      -0.0202
     14  CD1       40.7670   22.0250   41.8360 C.ar   98  PHE98      -0.0042
     15  CD2       39.9690   19.7780   41.6010 C.ar   98  PHE98      -0.0042
     16  CE1       39.9030   22.2050   42.9660 C.ar   98  PHE98      -0.0003
     17  CE2       39.1120   19.9490   42.7210 C.ar   98  PHE98      -0.0003
     18  CZ        39.0930   21.1720   43.4040 C.ar   98  PHE98      -0.0000
     19  N         44.7440   20.2770   38.8140 N.am   99  LYS99      -0.1980
     20  CA        45.5770   19.8280   37.7330 C.3    99  LYS99       0.1596
     21  C         46.5620   18.8520   38.2840 C.2    99  LYS99       0.2287
     22  O         46.8530   17.8660   37.6170 O.2    99  LYS99      -0.2864
     23  CB        46.3360   20.9880   37.0860 C.3    99  LYS99       0.0298
     24  CG        45.4750   21.7090   36.0790 C.3    99  LYS99       0.0038
     25  CD        45.9510   23.1170   35.7600 C.3    99  LYS99       0.0206
     26  CE        47.3960   23.1810   35.2560 C.3    99  LYS99       0.1093
     27  NZ        47.6870   24.5420   34.6300 N.3    99  LYS99      -0.1314
     28  N         44.6670   15.5240   39.0750 N.3   102  SER102     -0.1202
     29  CA        44.2660   14.8870   37.8020 C.3   102  SER102      0.2020
     30  C         45.4690   14.2130   37.1880 C.2   102  SER102      0.2618
     31  O         45.3850   13.0590   36.8080 O.2   102  SER102     -0.2717
     32  CB        43.6840   15.9130   36.8370 C.3   102  SER102      0.2103
     33  OG        42.4600   16.4180   37.3750 O.3   102  SER102     -0.2182
     34  N         46.6080   14.9020   37.1770 N.am  103  HIS103     -0.1975
     35  CA        47.8180   14.3000   36.6350 C.3   103  HIS103      0.1656
     36  C         48.2370   13.0220   37.4420 C.2   103  HIS103      0.2291
     37  O         48.6180   11.9840   36.8520 O.2   103  HIS103     -0.2864
     38  CB        48.9690   15.3140   36.6780 C.3   103  HIS103      0.0771
     39  CG        50.3130   14.7240   36.3810 C.ar  103  HIS103      0.0820
     40  ND1       50.6440   14.1950   35.1390 N.ar  103  HIS103     -0.2267
     41  CD2       51.4120   14.5610   37.1600 C.ar  103  HIS103      0.1154
     42  CE1       51.8900   13.7470   35.1800 C.ar  103  HIS103      0.1986
     43  NE2       52.3750   13.9630   36.3860 N.ar  103  HIS103     -0.2212
     44  N         46.1060   10.1300   36.5100 N.3   106  LEU106     -0.1245
     45  CA        46.4740    9.5760   35.2080 C.3   106  LEU106      0.1561
     46  C         47.7630    8.7850   35.3530 C.2   106  LEU106      0.2260
     47  O         47.8760    7.6930   34.7870 O.2   106  LEU106     -0.2867
     48  CB        46.6300   10.7030   34.1750 C.3   106  LEU106      0.0270
     49  CG        45.3110   11.4030   33.8020 C.3   106  LEU106      0.0019
     50  CD1       45.5350   12.4770   32.7140 C.3   106  LEU106      0.0001
     51  CD2       44.3240   10.3650   33.2310 C.3   106  LEU106      0.0001
     52  N         41.6180   12.5960   30.5380 N.3   126  ASP126     -0.1239
     53  CA        42.2330   13.8680   30.8940 C.3   126  ASP126      0.1674
     54  C         41.1530   14.9640   30.7820 C.2   126  ASP126      0.2266
     55  O         41.0180   15.8240   31.6840 O.2   126  ASP126     -0.2867
     56  CB        43.3820   14.1730   29.9510 C.3   126  ASP126      0.1410
     57  CG        44.1290   15.4280   30.3410 C.2   126  ASP126      0.3668
     58  OD1       45.2800   15.3470   30.7300 O.co2 126  ASP126     -0.2456
     59  OD2       43.5540   16.5070   30.2390 O.co2 126  ASP126     -0.2456
     60  N         38.5900   14.6820   33.6360 N.3   129  LEU129     -0.1231
     61  CA        39.0940   15.2310   34.8950 C.3   129  LEU129      0.1693
     62  C         39.1400   16.7540   34.8430 C.2   129  LEU129      0.2591
     63  O         38.8470   17.3780   35.8840 O.2   129  LEU129     -0.2718
     64  CB        40.4640   14.6620   35.2240 C.3   129  LEU129      0.0284
     65  CG        40.3340   13.1720   35.5820 C.3   129  LEU129      0.0019
     66  CD1       41.7350   12.5720   35.5690 C.3   129  LEU129      0.0001
     67  CD2       39.6100   12.9750   36.9430 C.3   129  LEU129      0.0001
     68  N         39.4840   17.3540   33.6720 N.am  130  ALA130     -0.1980
     69  CA        39.4510   18.8180   33.5080 C.3   130  ALA130      0.1597
     70  C         37.9840   19.2880   33.7400 C.2   130  ALA130      0.2287
     71  O         37.7060   20.3390   34.3590 O.2   130  ALA130     -0.2864
     72  CB        39.9170   19.2250   32.0500 C.3   130  ALA130      0.0319
     73  N         37.1960   19.0770   37.4470 N.3   133  SER133     -0.1202
     74  CA        37.9360   20.1410   38.1090 C.3   133  SER133      0.2020
     75  C         37.2510   21.4970   37.9510 C.2   133  SER133      0.2619
     76  O         37.1950   22.3230   38.8950 O.2   133  SER133     -0.2717
     77  CB        39.3590   20.2170   37.5290 C.3   133  SER133      0.2103
     78  OG        40.0380   19.0180   37.8380 O.3   133  SER133     -0.2182
     79  N         36.7220   21.7360   36.7630 N.am  134  THR134     -0.1952
     80  CA        35.9870   22.9860   36.5100 C.3   134  THR134      0.1897
     81  C         34.7470   23.0860   37.3990 C.2   134  THR134      0.2313
     82  O         34.4180   24.1530   37.9420 O.2   134  THR134     -0.2863
     83  CB        35.5670   23.0590   35.0180 C.3   134  THR134      0.1794
     84  OG1       36.7440   23.1920   34.2150 O.3   134  THR134     -0.2208
     85  CG2       34.6250   24.2520   34.7540 C.3   134  THR134      0.0378
     86  N         35.7770   23.7760   41.0080 N.3   137  THR137     -0.1218
     87  CA        36.3790   25.0780   41.2750 C.3   137  THR137      0.1862
     88  C         35.4300   26.2190   40.9610 C.2   137  THR137      0.2287
     89  O         35.8140   27.3910   41.1180 O.2   137  THR137     -0.2866
     90  CB        37.6620   25.3000   40.4930 C.3   137  THR137      0.1770
     91  OG1       37.3910   25.1700   39.1170 O.3   137  THR137     -0.2211
     92  CG2       38.6830   24.3030   40.8770 C.3   137  THR137      0.0375
@<TRIPOS>BOND
     1    56    57    1
     2    56    53    1
     3    59    57   ar
     4    57    58   ar
     5    52    53    1
     6    54    53    1
     7    54    55    2
     8    72    69    1
     9    50    49    1
    10    51    49    1
    11    69    68    1
    12    69    70    1
    13    60    61    1
    14    68    62   am
    15    70    71    2
    16    49    48    1
    17    48    45    1
    18    84    83    1
    19    27    26    1
    20    85    83    1
    21    47    46    2
    22    62    61    1
    23    62    63    2
    24    61    64    1
    25    83    80    1
    26    40    42   ar
    27    40    39   ar
    28    42    43   ar
    29    45    46    1
    30    45    44    1
    31    64    65    1
    32    26    25    1
    33    66    65    1
    34    65    67    1
    35    25    24    1
    36    24    23    1
    37    39    38    1
    38    39    41   ar
    39    43    41   ar
    40    80    79    1
    41    80    81    1
    42    35    38    1
    43    35    34    1
    44    35    36    1
    45    79    75   am
    46    31    30    2
    47    32    33    1
    48    32    29    1
    49    37    36    2
    50    23    20    1
    51    34    30   am
    52    30    29    1
    53    81    82    2
    54    73    74    1
    55    77    78    1
    56    77    74    1
    57    22    21    2
    58    20    21    1
    59    20    19    1
    60    29    28    1
    61    75    74    1
    62    75    76    2
    63    19    10   am
    64    11    10    2
    65    91    90    1
    66     5     6    1
    67     5     2    1
    68    10     9    1
    69     4     3    2
    70     6     7    1
    71    12     9    1
    72    12    13    1
    73     3     2    1
    74    90    92    1
    75    90    87    1
    76     2     1    1
    77     9     8    1
    78    88    89    2
    79    88    87    1
    80    86    87    1
    81    13    15   ar
    82    13    14   ar
    83     7     1    1
    84    15    17   ar
    85    14    16   ar
    86    17    18   ar
    87    16    18   ar
