@<TRIPOS>MOLECULE
tmp/3ic2C01.pdb
 86 80 0 0 0
SMALL
GASTEIGER

@<TRIPOS>ATOM
      1  N         33.5900   20.2650   27.5060 N.3     1  VAL1       -0.1231
      2  CA        32.4200   19.5980   26.9470 C.3     1  VAL1        0.1692
      3  C         32.8020   18.2240   26.4150 C.2     1  VAL1        0.2591
      4  O         33.7090   18.1070   25.5880 O.2     1  VAL1       -0.2718
      5  CB        31.8020   20.4220   25.7700 C.3     1  VAL1        0.0266
      6  CG1       30.4740   19.8420   25.3650 C.3     1  VAL1        0.0020
      7  CG2       31.6390   21.8800   26.1720 C.3     1  VAL1        0.0020
      8  N         32.1130   17.1860   26.8840 N.am    2  LEU2       -0.1980
      9  CA        32.4010   15.8160   26.4500 C.3     2  LEU2        0.1596
     10  C         31.6320   15.4090   25.1990 C.2     2  LEU2        0.2287
     11  O         30.4590   15.7590   25.0270 O.2     2  LEU2       -0.2864
     12  CB        32.0990   14.8270   27.5770 C.3     2  LEU2        0.0297
     13  CG        33.2960   14.3890   28.4300 C.3     2  LEU2        0.0022
     14  CD1       34.0050   15.5980   29.0060 C.3     2  LEU2        0.0001
     15  CD2       32.8070   13.4630   29.5480 C.3     2  LEU2        0.0001
     16  N         27.2320   11.8830   33.9110 N.3    73  VAL73      -0.1245
     17  CA        28.0790   12.6650   33.0260 C.3    73  VAL73       0.1561
     18  C         27.3530   13.7910   32.2910 C.2    73  VAL73       0.2260
     19  O         27.9380   14.8450   32.0370 O.2    73  VAL73      -0.2867
     20  CB        28.7880   11.7540   32.0050 C.3    73  VAL73       0.0252
     21  CG1       27.7650   11.0510   31.1240 C.3    73  VAL73       0.0019
     22  CG2       29.7660   12.5720   31.1840 C.3    73  VAL73       0.0019
     23  N         26.4310   16.8400   35.4660 N.3    76  MET76      -0.1231
     24  CA        27.3910   16.9580   36.5630 C.3    76  MET76       0.1687
     25  C         27.1890   18.1320   37.5170 C.2    76  MET76       0.2434
     26  O         27.2860   17.9690   38.7300 O.2    76  MET76      -0.2733
     27  CB        28.8110   16.9890   36.0040 C.3    76  MET76       0.0400
     28  CG        29.1530   15.7470   35.1960 C.3    76  MET76       0.0596
     29  SD        30.9250   15.5180   34.9010 S.3    76  MET76      -0.1393
     30  CE        31.5780   17.1280   35.4240 C.3    76  MET76       0.0692
     31  N         26.9160   19.3310   36.9900 N.am   77  PRO77      -0.2729
     32  CA        26.7180   20.4650   37.8940 C.3    77  PRO77       0.1401
     33  C         25.6750   20.1360   38.9650 C.2    77  PRO77       0.2269
     34  O         25.8660   20.4170   40.1570 O.2    77  PRO77      -0.2865
     35  CB        26.2490   21.5740   36.9540 C.3    77  PRO77       0.0296
     36  CG        26.9530   21.2530   35.6800 C.3    77  PRO77       0.0237
     37  CD        26.7680   19.7500   35.5840 C.3    77  PRO77       0.0939
     38  N         44.2960   20.3380   38.5730 N.3    99  LYS99      -0.1245
     39  CA        45.0910   19.8730   37.4480 C.3    99  LYS99       0.1561
     40  C         46.0730   18.8420   38.0010 C.2    99  LYS99       0.2260
     41  O         46.3300   17.8130   37.3690 O.2    99  LYS99      -0.2867
     42  CB        45.8630   21.0400   36.8140 C.3    99  LYS99       0.0271
     43  CG        45.0210   21.9710   35.9420 C.3    99  LYS99       0.0035
     44  CD        44.6470   21.2940   34.6270 C.3    99  LYS99       0.0206
     45  CE        43.9940   22.2630   33.6440 C.3    99  LYS99       0.1093
     46  NZ        43.8120   21.6200   32.3040 N.3    99  LYS99      -0.1314
     47  N         39.7300   14.9580   29.6490 N.3   127  LYS127     -0.1245
     48  CA        38.6550   15.9240   29.5120 C.3   127  LYS127      0.1561
     49  C         37.6200   15.7270   30.6000 C.2   127  LYS127      0.2260
     50  O         37.0720   16.6990   31.1250 O.2   127  LYS127     -0.2867
     51  CB        37.9780   15.7890   28.1490 C.3   127  LYS127      0.0271
     52  CG        38.8540   16.1880   26.9830 C.3   127  LYS127      0.0035
     53  CD        38.1240   15.9890   25.6630 C.3   127  LYS127      0.0206
     54  CE        36.8040   16.7730   25.6080 C.3   127  LYS127      0.1093
     55  NZ        36.1320   16.5710   24.2960 N.3   127  LYS127     -0.1314
     56  N         38.6800   17.2090   33.7200 N.3   130  ALA130     -0.1231
     57  CA        38.6930   18.6640   33.5710 C.3   130  ALA130      0.1694
     58  C         37.2890   19.2080   33.7860 C.2   130  ALA130      0.2592
     59  O         37.0920   20.2800   34.3630 O.2   130  ALA130     -0.2718
     60  CB        39.2080   19.0430   32.1840 C.3   130  ALA130      0.0304
     61  N         36.3110   18.4440   33.3320 N.am  131  SER131     -0.1952
     62  CA        34.9190   18.8150   33.4690 C.3   131  SER131      0.1924
     63  C         34.4690   18.7230   34.9360 C.2   131  SER131      0.2314
     64  O         33.7080   19.5680   35.4130 O.2   131  SER131     -0.2863
     65  CB        34.1030   17.9130   32.5260 C.3   131  SER131      0.2116
     66  OG        32.7680   17.7370   32.9420 O.3   131  SER131     -0.2180
     67  N         36.5450   18.9900   37.4460 N.3   133  SER133     -0.1202
     68  CA        37.3170   20.0600   38.0730 C.3   133  SER133      0.2020
     69  C         36.6430   21.4250   37.9120 C.2   133  SER133      0.2619
     70  O         36.6200   22.2370   38.8440 O.2   133  SER133     -0.2717
     71  CB        38.7330   20.1220   37.4790 C.3   133  SER133      0.2103
     72  OG        39.4770   18.9590   37.8020 O.3   133  SER133     -0.2182
     73  N         36.1010   21.6870   36.7280 N.am  134  THR134     -0.1938
     74  CA        35.4210   22.9560   36.4870 C.3   134  THR134      0.2028
     75  C         34.1710   23.0920   37.3680 C.2   134  THR134      0.2642
     76  O         33.8930   24.1620   37.9200 O.2   134  THR134     -0.2714
     77  CB        35.0250   23.0860   35.0060 C.3   134  THR134      0.1808
     78  OG1       36.2150   23.1900   34.2200 O.3   134  THR134     -0.2208
     79  CG2       34.1600   24.3180   34.7800 C.3   134  THR134      0.0379
     80  N         33.4210   22.0070   37.5050 N.am  135  VAL135     -0.1977
     81  CA        32.2310   22.0390   38.3350 C.3   135  VAL135      0.1596
     82  C         32.5760   22.3310   39.7990 C.2   135  VAL135      0.2287
     83  O         31.9460   23.1850   40.4330 O.2   135  VAL135     -0.2864
     84  CB        31.4860   20.7110   38.2650 C.3   135  VAL135      0.0276
     85  CG1       30.2710   20.7550   39.1550 C.3   135  VAL135      0.0022
     86  CG2       31.0820   20.4330   36.8270 C.3   135  VAL135      0.0022
@<TRIPOS>BOND
     1    55    54    1
     2    11    10    2
     3    10     9    1
     4     6     5    1
     5     4     3    2
     6    54    53    1
     7    53    52    1
     8     5     7    1
     9     5     2    1
    10     3     8   am
    11     3     2    1
    12     9     8    1
    13     9    12    1
    14     2     1    1
    15    52    51    1
    16    12    13    1
    17    51    48    1
    18    13    14    1
    19    13    15    1
    20    48    47    1
    21    48    49    1
    22    49    50    2
    23    21    20    1
    24    22    20    1
    25    20    17    1
    26    19    18    2
    27    60    57    1
    28    18    17    1
    29    46    45    1
    30    65    66    1
    31    65    62    1
    32    17    16    1
    33    61    62    1
    34    61    58   am
    35    62    63    1
    36    57    56    1
    37    57    58    1
    38    45    44    1
    39    58    59    2
    40    78    77    1
    41    44    43    1
    42    79    77    1
    43    29    28    1
    44    29    30    1
    45    63    64    2
    46    77    74    1
    47    28    27    1
    48    23    24    1
    49    37    36    1
    50    37    31    1
    51    36    35    1
    52    43    42    1
    53    27    24    1
    54    74    73    1
    55    74    75    1
    56    24    25    1
    57    73    69   am
    58    42    39    1
    59    86    84    1
    60    35    32    1
    61    31    25   am
    62    31    32    1
    63    75    80   am
    64    75    76    2
    65    41    40    2
    66    67    68    1
    67    39    40    1
    68    39    38    1
    69    71    72    1
    70    71    68    1
    71    80    81    1
    72    25    26    2
    73    32    33    1
    74    69    68    1
    75    69    70    2
    76    84    81    1
    77    84    85    1
    78    81    82    1
    79    33    34    2
    80    82    83    2
