@<TRIPOS>MOLECULE
tmp/3icaB00.pdb
 114 111 0 0 0
SMALL
GASTEIGER

@<TRIPOS>ATOM
      1  N         34.7180   17.6060  103.1180 N.3     2  ALA2       -0.1245
      2  CA        33.6260   16.6620  102.9970 C.3     2  ALA2        0.1562
      3  C         32.2940   17.3430  102.6880 C.2     2  ALA2        0.2260
      4  O         31.5070   16.8040  101.9400 O.2     2  ALA2       -0.2867
      5  CB        33.5320   15.7880  104.2180 C.3     2  ALA2        0.0290
      6  N         32.4020   18.6570   98.7620 N.3     5  ARG5       -0.1231
      7  CA        32.2960   17.4990   97.8870 C.3     5  ARG5        0.1694
      8  C         30.8940   16.8630   97.9240 C.2     5  ARG5        0.2592
      9  O         30.3690   16.4650   96.8760 O.2     5  ARG5       -0.2718
     10  CB        33.3870   16.4840   98.2350 C.3     5  ARG5        0.0321
     11  CG        34.7280   16.7830   97.5710 C.3     5  ARG5        0.0489
     12  CD        35.8800   16.1720   98.3470 C.3     5  ARG5        0.2205
     13  NE        36.7210   15.2960   97.5190 N.pl3   5  ARG5       -0.0865
     14  CZ        37.7350   15.7000   96.7430 C.cat   5  ARG5        0.5346
     15  NH1       38.0780   16.9960   96.6510 N.pl3   5  ARG5        0.1354
     16  NH2       38.4130   14.7940   96.0440 N.pl3   5  ARG5        0.1354
     17  N         30.2730   16.8280   99.1080 N.am    6  TYR6       -0.1976
     18  CA        28.9370   16.2570   99.2510 C.3     6  TYR6        0.1639
     19  C         27.8960   17.0550   98.4850 C.2     6  TYR6        0.2290
     20  O         26.9600   16.4870   97.9400 O.2     6  TYR6       -0.2864
     21  CB        28.5160   16.0880  100.7080 C.3     6  TYR6        0.0560
     22  CG        27.1110   15.5460  100.8250 C.ar    6  TYR6       -0.0198
     23  CD1       26.8690   14.1900  100.6780 C.ar    6  TYR6       -0.0009
     24  CD2       26.0120   16.4000  101.0350 C.ar    6  TYR6       -0.0009
     25  CE1       25.5920   13.6720  100.7520 C.ar    6  TYR6        0.0417
     26  CE2       24.7320   15.8980  101.1080 C.ar    6  TYR6        0.0417
     27  CZ        24.5280   14.5190  100.9620 C.ar    6  TYR6        0.1957
     28  OH        23.2530   13.9700  101.0290 O.3     6  TYR6       -0.2866
     29  N         28.2530   15.9460   94.9480 N.3     9  GLN9       -0.1245
     30  CA        27.6960   14.6130   94.8960 C.3     9  GLN9        0.1566
     31  C         26.1850   14.6060   94.6980 C.2     9  GLN9        0.2260
     32  O         25.6670   13.8710   93.8610 O.2     9  GLN9       -0.2867
     33  CB        27.9840   13.9120   96.2020 C.3     9  GLN9        0.0367
     34  CG        28.9270   12.7540   96.1490 C.3     9  GLN9        0.0905
     35  CD        28.9820   12.0390   97.5120 C.2     9  GLN9        0.2608
     36  OE1       30.0540   11.9430   98.0970 O.2     9  GLN9       -0.2717
     37  NE2       27.8220   11.5560   98.0230 N.am    9  GLN9       -0.0878
     38  N         19.4600    5.0300   93.8960 N.3    23  GLU23      -0.1245
     39  CA        20.7110    5.0020   94.6800 C.3    23  GLU23       0.1567
     40  C         20.7450    3.7710   95.5480 C.2    23  GLU23       0.2260
     41  O         19.7510    3.3900   96.1550 O.2    23  GLU23      -0.2867
     42  CB        20.9260    6.2500   95.5580 C.3    23  GLU23       0.0388
     43  CG        22.3670    6.3430   96.0860 C.3    23  GLU23       0.1160
     44  CD        22.6960    7.6240   96.8740 C.2    23  GLU23       0.3649
     45  OE1       23.8800    7.7630   97.2910 O.co2  23  GLU23      -0.2457
     46  OE2       21.7980    8.4920   97.0810 O.co2  23  GLU23      -0.2457
     47  N         23.5640    1.3400   98.2670 N.3    25  LEU25      -0.1245
     48  CA        24.6600    1.4600   99.2170 C.3    25  LEU25       0.1561
     49  C         25.0060    0.1070   99.7770 C.2    25  LEU25       0.2260
     50  O         24.2190   -0.5230  100.4600 O.2    25  LEU25      -0.2867
     51  CB        24.3320    2.4390  100.3500 C.3    25  LEU25       0.0270
     52  CG        25.5020    2.9620  101.2330 C.3    25  LEU25       0.0019
     53  CD1       26.7440    3.3750  100.4390 C.3    25  LEU25       0.0001
     54  CD2       25.0620    4.1080  102.1490 C.3    25  LEU25       0.0001
     55  N         27.7850    5.7820   95.6920 N.3    85  TRP85      -0.1227
     56  CA        28.9690    6.5450   96.0380 C.3    85  TRP85       0.1737
     57  C         29.6230    5.7740   97.1740 C.2    85  TRP85       0.2596
     58  O         28.9580    5.3700   98.1400 O.2    85  TRP85      -0.2718
     59  CB        28.5800    7.9200   96.5420 C.3    85  TRP85       0.0564
     60  CG        27.8760    8.8030   95.5600 C.ar   85  TRP85       0.0003
     61  CD1       26.5430    9.0030   95.4760 C.ar   85  TRP85       0.0946
     62  CD2       28.4770    9.6400   94.5670 C.ar   85  TRP85       0.0152
     63  NE1       26.2580    9.8940   94.4760 N.ar   85  TRP85      -0.2442
     64  CE2       27.4240   10.3070   93.8980 C.ar   85  TRP85       0.0810
     65  CE3       29.8010    9.8890   94.1740 C.ar   85  TRP85       0.0012
     66  CZ2       27.6400   11.2350   92.8650 C.ar   85  TRP85       0.0191
     67  CZ3       30.0320   10.8100   93.1200 C.ar   85  TRP85       0.0001
     68  CH2       28.9480   11.4730   92.4850 C.ar   85  TRP85       0.0015
     69  N         30.9160    5.5470   97.0700 N.am   86  GLY86      -0.1942
     70  CA        31.5520    4.8120   98.1350 C.3    86  GLY86       0.2014
     71  C         33.0280    4.7800   97.9740 C.2    86  GLY86       0.2638
     72  O         33.5530    5.0370   96.8950 O.2    86  GLY86      -0.2714
     73  N         33.6900    4.4600   99.0670 N.am   87  LYS87      -0.1977
     74  CA        35.1100    4.4780   99.1010 C.3    87  LYS87       0.1596
     75  C         35.6180    3.0580   98.7680 C.2    87  LYS87       0.2287
     76  O         34.9130    2.0730   99.0210 O.2    87  LYS87      -0.2864
     77  CB        35.5280    4.9710  100.4950 C.3    87  LYS87       0.0298
     78  CG        36.9170    5.5580  100.5680 C.3    87  LYS87       0.0038
     79  CD        37.0860    6.4230  101.7920 C.3    87  LYS87       0.0206
     80  CE        36.9290    7.8460  101.3700 C.3    87  LYS87       0.1093
     81  NZ        36.6010    8.6390  102.5370 N.3    87  LYS87      -0.1314
     82  N         37.7340    7.7140   96.6190 N.3   109  ASP109     -0.1225
     83  CA        36.3090    7.8370   96.4060 C.3   109  ASP109      0.1805
     84  C         35.8480    7.5170   94.9930 C.2   109  ASP109      0.2597
     85  O         36.4450    7.9560   94.0090 O.2   109  ASP109     -0.2718
     86  CB        35.8410    9.2120   96.8520 C.3   109  ASP109      0.1424
     87  CG        35.8900    9.3410   98.3410 C.2   109  ASP109      0.3668
     88  OD1       35.2120    8.5420   99.0270 O.co2 109  ASP109     -0.2456
     89  OD2       36.6340   10.1950   98.8430 O.co2 109  ASP109     -0.2456
     90  N         34.7830    6.7260   94.9010 N.am  110  ARG110     -0.1979
     91  CA        34.2870    6.3160   93.6120 C.3   110  ARG110      0.1597
     92  C         32.7930    6.5270   93.4190 C.2   110  ARG110      0.2287
     93  O         32.0220    6.5530   94.3860 O.2   110  ARG110     -0.2864
     94  CB        34.7040    4.8840   93.3580 C.3   110  ARG110      0.0334
     95  CG        36.2000    4.8060   93.3250 C.3   110  ARG110      0.0492
     96  CD        36.6770    3.6000   92.6520 C.3   110  ARG110      0.2205
     97  NE        38.0960    3.3990   92.9150 N.pl3 110  ARG110     -0.0865
     98  CZ        38.7010    2.2490   92.6750 C.cat 110  ARG110      0.5346
     99  NH1       39.9780    2.0970   92.9420 N.pl3 110  ARG110      0.1354
    100  NH2       38.0020    1.2340   92.1810 N.pl3 110  ARG110      0.1354
    101  N         36.1710    9.9550   91.7560 N.3   199  TRP199     -0.1241
    102  CA        35.6010   11.2250   92.2090 C.3   199  TRP199      0.1605
    103  C         36.6730   12.2600   92.4820 C.2   199  TRP199      0.2264
    104  O         36.4840   13.4260   92.2100 O.2   199  TRP199     -0.2867
    105  CB        34.7030   11.0120   93.4190 C.3   199  TRP199      0.0550
    106  CG        33.8530   12.2000   93.8820 C.ar  199  TRP199      0.0003
    107  CD1       33.8250   12.7310   95.1450 C.ar  199  TRP199      0.0946
    108  CD2       32.8780   12.9460   93.1160 C.ar  199  TRP199      0.0152
    109  NE1       32.9100   13.7510   95.2120 N.ar  199  TRP199     -0.2442
    110  CE2       32.3240   13.9150   93.9820 C.ar  199  TRP199      0.0810
    111  CE3       32.4300   12.8940   91.7870 C.ar  199  TRP199      0.0012
    112  CZ2       31.3340   14.8180   93.5660 C.ar  199  TRP199      0.0191
    113  CZ3       31.4600   13.7850   91.3710 C.ar  199  TRP199      0.0001
    114  CH2       30.9250   14.7420   92.2550 C.ar  199  TRP199      0.0015
@<TRIPOS>BOND
     1   113   111   ar
     2   113   114   ar
     3   101   102    1
     4   111   108   ar
     5   100    98    1
     6   102   103    1
     7   102   105    1
     8   104   103    2
     9   114   112   ar
    10    68    66   ar
    11    68    67   ar
    12    96    97    1
    13    96    95    1
    14    98    97    2
    15    98    99    1
    16    66    64   ar
    17   108   106   ar
    18   108   110   ar
    19    67    65   ar
    20    95    94    1
    21    94    91    1
    22   105   106    1
    23    92    91    1
    24    92    93    2
    25   112   110   ar
    26    91    90    1
    27    32    31    2
    28   106   107   ar
    29    38    39    1
    30    64    63   ar
    31    64    62   ar
    32   110   109   ar
    33    85    84    2
    34    65    62   ar
    35    63    61   ar
    36    62    60   ar
    37    39    40    1
    38    39    42    1
    39    31    30    1
    40    30    29    1
    41    30    33    1
    42    90    84   am
    43    84    83    1
    44   107   109   ar
    45    61    60   ar
    46    40    41    2
    47    42    43    1
    48    60    59    1
    49    55    56    1
    50    56    59    1
    51    56    57    1
    52    16    14    1
    53    43    44    1
    54    34    33    1
    55    34    35    1
    56    83    82    1
    57    83    86    1
    58    15    14    1
    59    14    13    2
    60    86    87    1
    61    44    46   ar
    62    44    45   ar
    63     9     8    2
    64    72    71    2
    65    69    57   am
    66    69    70    1
    67    57    58    2
    68    35    37   am
    69    35    36    2
    70    13    12    1
    71    11    10    1
    72    11    12    1
    73     7     8    1
    74     7    10    1
    75     7     6    1
    76     8    17   am
    77    20    19    2
    78    71    70    1
    79    71    73   am
    80    47    48    1
    81    87    89   ar
    82    87    88   ar
    83    19    18    1
    84    75    76    2
    85    75    74    1
    86    73    74    1
    87    74    77    1
    88    17    18    1
    89    48    49    1
    90    48    51    1
    91    18    21    1
    92    49    50    2
    93    51    52    1
    94    53    52    1
    95    77    78    1
    96    78    79    1
    97    23    25   ar
    98    23    22   ar
    99    21    22    1
   100    25    27   ar
   101    22    24   ar
   102    27    28    1
   103    27    26   ar
   104    24    26   ar
   105    52    54    1
   106    80    79    1
   107    80    81    1
   108     4     3    2
   109     3     2    1
   110     2     1    1
   111     2     5    1
