@<TRIPOS>MOLECULE
tmp/3iciA00.pdb
 123 117 0 0 0
SMALL
GASTEIGER

@<TRIPOS>ATOM
      1  N        -15.8790    3.0370  -32.4430 N.3     7  GLU7       -0.1231
      2  CA       -16.8210    2.9540  -31.3010 C.3     7  GLU7        0.1699
      3  C        -16.9200    1.5350  -30.7320 C.2     7  GLU7        0.2592
      4  O        -17.0210    1.3480  -29.5150 O.2     7  GLU7       -0.2718
      5  CB       -18.2180    3.4980  -31.6820 C.3     7  GLU7        0.0402
      6  CG       -19.3530    3.2510  -30.6680 C.3     7  GLU7        0.1161
      7  CD       -19.4370    4.2710  -29.5300 C.2     7  GLU7        0.3649
      8  OE1      -20.5350    4.4300  -28.9420 O.co2   7  GLU7       -0.2457
      9  OE2      -18.4200    4.9170  -29.2120 O.co2   7  GLU7       -0.2457
     10  N        -16.8850    0.5430  -31.6170 N.am    8  LYS8       -0.1980
     11  CA       -16.8190   -0.8540  -31.1970 C.3     8  LYS8        0.1596
     12  C        -15.4190   -1.2110  -30.6780 C.2     8  LYS8        0.2287
     13  O        -14.5200   -0.3600  -30.5760 O.2     8  LYS8       -0.2864
     14  CB       -17.2270   -1.7920  -32.3460 C.3     8  LYS8        0.0298
     15  CG       -18.5490   -1.4040  -33.0160 C.3     8  LYS8        0.0038
     16  CD       -19.3970   -2.6110  -33.3610 C.3     8  LYS8        0.0206
     17  CE       -20.8490   -2.2080  -33.5810 C.3     8  LYS8        0.1093
     18  NZ       -21.7120   -3.4200  -33.6270 N.3     8  LYS8       -0.1314
     19  N        -12.3520    0.8140  -28.3300 N.3     9  LYS9       -0.1231
     20  CA       -12.9820    1.4950  -27.1970 C.3     9  LYS9        0.1693
     21  C        -12.9130    0.6440  -25.9260 C.2     9  LYS9        0.2593
     22  O        -13.4050   -0.4930  -25.8770 O.2     9  LYS9       -0.2718
     23  CB       -14.4280    1.8650  -27.5080 C.3     9  LYS9        0.0285
     24  CG       -15.1500    2.5380  -26.3730 C.3     9  LYS9        0.0035
     25  CD       -16.5510    2.9390  -26.7860 C.3     9  LYS9        0.0206
     26  CE       -17.3980    3.2270  -25.5650 C.3     9  LYS9        0.1093
     27  NZ       -18.8340    3.3590  -25.8960 N.3     9  LYS9       -0.1314
     28  N        -12.3180    1.2210  -24.8950 N.am   10  GLY10      -0.1943
     29  CA       -12.0950    0.4980  -23.6460 C.3    10  GLY10       0.1998
     30  C        -13.0260    0.8460  -22.4960 C.2    10  GLY10       0.2481
     31  O        -14.1670    1.3360  -22.6990 O.2    10  GLY10      -0.2729
     32  N        -12.5500    0.5930  -21.2630 N.am   11  PRO11      -0.2715
     33  CA       -13.3530    0.7410  -20.0530 C.3    11  PRO11       0.1536
     34  C        -13.6500    2.2050  -19.7460 C.2    11  PRO11       0.2598
     35  O        -12.9740    3.1020  -20.2630 O.2    11  PRO11      -0.2715
     36  CB       -12.4630    0.1180  -18.9710 C.3    11  PRO11       0.0310
     37  CG       -11.0580    0.3940  -19.4610 C.3    11  PRO11       0.0237
     38  CD       -11.1560    0.1940  -20.9550 C.3    11  PRO11       0.0939
     39  N        -14.6800    2.4270  -18.9340 N.am   12  LYS12      -0.1978
     40  CA       -15.0740    3.7760  -18.5780 C.3    12  LYS12       0.1596
     41  C        -14.3950    4.2220  -17.2980 C.2    12  LYS12       0.2287
     42  O        -14.3750    3.4940  -16.2970 O.2    12  LYS12      -0.2864
     43  CB       -16.5930    3.8870  -18.4390 C.3    12  LYS12       0.0298
     44  CG       -17.3130    4.1130  -19.7770 C.3    12  LYS12       0.0038
     45  CD       -18.8170    4.1610  -19.5580 C.3    12  LYS12       0.0206
     46  CE       -19.5570    4.6680  -20.7760 C.3    12  LYS12       0.1093
     47  NZ       -19.6020    6.1610  -20.8220 N.3    12  LYS12      -0.1314
     48  N        -14.4240    6.2200  -14.0690 N.3    14  THR14      -0.1218
     49  CA       -15.5440    6.5470  -13.1530 C.3    14  THR14       0.1862
     50  C        -15.1380    7.4670  -12.0020 C.2    14  THR14       0.2287
     51  O        -15.9930    7.9680  -11.2490 O.2    14  THR14      -0.2866
     52  CB       -16.1460    5.2610  -12.5240 C.3    14  THR14       0.1770
     53  OG1      -15.1300    4.6340  -11.7120 O.3    14  THR14      -0.2211
     54  CG2      -16.6480    4.2670  -13.5940 C.3    14  THR14       0.0375
     55  N        -16.2940    0.6960  -12.5350 N.3    38  LYS38      -0.1231
     56  CA       -17.3480   -0.2840  -12.8790 C.3    38  LYS38       0.1693
     57  C        -16.7820   -1.6370  -13.3090 C.2    38  LYS38       0.2592
     58  O        -17.5000   -2.6500  -13.3110 O.2    38  LYS38      -0.2718
     59  CB       -18.2680    0.2800  -13.9530 C.3    38  LYS38       0.0285
     60  CG       -19.2240    1.3160  -13.4330 C.3    38  LYS38       0.0035
     61  CD       -20.3980    0.6980  -12.6940 C.3    38  LYS38       0.0206
     62  CE       -21.3150    1.7830  -12.1680 C.3    38  LYS38       0.1093
     63  NZ       -22.4230    1.1810  -11.3940 N.3    38  LYS38      -0.1314
     64  N        -15.5070   -1.6690  -13.6830 N.am   39  THR39      -0.1953
     65  CA       -14.8700   -2.8820  -14.1830 C.3    39  THR39       0.1897
     66  C        -14.2080   -3.6670  -13.0510 C.2    39  THR39       0.2313
     67  O        -14.3180   -4.8990  -12.9800 O.2    39  THR39      -0.2863
     68  CB       -13.8140   -2.5320  -15.2830 C.3    39  THR39       0.1794
     69  OG1      -14.4350   -1.8000  -16.3500 O.3    39  THR39      -0.2208
     70  CG2      -13.1360   -3.7780  -15.8280 C.3    39  THR39       0.0378
     71  N        -10.6340   -9.4550  -11.0120 N.3    98  ASN98      -0.1240
     72  CA       -10.7680  -10.0680  -12.3460 C.3    98  ASN98       0.1653
     73  C         -9.5770   -9.6400  -13.1550 C.2    98  ASN98       0.2266
     74  O         -8.7890   -8.8130  -12.6850 O.2    98  ASN98      -0.2867
     75  CB       -12.0940   -9.6740  -13.0390 C.3    98  ASN98       0.1155
     76  CG       -12.2260   -8.1700  -13.2520 C.2    98  ASN98       0.2627
     77  OD1      -11.3660   -7.5470  -13.8630 O.2    98  ASN98      -0.2716
     78  ND2      -13.2820   -7.5890  -12.7260 N.am   98  ASN98      -0.0877
     79  N        -10.0450   -8.6180  -16.4270 N.3   100  LYS100     -0.1231
     80  CA       -10.7610   -8.0850  -17.5890 C.3   100  LYS100      0.1693
     81  C         -9.8380   -7.2170  -18.4350 C.2   100  LYS100      0.2591
     82  O         -9.8640   -7.2650  -19.6830 O.2   100  LYS100     -0.2718
     83  CB       -11.9790   -7.2930  -17.1410 C.3   100  LYS100      0.0285
     84  CG       -13.1510   -8.2050  -16.7000 C.3   100  LYS100      0.0035
     85  CD       -14.3360   -7.3570  -16.2850 C.3   100  LYS100      0.0206
     86  CE       -15.5820   -8.2390  -16.1380 C.3   100  LYS100      0.1093
     87  NZ       -16.7960   -7.4320  -15.8470 N.3   100  LYS100     -0.1314
     88  N         -8.9920   -6.4510  -17.7530 N.am  101  LEU101     -0.1980
     89  CA        -8.1770   -5.4560  -18.4450 C.3   101  LEU101      0.1596
     90  C         -6.7280   -5.8930  -18.5680 C.2   101  LEU101      0.2287
     91  O         -6.2230   -6.6370  -17.7350 O.2   101  LEU101     -0.2864
     92  CB        -8.2800   -4.1070  -17.7460 C.3   101  LEU101      0.0297
     93  CG        -9.7050   -3.5300  -17.6190 C.3   101  LEU101      0.0022
     94  CD1       -9.6490   -2.1800  -16.9270 C.3   101  LEU101      0.0001
     95  CD2      -10.3950   -3.4320  -18.9630 C.3   101  LEU101      0.0001
     96  N         -2.1910   -2.5680  -21.6070 N.3   104  TYR104     -0.1241
     97  CA        -2.2670   -2.2820  -23.0500 C.3   104  TYR104      0.1605
     98  C         -1.1180   -1.4820  -23.6340 C.2   104  TYR104      0.2264
     99  O         -0.8710   -1.5270  -24.8380 O.2   104  TYR104     -0.2867
    100  CB        -3.5430   -1.5310  -23.3690 C.3   104  TYR104      0.0534
    101  CG        -4.7680   -2.3210  -23.0910 C.ar  104  TYR104     -0.0201
    102  CD1       -5.1590   -3.3680  -23.9140 C.ar  104  TYR104     -0.0009
    103  CD2       -5.5490   -2.0140  -21.9790 C.ar  104  TYR104     -0.0009
    104  CE1       -6.3130   -4.0950  -23.6320 C.ar  104  TYR104      0.0417
    105  CE2       -6.6750   -2.7100  -21.7080 C.ar  104  TYR104      0.0417
    106  CZ        -7.0580   -3.7340  -22.5120 C.ar  104  TYR104      0.1957
    107  OH        -8.2160   -4.4080  -22.1720 O.3   104  TYR104     -0.2866
    108  N        -18.9730    9.4370  -16.3030 N.3   181  PRO181     -0.2116
    109  CA       -17.9850    8.4190  -16.7120 C.3   181  PRO181      0.1372
    110  C        -17.7960    8.3300  -18.2190 C.2   181  PRO181      0.2244
    111  O        -18.7690    8.4230  -18.9880 O.2   181  PRO181     -0.2868
    112  CB       -18.5370    7.1210  -16.1490 C.3   181  PRO181      0.0268
    113  CG       -19.3530    7.5550  -14.9210 C.3   181  PRO181      0.0207
    114  CD       -19.8530    8.9640  -15.2200 C.3   181  PRO181      0.0892
    115  N         -8.0160    1.4720  -25.6080 N.3   186  LYS186     -0.1245
    116  CA        -7.2750    0.3110  -25.0870 C.3   186  LYS186      0.1561
    117  C         -5.8910    0.2750  -25.6840 C.2   186  LYS186      0.2260
    118  O         -5.5640   -0.6120  -26.4910 O.2   186  LYS186     -0.2867
    119  CB        -8.0090   -0.9740  -25.4490 C.3   186  LYS186      0.0271
    120  CG        -9.2010   -1.2690  -24.6010 C.3   186  LYS186      0.0035
    121  CD       -10.1850   -2.1410  -25.3530 C.3   186  LYS186      0.0206
    122  CE        -9.6620   -3.5430  -25.5300 C.3   186  LYS186      0.1093
    123  NZ       -10.7740   -4.4740  -25.9680 N.3   186  LYS186     -0.1314
@<TRIPOS>BOND
     1    18    17    1
     2    17    16    1
     3    16    15    1
     4    15    14    1
     5     1     2    1
     6    14    11    1
     7     5     2    1
     8     5     6    1
     9    10    11    1
    10    10     3   am
    11     2     3    1
    12    11    12    1
    13     3     4    2
    14    12    13    2
    15     6     7    1
    16     7     9   ar
    17     7     8   ar
    18    19    20    1
    19    23    20    1
    20    23    24    1
    21    20    21    1
    22    25    24    1
    23    25    26    1
    24   118   117    2
    25   123   122    1
    26    21    22    2
    27    21    28   am
    28    27    26    1
    29   117   116    1
    30   115   116    1
    31   122   121    1
    32   119   116    1
    33   119   120    1
    34   121   120    1
    35    28    29    1
    36    99    98    2
    37   102   104   ar
    38   102   101   ar
    39    29    30    1
    40    98    97    1
    41   104   106   ar
    42   100   101    1
    43   100    97    1
    44   101   103   ar
    45    97    96    1
    46    31    30    2
    47   106   107    1
    48   106   105   ar
    49    30    32   am
    50   103   105   ar
    51    32    38    1
    52    32    33    1
    53    38    37    1
    54    47    46    1
    55    46    45    1
    56    35    34    2
    57    33    34    1
    58    33    36    1
    59    44    45    1
    60    44    43    1
    61    34    39   am
    62    82    81    2
    63    37    36    1
    64   111   110    2
    65    95    93    1
    66    39    40    1
    67    40    43    1
    68    40    41    1
    69    90    89    1
    70    90    91    2
    71    89    88    1
    72    89    92    1
    73    81    88   am
    74    81    80    1
    75   110   109    1
    76    92    93    1
    77    93    94    1
    78    80    83    1
    79    80    79    1
    80    41    42    2
    81    83    84    1
    82   109   108    1
    83   109   112    1
    84    84    85    1
    85    69    68    1
    86   108   114    1
    87    85    86    1
    88   112   113    1
    89    86    87    1
    90    70    68    1
    91    68    65    1
    92   114   113    1
    93    65    64    1
    94    65    66    1
    95    48    49    1
    96    59    60    1
    97    59    56    1
    98    77    76    2
    99    64    57   am
   100    54    52    1
   101    60    61    1
   102    58    57    2
   103    57    56    1
   104    76    75    1
   105    76    78   am
   106    73    74    2
   107    73    72    1
   108    49    52    1
   109    49    50    1
   110    66    67    2
   111    75    72    1
   112    56    55    1
   113    61    62    1
   114    52    53    1
   115    72    71    1
   116    62    63    1
   117    50    51    2
