@<TRIPOS>MOLECULE
tmp/3ickA00.pdb
 174 162 0 0 0
SMALL
GASTEIGER

@<TRIPOS>ATOM
      1  N         14.5360   17.2210  158.3520 N.3    94  TYR94      -0.1227
      2  CA        14.2610   18.1160  157.2400 C.3    94  TYR94       0.1736
      3  C         12.7680   18.2210  156.9720 C.2    94  TYR94       0.2595
      4  O         12.2600   19.3010  156.6550 O.2    94  TYR94      -0.2718
      5  CB        15.0800   17.7150  155.9900 C.3    94  TYR94       0.0548
      6  CG        16.3790   18.4980  155.9340 C.ar   94  TYR94      -0.0200
      7  CD1       17.6160   17.8530  156.0400 C.ar   94  TYR94      -0.0009
      8  CD2       16.3590   19.9160  155.8050 C.ar   94  TYR94      -0.0009
      9  CE1       18.8120   18.5880  156.0030 C.ar   94  TYR94       0.0417
     10  CE2       17.5350   20.6670  155.7520 C.ar   94  TYR94       0.0417
     11  CZ        18.7510   19.9870  155.8740 C.ar   94  TYR94       0.1957
     12  OH        19.9130   20.7190  155.8480 O.3    94  TYR94      -0.2866
     13  N         12.0470   17.1150  157.1660 N.am   95  LEU95      -0.1980
     14  CA        10.5970   17.1160  156.9090 C.3    95  LEU95       0.1596
     15  C          9.8610   17.8920  158.0020 C.2    95  LEU95       0.2287
     16  O          8.8140   18.5150  157.7120 O.2    95  LEU95      -0.2864
     17  CB        10.0580   15.6980  156.8180 C.3    95  LEU95       0.0297
     18  CG         9.9430   15.0050  155.4600 C.3    95  LEU95       0.0022
     19  CD1       10.7950   15.5980  154.2730 C.3    95  LEU95       0.0001
     20  CD2       10.0740   13.4800  155.6300 C.3    95  LEU95       0.0001
     21  N         10.5520   21.4610  156.9940 N.3    98  ASP98      -0.1225
     22  CA         9.9360   21.6850  155.6770 C.3    98  ASP98       0.1805
     23  C          8.4130   21.8460  155.7760 C.2    98  ASP98       0.2597
     24  O          7.8160   22.7120  155.1170 O.2    98  ASP98      -0.2718
     25  CB        10.3230   20.5690  154.6760 C.3    98  ASP98       0.1424
     26  CG         9.6200   20.7180  153.3160 C.2    98  ASP98       0.3668
     27  OD1        9.9980   21.5740  152.4590 O.co2  98  ASP98      -0.2456
     28  OD2        8.6590   19.9670  153.0990 O.co2  98  ASP98      -0.2456
     29  N          7.7850   21.0150  156.6040 N.am   99  ASP99      -0.1974
     30  CA         6.3450   21.0850  156.7510 C.3    99  ASP99       0.1709
     31  C          5.9220   22.4020  157.3360 C.2    99  ASP99       0.2293
     32  O          4.8670   22.9210  156.9640 O.2    99  ASP99      -0.2864
     33  CB         5.7940   19.8950  157.5190 C.3    99  ASP99       0.1436
     34  CG         5.7300   18.6870  156.6550 C.2    99  ASP99       0.3671
     35  OD1        5.6800   18.8820  155.4130 O.co2  99  ASP99      -0.2456
     36  OD2        5.7730   17.5420  157.1590 O.co2  99  ASP99      -0.2456
     37  N          6.5970   25.0820  154.5000 N.3   102  ASP102     -0.1239
     38  CA         5.7450   24.8990  153.3320 C.3   102  ASP102      0.1674
     39  C          4.2600   25.0800  153.6800 C.2   102  ASP102      0.2266
     40  O          3.4270   25.2180  152.7710 O.2   102  ASP102     -0.2867
     41  CB         6.0100   23.5350  152.6810 C.3   102  ASP102      0.1410
     42  CG         7.3290   23.4990  151.8940 C.2   102  ASP102      0.3668
     43  OD1        8.0790   24.5090  151.8920 O.co2 102  ASP102     -0.2456
     44  OD2        7.6130   22.4610  151.2460 O.co2 102  ASP102     -0.2456
     45  N          2.4090   22.8410  155.3140 N.3   104  SER104     -0.1217
     46  CA         1.7270   21.5600  155.0850 C.3   104  SER104      0.1889
     47  C          0.8030   21.0960  156.2190 C.2   104  SER104      0.2288
     48  O          0.8780   21.5570  157.3610 O.2   104  SER104     -0.2866
     49  CB         2.7580   20.4870  154.7420 C.3   104  SER104      0.2089
     50  OG         3.2780   20.7400  153.4560 O.3   104  SER104     -0.2183
     51  N          1.2720   14.3300  156.6770 N.3   107  ARG107     -0.1245
     52  CA         2.3850   13.5910  156.1030 C.3   107  ARG107      0.1563
     53  C          2.3430   12.1900  156.6880 C.2   107  ARG107      0.2260
     54  O          2.0500   12.0060  157.8670 O.2   107  ARG107     -0.2867
     55  CB         3.6950   14.3020  156.4050 C.3   107  ARG107      0.0307
     56  CG         4.9440   13.5980  155.9710 C.3   107  ARG107      0.0489
     57  CD         6.0840   14.5680  155.9520 C.3   107  ARG107      0.2205
     58  NE         6.4960   14.7550  154.5870 N.pl3 107  ARG107     -0.0865
     59  CZ         6.8640   15.9010  154.0370 C.cat 107  ARG107      0.5346
     60  NH1        6.8900   17.0280  154.7050 N.pl3 107  ARG107      0.1354
     61  NH2        7.2040   15.9050  152.7710 N.pl3 107  ARG107      0.1354
     62  N         21.7890   20.2080  151.2180 N.3   163  THR163     -0.1218
     63  CA        20.3300   20.1350  151.3540 C.3   163  THR163      0.1862
     64  C         19.7400   21.4650  151.8690 C.2   163  THR163      0.2287
     65  O         18.7460   21.9650  151.3570 O.2   163  THR163     -0.2866
     66  CB        19.9020   18.9590  152.2470 C.3   163  THR163      0.1770
     67  OG1       20.5480   17.7630  151.8010 O.3   163  THR163     -0.2211
     68  CG2       18.4140   18.7510  152.1330 C.3   163  THR163      0.0375
     69  N         17.2670   23.8320  150.0400 N.3   167  GLN167     -0.1245
     70  CA        16.0860   24.3510  150.6970 C.3   167  GLN167      0.1566
     71  C         15.9500   25.8730  150.5680 C.2   167  GLN167      0.2260
     72  O         14.8500   26.4080  150.3050 O.2   167  GLN167     -0.2867
     73  CB        16.0710   23.9300  152.1750 C.3   167  GLN167      0.0367
     74  CG        15.4530   22.5410  152.4190 C.3   167  GLN167      0.0905
     75  CD        13.9950   22.4630  151.9440 C.2   167  GLN167      0.2608
     76  OE1       13.7290   22.3240  150.7630 O.2   167  GLN167     -0.2717
     77  NE2       13.0570   22.5990  152.8710 N.am  167  GLN167     -0.0878
     78  N         14.6680   26.5590  147.1770 N.3   170  ASP170     -0.1239
     79  CA        13.2890   26.1970  146.9390 C.3   170  ASP170      0.1674
     80  C         12.3200   27.2260  147.5000 C.2   170  ASP170      0.2266
     81  O         11.3340   27.6090  146.8740 O.2   170  ASP170     -0.2867
     82  CB        13.0340   24.8590  147.5760 C.3   170  ASP170      0.1410
     83  CG        11.5800   24.4830  147.5630 C.2   170  ASP170      0.3668
     84  OD1       11.1210   23.8450  146.6100 O.co2 170  ASP170     -0.2456
     85  OD2       10.8680   24.8380  148.4950 O.co2 170  ASP170     -0.2456
     86  N         18.3440   20.4050  146.9270 N.3   207  LYS207     -0.1231
     87  CA        17.3700   20.1550  147.9740 C.3   207  LYS207      0.1693
     88  C         17.0920   18.6700  148.0690 C.2   207  LYS207      0.2592
     89  O         16.6740   18.2310  149.1270 O.2   207  LYS207     -0.2718
     90  CB        16.0820   20.9930  147.8220 C.3   207  LYS207      0.0285
     91  CG        15.0730   20.4050  146.8370 C.3   207  LYS207      0.0035
     92  CD        13.6040   20.8230  147.1270 C.3   207  LYS207      0.0206
     93  CE        12.6710   20.4170  145.9910 C.3   207  LYS207      0.1093
     94  NZ        11.3270   21.1180  146.1420 N.3   207  LYS207     -0.1314
     95  N         17.2980   17.8700  147.0100 N.am  208  THR208     -0.1953
     96  CA        16.9120   16.4280  147.1790 C.3   208  THR208      0.1897
     97  C         17.8560   15.2740  146.7810 C.2   208  THR208      0.2313
     98  O         17.8070   14.1900  147.3780 O.2   208  THR208     -0.2863
     99  CB        15.3830   16.0970  146.8380 C.3   208  THR208      0.1794
    100  OG1       15.2770   15.2040  145.7440 O.3   208  THR208     -0.2208
    101  CG2       14.5730   17.2810  146.5810 C.3   208  THR208      0.0378
    102  N         20.8360   13.8880  149.6270 N.3   211  TYR211     -0.1241
    103  CA        20.4430   13.0800  150.7700 C.3   211  TYR211      0.1605
    104  C         19.5630   11.8900  150.3610 C.2   211  TYR211      0.2264
    105  O         19.5520   10.8670  151.0160 O.2   211  TYR211     -0.2867
    106  CB        19.8140   13.9870  151.8650 C.3   211  TYR211      0.0534
    107  CG        18.3260   14.2100  151.8100 C.ar  211  TYR211     -0.0201
    108  CD1       17.4690   13.4020  152.5500 C.ar  211  TYR211     -0.0009
    109  CD2       17.7660   15.2210  151.0420 C.ar  211  TYR211     -0.0009
    110  CE1       16.1230   13.5720  152.5220 C.ar  211  TYR211      0.0417
    111  CE2       16.3840   15.4050  151.0200 C.ar  211  TYR211      0.0417
    112  CZ        15.5640   14.5770  151.7710 C.ar  211  TYR211      0.1957
    113  OH        14.1610   14.7190  151.8010 O.3   211  TYR211     -0.2866
    114  N         13.0510   11.3910  141.0220 N.3   246  PHE246     -0.1227
    115  CA        12.2990   11.1800  142.2300 C.3   246  PHE246      0.1736
    116  C         11.5470   12.4770  142.6390 C.2   246  PHE246      0.2595
    117  O         10.3530   12.4040  143.0020 O.2   246  PHE246     -0.2718
    118  CB        13.2290   10.6640  143.3180 C.3   246  PHE246      0.0547
    119  CG        12.5820   10.4630  144.6460 C.ar  246  PHE246     -0.0202
    120  CD1       12.5120   11.5120  145.5540 C.ar  246  PHE246     -0.0042
    121  CD2       12.0840    9.2100  145.0100 C.ar  246  PHE246     -0.0042
    122  CE1       11.9290   11.3510  146.7910 C.ar  246  PHE246     -0.0003
    123  CE2       11.4900    8.9990  146.2700 C.ar  246  PHE246     -0.0003
    124  CZ        11.4130   10.0760  147.1740 C.ar  246  PHE246     -0.0000
    125  N         12.2120   13.6430  142.5310 N.am  247  GLN247     -0.1979
    126  CA        11.5530   14.9340  142.8250 C.3   247  GLN247      0.1601
    127  C         10.4860   15.3330  141.7840 C.2   247  GLN247      0.2287
    128  O          9.4720   15.9600  142.1220 O.2   247  GLN247     -0.2864
    129  CB        12.5430   16.0620  142.9530 C.3   247  GLN247      0.0394
    130  CG        11.8580   17.3390  143.4700 C.3   247  GLN247      0.0908
    131  CD        11.3050   17.1950  144.9030 C.2   247  GLN247      0.2608
    132  OE1       11.9770   16.6530  145.7890 O.2   247  GLN247     -0.2717
    133  NE2       10.1020   17.7110  145.1340 N.am  247  GLN247     -0.0878
    134  N          7.5680   13.5890  142.7140 N.3   250  ASP250     -0.1225
    135  CA         7.0140   14.2180  143.8750 C.3   250  ASP250      0.1805
    136  C          6.1440   15.4030  143.4510 C.2   250  ASP250      0.2597
    137  O          5.0270   15.5680  143.9940 O.2   250  ASP250     -0.2718
    138  CB         8.0860   14.6450  144.8820 C.3   250  ASP250      0.1424
    139  CG         7.4810   15.2580  146.1380 C.2   250  ASP250      0.3668
    140  OD1        6.8000   14.5260  146.9240 O.co2 250  ASP250     -0.2456
    141  OD2        7.6660   16.4820  146.3220 O.co2 250  ASP250     -0.2456
    142  N          6.6570   16.2220  142.5150 N.am  251  ASP251     -0.1974
    143  CA         5.9380   17.3910  142.0400 C.3   251  ASP251      0.1709
    144  C          4.6230   17.0080  141.3540 C.2   251  ASP251      0.2293
    145  O          3.5960   17.6120  141.5990 O.2   251  ASP251     -0.2864
    146  CB         6.7840   18.2060  141.0700 C.3   251  ASP251      0.1436
    147  CG         7.9770   18.8700  141.7230 C.2   251  ASP251      0.3671
    148  OD1        8.1530   18.7390  142.9610 O.co2 251  ASP251     -0.2456
    149  OD2        8.7640   19.5070  140.9800 O.co2 251  ASP251     -0.2456
    150  N          2.0770   15.8470  143.9840 N.3   254  ASP254     -0.1239
    151  CA         1.5710   16.9940  144.7690 C.3   254  ASP254      0.1674
    152  C          0.2450   17.5350  144.2600 C.2   254  ASP254      0.2266
    153  O         -0.6580   17.8460  145.0370 O.2   254  ASP254     -0.2867
    154  CB         2.5620   18.1550  144.7870 C.3   254  ASP254      0.1410
    155  CG         2.3050   19.0880  145.9380 C.2   254  ASP254      0.3668
    156  OD1        2.5900   18.6800  147.0740 O.co2 254  ASP254     -0.2456
    157  OD2        1.7790   20.2010  145.7340 O.co2 254  ASP254     -0.2456
    158  N         -0.1220   12.7650  152.0670 N.3   264  LYS264     -0.1245
    159  CA         0.0380   14.1960  152.3480 C.3   264  LYS264      0.1561
    160  C         -0.8280   15.0250  151.4220 C.2   264  LYS264      0.2260
    161  O         -1.3220   14.5130  150.4170 O.2   264  LYS264     -0.2867
    162  CB         1.5200   14.6130  152.3110 C.3   264  LYS264      0.0271
    163  CG         2.1390   14.6620  150.9710 C.3   264  LYS264      0.0035
    164  CD         3.6390   14.3190  150.9890 C.3   264  LYS264      0.0206
    165  CE         4.2200   14.6200  149.6100 C.3   264  LYS264      0.1093
    166  NZ         5.5950   14.1330  149.3840 N.3   264  LYS264     -0.1314
    167  N          2.0270   22.9500  146.5190 N.3   268  ASP268     -0.1239
    168  CA         2.9540   23.6370  145.6140 C.3   268  ASP268      0.1674
    169  C          2.3120   24.8110  144.8870 C.2   268  ASP268      0.2266
    170  O          2.9640   25.8500  144.6960 O.2   268  ASP268     -0.2867
    171  CB         3.6340   22.6890  144.6090 C.3   268  ASP268      0.1410
    172  CG         4.5910   21.6840  145.2620 C.2   268  ASP268      0.3668
    173  OD1        5.0980   21.9360  146.3940 O.co2 268  ASP268     -0.2456
    174  OD2        4.8640   20.6160  144.6270 O.co2 268  ASP268     -0.2456
@<TRIPOS>BOND
     1   149   147   ar
     2   114   115    1
     3   146   147    1
     4   146   143    1
     5   144   145    2
     6   144   143    1
     7   147   148   ar
     8   127   128    2
     9   127   126    1
    10   143   142    1
    11   115   116    1
    12   115   118    1
    13   142   136   am
    14   125   116   am
    15   125   126    1
    16   116   117    2
    17   134   135    1
    18   126   129    1
    19   129   130    1
    20   118   119    1
    21   136   135    1
    22   136   137    2
    23   130   131    1
    24   135   138    1
    25   150   151    1
    26   152   151    1
    27   152   153    2
    28   171   172    1
    29   171   168    1
    30   174   172   ar
    31   119   121   ar
    32   119   120   ar
    33   170   169    2
    34   151   154    1
    35   154   155    1
    36   138   139    1
    37   169   168    1
    38   131   133   am
    39   131   132    2
    40   121   123   ar
    41   172   173   ar
    42   120   122   ar
    43   168   167    1
    44   157   155   ar
    45   100    99    1
    46   155   156   ar
    47    93    94    1
    48    93    92    1
    49   139   141   ar
    50   139   140   ar
    51   123   124   ar
    52   101    99    1
    53    84    83   ar
    54    97    96    1
    55    97    98    2
    56   122   124   ar
    57    91    92    1
    58    91    90    1
    59    99    96    1
    60    81    80    2
    61    86    87    1
    62    79    78    1
    63    79    80    1
    64    79    82    1
    65    95    96    1
    66    95    88   am
    67    83    82    1
    68    83    85   ar
    69    90    87    1
    70    87    88    1
    71    88    89    2
    72   166   165    1
    73   165   164    1
    74   102   103    1
    75    69    70    1
    76    72    71    2
    77   104   103    1
    78   104   105    2
    79   161   160    2
    80    71    70    1
    81    70    73    1
    82    76    75    2
    83   103   106    1
    84   163   164    1
    85   163   162    1
    86   111   109   ar
    87   111   112   ar
    88   109   107   ar
    89    62    63    1
    90    44    42   ar
    91    63    64    1
    92    63    66    1
    93    65    64    2
    94   160   159    1
    95   112   113    1
    96   112   110   ar
    97    67    66    1
    98   107   106    1
    99   107   108   ar
   100    43    42   ar
   101    42    41    1
   102    75    74    1
   103    75    77   am
   104   158   159    1
   105    68    66    1
   106    73    74    1
   107   162   159    1
   108    27    26   ar
   109   110   108   ar
   110    41    38    1
   111    40    39    2
   112    61    59    1
   113    28    26   ar
   114    26    25    1
   115    38    39    1
   116    38    37    1
   117    50    49    1
   118    59    58    2
   119    59    60    1
   120    19    18    1
   121    58    57    1
   122    25    22    1
   123    49    46    1
   124    46    45    1
   125    46    47    1
   126    24    23    2
   127    35    34   ar
   128    18    20    1
   129    18    17    1
   130    22    23    1
   131    22    21    1
   132    10     8   ar
   133    10    11   ar
   134    23    29   am
   135     8     6   ar
   136    12    11    1
   137    11     9   ar
   138     6     5    1
   139     6     7   ar
   140    57    56    1
   141    56    55    1
   142     5     2    1
   143     9     7   ar
   144    52    55    1
   145    52    51    1
   146    52    53    1
   147    47    48    2
   148    29    30    1
   149    34    36   ar
   150    34    33    1
   151     4     3    2
   152    53    54    2
   153    30    31    1
   154    30    33    1
   155    17    14    1
   156    14    13    1
   157    14    15    1
   158    32    31    2
   159     3    13   am
   160     3     2    1
   161     2     1    1
   162    16    15    2
