@<TRIPOS>MOLECULE
tmp/3ickA01.pdb
 178 170 0 0 0
SMALL
GASTEIGER

@<TRIPOS>ATOM
      1  N          7.2660    5.9090  156.9120 N.3    47  GLY47      -0.1210
      2  CA         7.6690    6.2540  155.5490 C.3    47  GLY47       0.1956
      3  C          7.9710    4.9930  154.7850 C.2    47  GLY47       0.2612
      4  O          7.7680    3.8930  155.3000 O.2    47  GLY47      -0.2717
      5  N          8.4700    5.1460  153.5660 N.am   48  LYS48      -0.1965
      6  CA         8.8360    4.0050  152.7190 C.3    48  LYS48       0.1728
      7  C         10.1280    3.2910  153.1810 C.2    48  LYS48       0.2616
      8  O         10.3670    2.1600  152.7830 O.2    48  LYS48      -0.2715
      9  CB         8.9500    4.4520  151.2240 C.3    48  LYS48       0.0311
     10  CG         7.6850    5.1920  150.6390 C.3    48  LYS48       0.0038
     11  CD         7.8310    5.6580  149.1440 C.3    48  LYS48       0.0206
     12  CE         8.4930    7.0580  148.9990 C.3    48  LYS48       0.1093
     13  NZ         7.5750    8.1450  149.4950 N.3    48  LYS48      -0.1314
     14  N         10.9370    3.9710  154.0110 N.am   49  TYR49      -0.1960
     15  CA        12.3230    3.5710  154.4120 C.3    49  TYR49       0.1771
     16  C         13.3000    3.3490  153.2690 C.2    49  TYR49       0.2620
     17  O         14.3030    2.6580  153.4210 O.2    49  TYR49      -0.2715
     18  CB        12.3670    2.3620  155.3810 C.3    49  TYR49       0.0574
     19  CG        11.3910    2.5020  156.5170 C.ar   49  TYR49      -0.0198
     20  CD1       10.3610    1.5750  156.6960 C.ar   49  TYR49      -0.0009
     21  CD2       11.4660    3.5930  157.3860 C.ar   49  TYR49      -0.0009
     22  CE1        9.4370    1.7280  157.7060 C.ar   49  TYR49       0.0417
     23  CE2       10.5530    3.7470  158.3970 C.ar   49  TYR49       0.0417
     24  CZ         9.5410    2.8160  158.5420 C.ar   49  TYR49       0.1957
     25  OH         8.6420    2.9990  159.5250 O.3    49  TYR49      -0.2866
     26  N         13.0500    3.9610  152.1340 N.am   50  PHE50      -0.1960
     27  CA        13.9060    3.6480  151.0340 C.3    50  PHE50       0.1771
     28  C         15.3130    4.2690  151.1360 C.2    50  PHE50       0.2619
     29  O         16.2570    3.6870  150.6460 O.2    50  PHE50      -0.2715
     30  CB        13.2000    3.7910  149.6720 C.3    50  PHE50       0.0574
     31  CG        13.4640    5.0620  148.9940 C.ar   50  PHE50      -0.0200
     32  CD1       14.5450    5.1780  148.1090 C.ar   50  PHE50      -0.0042
     33  CD2       12.6610    6.1670  149.2390 C.ar   50  PHE50      -0.0042
     34  CE1       14.8330    6.4080  147.4730 C.ar   50  PHE50      -0.0003
     35  CE2       12.9330    7.3980  148.6190 C.ar   50  PHE50      -0.0003
     36  CZ        14.0120    7.5180  147.7320 C.ar   50  PHE50      -0.0000
     37  N         15.4700    5.3990  151.8150 N.am   51  ARG51      -0.1977
     38  CA        16.8090    5.9170  152.0420 C.3    51  ARG51       0.1597
     39  C         17.6610    4.9690  152.8950 C.2    51  ARG51       0.2287
     40  O         18.7760    4.6150  152.4920 O.2    51  ARG51      -0.2864
     41  CB        16.7680    7.3290  152.6100 C.3    51  ARG51       0.0334
     42  CG        16.2240    8.3080  151.5820 C.3    51  ARG51       0.0492
     43  CD        15.8970    9.5720  152.2910 C.3    51  ARG51       0.2205
     44  NE        15.1210   10.4940  151.4720 N.pl3  51  ARG51      -0.0865
     45  CZ        13.8510   10.3200  151.1000 C.cat  51  ARG51       0.5346
     46  NH1       13.1730    9.2370  151.4430 N.pl3  51  ARG51       0.1354
     47  NH2       13.2590   11.2540  150.3600 N.pl3  51  ARG51       0.1354
     48  N         17.5970    8.4230  157.7130 N.3    88  GLU88      -0.1245
     49  CA        16.1680    8.5710  158.0130 C.3    88  GLU88       0.1567
     50  C         15.9420    9.6430  159.0760 C.2    88  GLU88       0.2260
     51  O         14.9680   10.4240  158.9890 O.2    88  GLU88      -0.2867
     52  CB        15.5410    7.2560  158.4370 C.3    88  GLU88       0.0388
     53  CG        15.5530    6.1890  157.3510 C.3    88  GLU88       0.1160
     54  CD        14.4040    6.3100  156.3540 C.2    88  GLU88       0.3649
     55  OE1       13.2930    6.8050  156.6760 O.co2  88  GLU88      -0.2457
     56  OE2       14.6160    5.8880  155.2140 O.co2  88  GLU88      -0.2457
     57  N         16.4190   12.8440  157.4100 N.3    91  GLN91      -0.1245
     58  CA        15.2570   13.2240  156.6580 C.3    91  GLN91       0.1566
     59  C         14.1160   13.7290  157.5810 C.2    91  GLN91       0.2260
     60  O         13.4760   14.7260  157.2830 O.2    91  GLN91      -0.2867
     61  CB        14.8100   12.0700  155.7510 C.3    91  GLN91       0.0367
     62  CG        13.3220   12.0720  155.4650 C.3    91  GLN91       0.0905
     63  CD        12.9550   11.3960  154.2090 C.2    91  GLN91       0.2608
     64  OE1       12.3860   12.0180  153.2980 O.2    91  GLN91      -0.2717
     65  NE2       13.2760   10.1140  154.1170 N.am   91  GLN91      -0.0878
     66  N         12.0470   17.1150  157.1660 N.3    95  LEU95      -0.1245
     67  CA        10.5970   17.1160  156.9090 C.3    95  LEU95       0.1561
     68  C          9.8610   17.8920  158.0020 C.2    95  LEU95       0.2260
     69  O          8.8140   18.5150  157.7120 O.2    95  LEU95      -0.2867
     70  CB        10.0580   15.6980  156.8180 C.3    95  LEU95       0.0270
     71  CG         9.9430   15.0050  155.4600 C.3    95  LEU95       0.0019
     72  CD1       10.7950   15.5980  154.2730 C.3    95  LEU95       0.0001
     73  CD2       10.0740   13.4800  155.6300 C.3    95  LEU95       0.0001
     74  N          1.2720   14.3300  156.6770 N.3   107  ARG107     -0.1231
     75  CA         2.3850   13.5910  156.1030 C.3   107  ARG107      0.1694
     76  C          2.3430   12.1900  156.6880 C.2   107  ARG107      0.2591
     77  O          2.0500   12.0060  157.8670 O.2   107  ARG107     -0.2718
     78  CB         3.6950   14.3020  156.4050 C.3   107  ARG107      0.0321
     79  CG         4.9440   13.5980  155.9710 C.3   107  ARG107      0.0489
     80  CD         6.0840   14.5680  155.9520 C.3   107  ARG107      0.2205
     81  NE         6.4960   14.7550  154.5870 N.pl3 107  ARG107     -0.0865
     82  CZ         6.8640   15.9010  154.0370 C.cat 107  ARG107      0.5346
     83  NH1        6.8900   17.0280  154.7050 N.pl3 107  ARG107      0.1354
     84  NH2        7.2040   15.9050  152.7710 N.pl3 107  ARG107      0.1354
     85  N          2.5930   11.2030  155.8460 N.am  108  ARG108     -0.1980
     86  CA         2.3760    9.8050  156.1860 C.3   108  ARG108      0.1597
     87  C          0.9790    9.5600  156.8010 C.2   108  ARG108      0.2287
     88  O          0.8110    8.7860  157.7520 O.2   108  ARG108     -0.2864
     89  CB         3.5480    9.2710  157.0410 C.3   108  ARG108      0.0334
     90  CG         4.8430   10.0560  156.8420 C.3   108  ARG108      0.0492
     91  CD         6.0600    9.1600  156.7970 C.3   108  ARG108      0.2205
     92  NE         7.2050    9.6570  157.5690 N.pl3 108  ARG108     -0.0865
     93  CZ         8.4090    9.9360  157.0610 C.cat 108  ARG108      0.5346
     94  NH1        8.6210    9.8040  155.7710 N.pl3 108  ARG108      0.1354
     95  NH2        9.4160   10.3470  157.8400 N.pl3 108  ARG108      0.1354
     96  N         17.2980   17.8700  147.0100 N.3   208  THR208     -0.1218
     97  CA        16.9120   16.4280  147.1790 C.3   208  THR208      0.1862
     98  C         17.8560   15.2740  146.7810 C.2   208  THR208      0.2287
     99  O         17.8070   14.1900  147.3780 O.2   208  THR208     -0.2866
    100  CB        15.3830   16.0970  146.8380 C.3   208  THR208      0.1770
    101  OG1       15.2770   15.2040  145.7440 O.3   208  THR208     -0.2211
    102  CG2       14.5730   17.2810  146.5810 C.3   208  THR208      0.0375
    103  N         20.8360   13.8880  149.6270 N.3   211  TYR211     -0.1227
    104  CA        20.4430   13.0800  150.7700 C.3   211  TYR211      0.1736
    105  C         19.5630   11.8900  150.3610 C.2   211  TYR211      0.2596
    106  O         19.5520   10.8670  151.0160 O.2   211  TYR211     -0.2718
    107  CB        19.8140   13.9870  151.8650 C.3   211  TYR211      0.0548
    108  CG        18.3260   14.2100  151.8100 C.ar  211  TYR211     -0.0200
    109  CD1       17.4690   13.4020  152.5500 C.ar  211  TYR211     -0.0009
    110  CD2       17.7660   15.2210  151.0420 C.ar  211  TYR211     -0.0009
    111  CE1       16.1230   13.5720  152.5220 C.ar  211  TYR211      0.0417
    112  CE2       16.3840   15.4050  151.0200 C.ar  211  TYR211      0.0417
    113  CZ        15.5640   14.5770  151.7710 C.ar  211  TYR211      0.1957
    114  OH        14.1610   14.7190  151.8010 O.3   211  TYR211     -0.2866
    115  N         18.8400   12.0190  149.2620 N.am  212  THR212     -0.1953
    116  CA        17.9300   10.9720  148.8750 C.3   212  THR212      0.1897
    117  C         18.6960    9.8470  148.1790 C.2   212  THR212      0.2313
    118  O         18.3710    8.6690  148.3450 O.2   212  THR212     -0.2863
    119  CB        16.7550   11.4900  147.9880 C.3   212  THR212      0.1794
    120  OG1       16.1100   12.6030  148.6210 O.3   212  THR212     -0.2208
    121  CG2       15.7090   10.4080  147.8780 C.3   212  THR212      0.0378
    122  N         13.0510   11.3910  141.0220 N.3   246  PHE246     -0.1227
    123  CA        12.2990   11.1800  142.2300 C.3   246  PHE246      0.1736
    124  C         11.5470   12.4770  142.6390 C.2   246  PHE246      0.2595
    125  O         10.3530   12.4040  143.0020 O.2   246  PHE246     -0.2718
    126  CB        13.2290   10.6640  143.3180 C.3   246  PHE246      0.0547
    127  CG        12.5820   10.4630  144.6460 C.ar  246  PHE246     -0.0202
    128  CD1       12.5120   11.5120  145.5540 C.ar  246  PHE246     -0.0042
    129  CD2       12.0840    9.2100  145.0100 C.ar  246  PHE246     -0.0042
    130  CE1       11.9290   11.3510  146.7910 C.ar  246  PHE246     -0.0003
    131  CE2       11.4900    8.9990  146.2700 C.ar  246  PHE246     -0.0003
    132  CZ        11.4130   10.0760  147.1740 C.ar  246  PHE246     -0.0000
    133  N         12.2120   13.6430  142.5310 N.am  247  GLN247     -0.1979
    134  CA        11.5530   14.9340  142.8250 C.3   247  GLN247      0.1601
    135  C         10.4860   15.3330  141.7840 C.2   247  GLN247      0.2287
    136  O          9.4720   15.9600  142.1220 O.2   247  GLN247     -0.2864
    137  CB        12.5430   16.0620  142.9530 C.3   247  GLN247      0.0394
    138  CG        11.8580   17.3390  143.4700 C.3   247  GLN247      0.0908
    139  CD        11.3050   17.1950  144.9030 C.2   247  GLN247      0.2608
    140  OE1       11.9770   16.6530  145.7890 O.2   247  GLN247     -0.2717
    141  NE2       10.1020   17.7110  145.1340 N.am  247  GLN247     -0.0878
    142  N          7.5680   13.5890  142.7140 N.3   250  ASP250     -0.1239
    143  CA         7.0140   14.2180  143.8750 C.3   250  ASP250      0.1674
    144  C          6.1440   15.4030  143.4510 C.2   250  ASP250      0.2266
    145  O          5.0270   15.5680  143.9940 O.2   250  ASP250     -0.2867
    146  CB         8.0860   14.6450  144.8820 C.3   250  ASP250      0.1410
    147  CG         7.4810   15.2580  146.1380 C.2   250  ASP250      0.3668
    148  OD1        6.8000   14.5260  146.9240 O.co2 250  ASP250     -0.2456
    149  OD2        7.6660   16.4820  146.3220 O.co2 250  ASP250     -0.2456
    150  N         -0.1220   12.7650  152.0670 N.3   264  LYS264     -0.1245
    151  CA         0.0380   14.1960  152.3480 C.3   264  LYS264      0.1561
    152  C         -0.8280   15.0250  151.4220 C.2   264  LYS264      0.2260
    153  O         -1.3220   14.5130  150.4170 O.2   264  LYS264     -0.2867
    154  CB         1.5200   14.6130  152.3110 C.3   264  LYS264      0.0271
    155  CG         2.1390   14.6620  150.9710 C.3   264  LYS264      0.0035
    156  CD         3.6390   14.3190  150.9890 C.3   264  LYS264      0.0206
    157  CE         4.2200   14.6200  149.6100 C.3   264  LYS264      0.1093
    158  NZ         5.5950   14.1330  149.3840 N.3   264  LYS264     -0.1314
    159  N          7.1540    3.6170  141.8280 N.3   360  ARG360     -0.1245
    160  CA         6.5410    4.1530  143.0530 C.3   360  ARG360      0.1563
    161  C          5.1720    4.8180  142.8420 C.2   360  ARG360      0.2260
    162  O          4.8980    5.4180  141.7940 O.2   360  ARG360     -0.2867
    163  CB         7.5040    5.0390  143.8710 C.3   360  ARG360      0.0307
    164  CG         7.5530    6.5320  143.5310 C.3   360  ARG360      0.0489
    165  CD         8.6400    7.1850  144.4160 C.3   360  ARG360      0.2205
    166  NE         8.9510    8.5900  144.1430 N.pl3 360  ARG360     -0.0865
    167  CZ         8.5030    9.6190  144.8700 C.cat 360  ARG360      0.5346
    168  NH1        7.6810    9.4150  145.8890 N.pl3 360  ARG360      0.1354
    169  NH2        8.8660   10.8570  144.5630 N.pl3 360  ARG360      0.1354
    170  N          3.5720    6.4510  145.8220 N.3   362  LYS362     -0.1245
    171  CA         3.3630    7.3890  146.9390 C.3   362  LYS362      0.1561
    172  C          4.6830    7.9630  147.4780 C.2   362  LYS362      0.2260
    173  O          5.7690    7.5820  147.0210 O.2   362  LYS362     -0.2867
    174  CB         2.5540    6.7330  148.0740 C.3   362  LYS362      0.0271
    175  CG         3.0630    5.3440  148.5590 C.3   362  LYS362      0.0035
    176  CD         2.1650    4.7420  149.6500 C.3   362  LYS362      0.0206
    177  CE         0.7650    4.3420  149.1110 C.3   362  LYS362      0.1093
    178  NZ        -0.3270    4.4200  150.1360 N.3   362  LYS362     -0.1314
@<TRIPOS>BOND
     1   122   123    1
     2   135   136    2
     3   135   134    1
     4   162   161    2
     5   159   160    1
     6   123   124    1
     7   123   126    1
     8   133   124   am
     9   133   134    1
    10   124   125    2
    11   142   143    1
    12   134   137    1
    13   161   160    1
    14   137   138    1
    15   160   163    1
    16   126   127    1
    17   144   143    1
    18   144   145    2
    19   138   139    1
    20   164   163    1
    21   164   165    1
    22   143   146    1
    23   166   165    1
    24   166   167    2
    25   169   167    1
    26   127   129   ar
    27   127   128   ar
    28   167   168    1
    29   146   147    1
    30   139   141   am
    31   139   140    2
    32   129   131   ar
    33   128   130   ar
    34   101   100    1
    35   170   171    1
    36   147   149   ar
    37   147   148   ar
    38   131   132   ar
    39   102   100    1
    40    98    97    1
    41    98    99    2
    42   130   132   ar
    43   100    97    1
    44   171   172    1
    45   171   174    1
    46    96    97    1
    47   173   172    2
    48    34    36   ar
    49    34    32   ar
    50    36    35   ar
    51   121   119    1
    52   119   120    1
    53   119   116    1
    54   174   175    1
    55    32    31   ar
    56   117   118    2
    57   117   116    1
    58   175   176    1
    59    35    33   ar
    60   116   115    1
    61    31    33   ar
    62    31    30    1
    63    12    11    1
    64    12    13    1
    65   177   176    1
    66   177   178    1
    67    11    10    1
    68   115   105   am
    69   158   157    1
    70   157   156    1
    71   103   104    1
    72    30    27    1
    73    47    45    1
    74   105   104    1
    75   105   106    2
    76   153   152    2
    77    10     9    1
    78    29    28    2
    79   104   107    1
    80   155   156    1
    81   155   154    1
    82   112   110   ar
    83   112   113   ar
    84    27    28    1
    85    27    26    1
    86   110   108   ar
    87    45    46    1
    88    45    44    2
    89    28    37   am
    90     9     6    1
    91   152   151    1
    92    44    43    1
    93    42    43    1
    94    42    41    1
    95   113   114    1
    96   113   111   ar
    97   108   107    1
    98   108   109   ar
    99    37    38    1
   100    38    41    1
   101    38    39    1
   102   150   151    1
   103    26    16   am
   104   154   151    1
   105    40    39    2
   106   111   109   ar
   107     6     7    1
   108     6     5    1
   109    84    82    1
   110     8     7    2
   111     7    14   am
   112    16    17    2
   113    16    15    1
   114    64    63    2
   115     5     3   am
   116    14    15    1
   117    82    81    2
   118    82    83    1
   119    65    63   am
   120    63    62    1
   121    72    71    1
   122    15    18    1
   123    81    80    1
   124     3     4    2
   125     3     2    1
   126    56    54   ar
   127    18    19    1
   128    71    73    1
   129    71    70    1
   130    62    61    1
   131     2     1    1
   132    61    58    1
   133    94    93    1
   134    85    86    1
   135    85    76   am
   136    80    79    1
   137    79    78    1
   138    75    78    1
   139    75    74    1
   140    75    76    1
   141    86    87    1
   142    86    89    1
   143    54    55   ar
   144    54    53    1
   145    19    20   ar
   146    19    21   ar
   147    58    57    1
   148    58    59    1
   149    76    77    2
   150    20    22   ar
   151    91    90    1
   152    91    92    1
   153    87    88    2
   154    70    67    1
   155    90    89    1
   156    67    66    1
   157    67    68    1
   158    93    92    2
   159    93    95    1
   160    60    59    2
   161    53    52    1
   162    21    23   ar
   163    22    24   ar
   164    69    68    2
   165    48    49    1
   166    49    52    1
   167    49    50    1
   168    23    24   ar
   169    24    25    1
   170    51    50    2
