@<TRIPOS>MOLECULE
tmp/3icmA00.pdb
 216 202 0 0 0
SMALL
GASTEIGER

@<TRIPOS>ATOM
      1  N         14.3500    6.4930  152.8170 N.3    51  ARG51      -0.1245
      2  CA        15.6950    6.8830  153.1180 C.3    51  ARG51       0.1563
      3  C         16.3910    5.8650  154.0910 C.2    51  ARG51       0.2260
      4  O         17.4420    5.3770  153.7730 O.2    51  ARG51      -0.2867
      5  CB        15.7020    8.2710  153.6990 C.3    51  ARG51       0.0307
      6  CG        15.2760    9.3540  152.7380 C.3    51  ARG51       0.0489
      7  CD        14.7240   10.5420  153.5410 C.3    51  ARG51       0.2205
      8  NE        14.1220   11.5860  152.6840 N.pl3  51  ARG51      -0.0865
      9  CZ        12.8780   11.5760  152.1660 C.cat  51  ARG51       0.5346
     10  NH1       12.0140   10.6060  152.4250 N.pl3  51  ARG51       0.1354
     11  NH2       12.4960   12.5820  151.3790 N.pl3  51  ARG51       0.1354
     12  N         13.2510   18.1590  159.5810 N.3    94  TYR94      -0.1227
     13  CA        12.9210   19.0690  158.4800 C.3    94  TYR94       0.1736
     14  C         11.3730   19.2610  158.3140 C.2    94  TYR94       0.2595
     15  O         10.8800   20.3430  158.1370 O.2    94  TYR94      -0.2718
     16  CB        13.5040   18.5380  157.1280 C.3    94  TYR94       0.0548
     17  CG        15.0110   18.4990  157.0150 C.ar   94  TYR94      -0.0200
     18  CD1       15.6360   17.4760  156.3020 C.ar   94  TYR94      -0.0009
     19  CD2       15.8150   19.5120  157.5830 C.ar   94  TYR94      -0.0009
     20  CE1       17.0570   17.4370  156.1680 C.ar   94  TYR94       0.0417
     21  CE2       17.2010   19.5010  157.4690 C.ar   94  TYR94       0.0417
     22  CZ        17.8290   18.4700  156.7650 C.ar   94  TYR94       0.1957
     23  OH        19.2170   18.4910  156.6310 O.3    94  TYR94      -0.2866
     24  N         10.6340   18.1750  158.3980 N.am   95  LEU95      -0.1980
     25  CA         9.1870   18.1870  158.2090 C.3    95  LEU95       0.1596
     26  C          8.4360   18.9080  159.3000 C.2    95  LEU95       0.2287
     27  O          7.4560   19.5950  159.0270 O.2    95  LEU95      -0.2864
     28  CB         8.7130   16.7280  158.1010 C.3    95  LEU95       0.0297
     29  CG         8.6840   16.0790  156.7140 C.3    95  LEU95       0.0022
     30  CD1        9.5480   16.7230  155.5880 C.3    95  LEU95       0.0001
     31  CD2        8.7750   14.5690  156.7590 C.3    95  LEU95       0.0001
     32  N          9.5970   21.3800  161.0300 N.3    97  GLU97      -0.1231
     33  CA         9.9080   22.7880  160.7930 C.3    97  GLU97       0.1699
     34  C          9.3130   23.3220  159.4860 C.2    97  GLU97       0.2592
     35  O          8.8640   24.4570  159.4270 O.2    97  GLU97      -0.2718
     36  CB        11.4440   23.0550  160.8380 C.3    97  GLU97       0.0402
     37  CG        12.2390   22.5450  162.0300 C.3    97  GLU97       0.1161
     38  CD        11.9130   23.1870  163.4020 C.2    97  GLU97       0.3649
     39  OE1       11.0720   24.0840  163.4220 O.co2  97  GLU97      -0.2457
     40  OE2       12.4940   22.7730  164.4860 O.co2  97  GLU97      -0.2457
     41  N          9.3410   22.5040  158.4580 N.am   98  ASP98      -0.1960
     42  CA         8.7490   22.7970  157.1550 C.3    98  ASP98       0.1840
     43  C          7.2270   23.0590  157.2840 C.2    98  ASP98       0.2622
     44  O          6.7420   24.0250  156.7540 O.2    98  ASP98      -0.2715
     45  CB         8.9470   21.5950  156.2300 C.3    98  ASP98       0.1450
     46  CG         8.4230   21.8340  154.7710 C.2    98  ASP98       0.3671
     47  OD1        8.9590   22.7220  154.0650 O.co2  98  ASP98      -0.2456
     48  OD2        7.4880   21.1070  154.3060 O.co2  98  ASP98      -0.2456
     49  N          6.5130   22.1760  157.9940 N.am   99  ASP99      -0.1971
     50  CA         5.0950   22.3250  158.1820 C.3    99  ASP99       0.1709
     51  C          4.7250   23.6620  158.8380 C.2    99  ASP99       0.2293
     52  O          3.8080   24.2880  158.3910 O.2    99  ASP99      -0.2864
     53  CB         4.5490   21.1630  158.9590 C.3    99  ASP99       0.1436
     54  CG         4.4890   19.9180  158.1380 C.2    99  ASP99       0.3671
     55  OD1        4.4960   20.0340  156.8920 O.co2  99  ASP99      -0.2456
     56  OD2        4.4000   18.8290  158.7320 O.co2  99  ASP99      -0.2456
     57  N          6.6050   26.4880  158.4940 N.3   101  MET101     -0.1182
     58  CA         6.8630   27.5090  157.4740 C.3   101  MET101      0.1917
     59  C          5.8960   27.4530  156.2450 C.2   101  MET101      0.2634
     60  O          5.7120   28.4460  155.5280 O.2   101  MET101     -0.2714
     61  CB         8.3430   27.4500  157.0160 C.2   101  MET101      0.0083
     62  CG         9.4330   27.5330  158.1140 C.2   101  MET101      0.0282
     63  SD        11.1800   27.3070  157.5120 S.3   101  MET101     -0.1125
     64  CE        11.5870   25.6570  158.0900 C.3   101  MET101      0.0742
     65  N          5.3170   26.3050  155.9520 N.am  102  ASP102     -0.1971
     66  CA         4.4440   26.2180  154.8200 C.3   102  ASP102      0.1709
     67  C          2.9660   26.4360  155.2180 C.2   102  ASP102      0.2293
     68  O          2.0940   26.3180  154.3490 O.2   102  ASP102     -0.2864
     69  CB         4.6430   24.8700  154.0840 C.3   102  ASP102      0.1436
     70  CG         6.0500   24.7480  153.4090 C.2   102  ASP102      0.3671
     71  OD1        6.7650   25.7480  153.3580 O.co2 102  ASP102     -0.2456
     72  OD2        6.4380   23.6530  152.9270 O.co2 102  ASP102     -0.2456
     73  N          1.2340   24.3310  156.9130 N.3   104  SER104     -0.1217
     74  CA         0.5860   23.0910  156.5340 C.3   104  SER104      0.1889
     75  C         -0.3590   22.5630  157.6040 C.2   104  SER104      0.2288
     76  O         -0.2340   22.8950  158.7740 O.2   104  SER104     -0.2866
     77  CB         1.6500   22.0510  156.1920 C.3   104  SER104      0.2089
     78  OG         2.2140   22.3460  154.9370 O.3   104  SER104     -0.2183
     79  N         -0.0770   15.7730  157.8250 N.3   107  ARG107     -0.1245
     80  CA         1.1740   15.1260  157.4930 C.3   107  ARG107      0.1563
     81  C          1.0830   13.6520  157.8720 C.2   107  ARG107      0.2260
     82  O          0.7800   13.3690  159.0450 O.2   107  ARG107     -0.2867
     83  CB         2.2730   15.7180  158.3760 C.3   107  ARG107      0.0307
     84  CG         3.6980   15.2670  158.0300 C.3   107  ARG107      0.0489
     85  CD         4.4330   16.5040  157.4860 C.3   107  ARG107      0.2205
     86  NE         4.9440   16.0110  156.3030 N.pl3 107  ARG107     -0.0865
     87  CZ         5.4350   16.6610  155.2860 C.cat 107  ARG107      0.5346
     88  NH1        5.6170   17.9740  155.2340 N.pl3 107  ARG107      0.1354
     89  NH2        5.8380   15.8550  154.3110 N.pl3 107  ARG107      0.1354
     90  N         20.7650   21.2010  152.4490 N.3   163  THR163     -0.1203
     91  CA        19.3560   21.0990  152.6130 C.3   163  THR163      0.1994
     92  C         18.7070   22.3620  153.1370 C.2   163  THR163      0.2617
     93  O         17.6460   22.7460  152.6220 O.2   163  THR163     -0.2717
     94  CB        18.9650   19.8820  153.4590 C.3   163  THR163      0.1784
     95  OG1       19.5560   18.7300  152.8830 O.3   163  THR163     -0.2211
     96  CG2       17.4750   19.6610  153.4390 C.3   163  THR163      0.0376
     97  N         19.2970   22.9540  154.1820 N.am  164  ALA164     -0.1979
     98  CA        18.8660   24.2180  154.7420 C.3   164  ALA164      0.1597
     99  C         18.9810   25.3610  153.7070 C.2   164  ALA164      0.2287
    100  O         18.1630   26.1930  153.6420 O.2   164  ALA164     -0.2864
    101  CB        19.7130   24.5630  156.0670 C.3   164  ALA164      0.0319
    102  N         16.1270   24.9030  151.4050 N.3   167  GLN167     -0.1245
    103  CA        14.8940   25.4020  151.9800 C.3   167  GLN167      0.1566
    104  C         14.7790   26.9380  151.9050 C.2   167  GLN167      0.2260
    105  O         13.6990   27.4980  151.7700 O.2   167  GLN167     -0.2867
    106  CB        14.7480   24.8810  153.4150 C.3   167  GLN167      0.0367
    107  CG        13.5520   25.4000  154.1520 C.3   167  GLN167      0.0905
    108  CD        12.2510   24.8970  153.5690 C.2   167  GLN167      0.2608
    109  OE1       12.2300   24.2290  152.4980 O.2   167  GLN167     -0.2717
    110  NE2       11.1560   25.2490  154.2230 N.am  167  GLN167     -0.0878
    111  N         13.6190   27.6040  148.4600 N.3   170  ASP170     -0.1239
    112  CA        12.2290   27.2580  148.3710 C.3   170  ASP170      0.1674
    113  C         11.3050   28.3260  148.9670 C.2   170  ASP170      0.2266
    114  O         10.2960   28.6790  148.3770 O.2   170  ASP170     -0.2867
    115  CB        11.9930   25.9320  149.0230 C.3   170  ASP170      0.1410
    116  CG        10.5020   25.5720  149.1200 C.2   170  ASP170      0.3668
    117  OD1       10.0530   24.7150  148.3290 O.co2 170  ASP170     -0.2456
    118  OD2        9.7790   26.1610  149.9720 O.co2 170  ASP170     -0.2456
    119  N         17.2110   21.3900  148.2880 N.3   207  LYS207     -0.1231
    120  CA        16.2290   21.0470  149.3010 C.3   207  LYS207      0.1693
    121  C         15.8700   19.5500  149.4160 C.2   207  LYS207      0.2592
    122  O         15.4110   19.1290  150.4750 O.2   207  LYS207     -0.2718
    123  CB        14.9530   21.8750  149.1280 C.3   207  LYS207      0.0285
    124  CG        13.9200   21.2530  148.2010 C.3   207  LYS207      0.0035
    125  CD        12.5030   21.7460  148.5050 C.3   207  LYS207      0.0206
    126  CE        11.5520   21.5340  147.2930 C.3   207  LYS207      0.1093
    127  NZ        10.1310   22.0410  147.7510 N.3   207  LYS207     -0.1314
    128  N         16.0100   18.7600  148.3490 N.am  208  THR208     -0.1953
    129  CA        15.6370   17.3390  148.4810 C.3   208  THR208      0.1897
    130  C         16.7370   16.3210  148.1730 C.2   208  THR208      0.2313
    131  O         16.8510   15.3390  148.8520 O.2   208  THR208     -0.2863
    132  CB        14.2080   17.0080  147.8160 C.3   208  THR208      0.1794
    133  OG1       14.1470   15.6290  147.3490 O.3   208  THR208     -0.2208
    134  CG2       14.0060   17.8690  146.6970 C.3   208  THR208      0.0378
    135  N         19.6960   14.9200  150.8010 N.3   211  TYR211     -0.1241
    136  CA        19.3300   14.1860  152.0050 C.3   211  TYR211      0.1605
    137  C         18.4510   13.0040  151.6960 C.2   211  TYR211      0.2264
    138  O         18.3840   12.0620  152.4660 O.2   211  TYR211     -0.2867
    139  CB        18.7340   15.1250  153.0670 C.3   211  TYR211      0.0534
    140  CG        17.2070   15.1950  153.1540 C.ar  211  TYR211     -0.0201
    141  CD1       16.4560   14.2250  153.8600 C.ar  211  TYR211     -0.0009
    142  CD2       16.5150   16.2200  152.4810 C.ar  211  TYR211     -0.0009
    143  CE1       15.0560   14.2910  153.8680 C.ar  211  TYR211      0.0417
    144  CE2       15.1410   16.3150  152.5110 C.ar  211  TYR211      0.0417
    145  CZ        14.4330   15.3760  153.1630 C.ar  211  TYR211      0.1957
    146  OH        13.1010   15.6250  153.1680 O.3   211  TYR211     -0.2866
    147  N         12.0690   12.6490  142.0020 N.3   246  PHE246     -0.1227
    148  CA        11.3150   12.4680  143.2720 C.3   246  PHE246      0.1736
    149  C         10.5230   13.7190  143.6930 C.2   246  PHE246      0.2595
    150  O          9.3530   13.6210  144.0450 O.2   246  PHE246     -0.2718
    151  CB        12.2380   12.0200  144.3900 C.3   246  PHE246      0.0547
    152  CG        11.5400   11.7920  145.7380 C.ar  246  PHE246     -0.0202
    153  CD1       11.4300   12.8240  146.6780 C.ar  246  PHE246     -0.0042
    154  CD2       11.0550   10.5530  146.0750 C.ar  246  PHE246     -0.0042
    155  CE1       10.8220   12.6010  147.9490 C.ar  246  PHE246     -0.0003
    156  CE2       10.4400   10.3190  147.3470 C.ar  246  PHE246     -0.0003
    157  CZ        10.3300   11.3590  148.2680 C.ar  246  PHE246     -0.0000
    158  N         11.1740   14.8780  143.6420 N.am  247  GLN247     -0.1979
    159  CA        10.5410   16.1450  143.9570 C.3   247  GLN247      0.1601
    160  C          9.5170   16.5780  142.9040 C.2   247  GLN247      0.2287
    161  O          8.5050   17.2060  143.2480 O.2   247  GLN247     -0.2864
    162  CB        11.5980   17.2410  144.1390 C.3   247  GLN247      0.0394
    163  CG        11.0200   18.5280  144.6980 C.3   247  GLN247      0.0908
    164  CD        10.4160   18.3130  146.0990 C.2   247  GLN247      0.2608
    165  OE1       11.0660   17.7670  146.9780 O.2   247  GLN247     -0.2717
    166  NE2        9.1660   18.7440  146.2890 N.am  247  GLN247     -0.0878
    167  N          6.4540   14.8500  143.7700 N.3   250  ASP250     -0.1225
    168  CA         5.9230   15.4790  145.0010 C.3   250  ASP250      0.1805
    169  C          5.0810   16.6780  144.5710 C.2   250  ASP250      0.2597
    170  O          3.9600   16.8420  145.0450 O.2   250  ASP250     -0.2718
    171  CB         7.0940   15.9360  145.9160 C.3   250  ASP250      0.1424
    172  CG         6.6330   16.3910  147.3200 C.2   250  ASP250      0.3668
    173  OD1        6.0530   15.5770  148.0330 O.co2 250  ASP250     -0.2456
    174  OD2        6.8790   17.5620  147.7480 O.co2 250  ASP250     -0.2456
    175  N          5.6230   17.4880  143.6430 N.am  251  ASP251     -0.1974
    176  CA         4.9190   18.6470  143.1230 C.3   251  ASP251      0.1709
    177  C          3.6050   18.2870  142.3960 C.2   251  ASP251      0.2293
    178  O          2.5930   18.9400  142.5910 O.2   251  ASP251     -0.2864
    179  CB         5.8100   19.4790  142.2120 C.3   251  ASP251      0.1436
    180  CG         6.9560   20.1600  142.9600 C.2   251  ASP251      0.3671
    181  OD1        7.1530   20.0140  144.2010 O.co2 251  ASP251     -0.2456
    182  OD2        7.7150   20.8330  142.2620 O.co2 251  ASP251     -0.2456
    183  N          1.0160   17.1080  144.9190 N.3   254  ASP254     -0.1239
    184  CA         0.4550   18.2290  145.6870 C.3   254  ASP254      0.1674
    185  C         -0.8260   18.7830  145.0390 C.2   254  ASP254      0.2266
    186  O         -1.8210   19.0780  145.7380 O.2   254  ASP254     -0.2867
    187  CB         1.5090   19.3350  145.8910 C.3   254  ASP254      0.1410
    188  CG         1.0480   20.4370  146.8650 C.2   254  ASP254      0.3668
    189  OD1        1.3390   20.2850  148.0850 O.co2 254  ASP254     -0.2456
    190  OD2        0.4180   21.4560  146.4170 O.co2 254  ASP254     -0.2456
    191  N         -1.0240   14.1340  153.1660 N.3   264  LYS264     -0.1245
    192  CA        -0.8260   15.5530  153.4470 C.3   264  LYS264      0.1561
    193  C         -1.8100   16.3180  152.5440 C.2   264  LYS264      0.2260
    194  O         -2.3090   15.7530  151.5770 O.2   264  LYS264     -0.2867
    195  CB         0.6610   15.9840  153.2460 C.3   264  LYS264      0.0271
    196  CG         1.2610   15.7840  151.8710 C.3   264  LYS264      0.0035
    197  CD         2.7550   15.3980  151.9540 C.3   264  LYS264      0.0206
    198  CE         3.4890   15.6940  150.6400 C.3   264  LYS264      0.1093
    199  NZ         4.9360   15.2350  150.5580 N.3   264  LYS264     -0.1314
    200  N          0.9390   24.1940  147.5530 N.3   268  ASP268     -0.1239
    201  CA         1.8230   24.8430  146.5910 C.3   268  ASP268      0.1674
    202  C          1.1410   25.9940  145.8220 C.2   268  ASP268      0.2266
    203  O          1.7280   27.0780  145.7110 O.2   268  ASP268     -0.2867
    204  CB         2.4750   23.8440  145.6250 C.3   268  ASP268      0.1410
    205  CG         3.5130   22.9220  146.2950 C.2   268  ASP268      0.3668
    206  OD1        3.9040   23.1080  147.4870 O.co2 268  ASP268     -0.2456
    207  OD2        3.9460   21.9830  145.5820 O.co2 268  ASP268     -0.2456
    208  N          4.1890   28.5490  145.2720 N.3   273  LYS273     -0.1245
    209  CA         5.4690   27.8360  145.1600 C.3   273  LYS273      0.1561
    210  C          5.9430   27.7620  143.7100 C.2   273  LYS273      0.2260
    211  O          5.1490   27.5980  142.7880 O.2   273  LYS273     -0.2867
    212  CB         5.3720   26.4410  145.8480 C.3   273  LYS273      0.0271
    213  CG         5.2290   26.5320  147.4350 C.3   273  LYS273      0.0035
    214  CD         6.5630   26.9420  148.0490 C.3   273  LYS273      0.0206
    215  CE         6.4610   27.5430  149.4310 C.3   273  LYS273      0.1093
    216  NZ         6.5410   26.6350  150.5960 N.3   273  LYS273     -0.1314
@<TRIPOS>BOND
     1   147   148    1
     2   179   180    1
     3   179   176    1
     4   182   180   ar
     5   177   178    2
     6   177   176    1
     7   211   210    2
     8   160   161    2
     9   160   159    1
    10   180   181   ar
    11   176   175    1
    12   148   149    1
    13   148   151    1
    14   158   149   am
    15   158   159    1
    16   175   169   am
    17   149   150    2
    18   210   209    1
    19   167   168    1
    20   159   162    1
    21   162   163    1
    22   151   152    1
    23   169   168    1
    24   169   170    2
    25   163   164    1
    26   183   184    1
    27   168   171    1
    28   185   184    1
    29   185   186    2
    30   209   208    1
    31   209   212    1
    32   207   205   ar
    33   204   205    1
    34   204   201    1
    35   184   187    1
    36   203   202    2
    37   152   154   ar
    38   152   153   ar
    39   202   201    1
    40   212   213    1
    41   187   188    1
    42   171   172    1
    43   154   156   ar
    44   164   166   am
    45   164   165    2
    46   205   206   ar
    47   190   188   ar
    48   201   200    1
    49   153   155   ar
    50   134   132    1
    51   188   189   ar
    52   126   127    1
    53   126   125    1
    54   172   174   ar
    55   172   173   ar
    56   156   157   ar
    57   133   132    1
    58   213   214    1
    59   132   129    1
    60   155   157   ar
    61   214   215    1
    62   130   129    1
    63   130   131    2
    64   124   125    1
    65   124   123    1
    66   119   120    1
    67   117   116   ar
    68   128   129    1
    69   128   121   am
    70   112   111    1
    71   112   113    1
    72   112   115    1
    73   114   113    2
    74   115   116    1
    75   116   118   ar
    76   123   120    1
    77   120   121    1
    78   121   122    2
    79   215   216    1
    80   199   198    1
    81   198   197    1
    82   135   136    1
    83    11     9    1
    84   102   103    1
    85   194   193    2
    86   137   136    1
    87   137   138    2
    88   105   104    2
    89   196   197    1
    90   196   195    1
    91   104   103    1
    92   103   106    1
    93   136   139    1
    94     9    10    1
    95     9     8    2
    96    90    91    1
    97   142   144   ar
    98   142   140   ar
    99   109   108    2
   100   144   145   ar
   101   193   192    1
   102    91    92    1
   103    91    94    1
   104    93    92    2
   105     8     7    1
   106     6     7    1
   107     6     5    1
   108     1     2    1
   109    95    94    1
   110    72    70   ar
   111   139   140    1
   112     2     5    1
   113     2     3    1
   114    92    97   am
   115   140   141   ar
   116   145   146    1
   117   145   143   ar
   118   191   192    1
   119   195   192    1
   120    71    70   ar
   121    70    69    1
   122   106   107    1
   123    96    94    1
   124   108   107    1
   125   108   110   am
   126   100    99    2
   127    99    98    1
   128     4     3    2
   129   141   143   ar
   130    47    46   ar
   131    69    66    1
   132    97    98    1
   133    48    46   ar
   134    89    87    1
   135    68    67    2
   136    98   101    1
   137    46    45    1
   138    66    67    1
   139    66    65    1
   140    78    77    1
   141    88    87    1
   142    87    86    2
   143    60    59    2
   144    30    29    1
   145    65    59   am
   146    20    18   ar
   147    20    22   ar
   148    77    74    1
   149    45    42    1
   150    59    58    1
   151    18    17   ar
   152    86    85    1
   153    74    73    1
   154    74    75    1
   155    23    22    1
   156    29    31    1
   157    29    28    1
   158    44    43    2
   159    22    21   ar
   160    55    54   ar
   161    17    16    1
   162    17    19   ar
   163    61    58    1
   164    61    62    2
   165    16    13    1
   166    42    43    1
   167    42    41    1
   168    43    49   am
   169    21    19   ar
   170    58    57    1
   171    85    84    1
   172    80    79    1
   173    80    81    1
   174    80    83    1
   175    63    64    1
   176    63    62    1
   177    75    76    2
   178    81    82    2
   179    49    50    1
   180    84    83    1
   181    28    25    1
   182    15    14    2
   183    54    56   ar
   184    54    53    1
   185    50    51    1
   186    50    53    1
   187    25    24    1
   188    25    26    1
   189    14    24   am
   190    14    13    1
   191    52    51    2
   192    41    34   am
   193    13    12    1
   194    27    26    2
   195    35    34    2
   196    34    33    1
   197    33    36    1
   198    33    32    1
   199    36    37    1
   200    37    38    1
   201    38    39   ar
   202    38    40   ar
