@<TRIPOS>MOLECULE
tmp/3ictA02.pdb
 161 155 0 0 0
SMALL
GASTEIGER

@<TRIPOS>ATOM
      1  N         -3.5060   59.2080   49.8420 N.3   353  VAL353     -0.1231
      2  CA        -3.6260   58.3780   48.6650 C.3   353  VAL353      0.1692
      3  C         -2.3440   57.5700   48.5510 C.2   353  VAL353      0.2592
      4  O         -1.2840   58.0520   48.9490 O.2   353  VAL353     -0.2718
      5  CB        -3.9020   59.2290   47.4030 C.3   353  VAL353      0.0266
      6  CG1       -2.6490   59.9530   46.9340 C.3   353  VAL353      0.0020
      7  CG2       -4.4440   58.3670   46.2850 C.3   353  VAL353      0.0020
      8  N         -2.4520   56.3270   48.0960 N.am  354  HIS354     -0.1962
      9  CA        -1.2870   55.4640   47.8890 C.3   354  HIS354      0.1787
     10  C         -1.3010   55.0990   46.4190 C.2   354  HIS354      0.2620
     11  O         -2.2420   54.4670   45.9550 O.2   354  HIS354     -0.2715
     12  CB        -1.3950   54.1590   48.6870 C.3   354  HIS354      0.0785
     13  CG        -1.3140   54.3320   50.1710 C.ar  354  HIS354      0.0821
     14  ND1       -2.4020   54.7100   50.9370 N.ar  354  HIS354     -0.2267
     15  CD2       -0.2900   54.1440   51.0380 C.ar  354  HIS354      0.1154
     16  CE1       -2.0420   54.7660   52.2080 C.ar  354  HIS354      0.1986
     17  NE2       -0.7660   54.4250   52.2960 N.ar  354  HIS354     -0.2212
     18  N         -0.2780   55.5050   45.6840 N.am  355  VAL355     -0.1963
     19  CA        -0.1760   55.1570   44.2820 C.3   355  VAL355      0.1727
     20  C          1.1720   54.4580   44.0070 C.2   355  VAL355      0.2616
     21  O          2.2120   54.9670   44.3740 O.2   355  VAL355     -0.2715
     22  CB        -0.3280   56.4210   43.3860 C.3   355  VAL355      0.0290
     23  CG1       -0.1120   56.0850   41.9050 C.3   355  VAL355      0.0023
     24  CG2       -1.7220   57.0740   43.5820 C.3   355  VAL355      0.0023
     25  N          1.1270   53.2850   43.3850 N.am  356  GLN356     -0.1977
     26  CA         2.3280   52.5990   42.9100 C.3   356  GLN356      0.1601
     27  C          2.4250   52.7560   41.3910 C.2   356  GLN356      0.2287
     28  O          1.4580   52.5020   40.6680 O.2   356  GLN356     -0.2864
     29  CB         2.2700   51.1190   43.2800 C.3   356  GLN356      0.0394
     30  CG         3.3680   50.3150   42.6740 C.3   356  GLN356      0.0908
     31  CD         3.2550   48.8630   43.0100 C.2   356  GLN356      0.2608
     32  OE1        3.2580   48.4890   44.1790 O.2   356  GLN356     -0.2717
     33  NE2        3.1650   48.0240   41.9840 N.am  356  GLN356     -0.0878
     34  N          8.0480   49.4620   29.1710 N.3   363  TYR363     -0.1241
     35  CA         8.5740   48.7260   28.0330 C.3   363  TYR363      0.1605
     36  C         10.0800   48.8490   27.9500 C.2   363  TYR363      0.2264
     37  O         10.7020   48.2050   27.1040 O.2   363  TYR363     -0.2867
     38  CB         7.9330   49.2140   26.7400 C.3   363  TYR363      0.0534
     39  CG         7.9870   50.7090   26.5310 C.ar  363  TYR363     -0.0201
     40  CD1        9.1390   51.3250   26.0130 C.ar  363  TYR363     -0.0009
     41  CD2        6.8950   51.5110   26.8400 C.ar  363  TYR363     -0.0009
     42  CE1        9.1890   52.6990   25.8100 C.ar  363  TYR363      0.0417
     43  CE2        6.9380   52.8850   26.6460 C.ar  363  TYR363      0.0417
     44  CZ         8.0880   53.4660   26.1220 C.ar  363  TYR363      0.1957
     45  OH         8.1270   54.8320   25.9310 O.3   363  TYR363     -0.2866
     46  N         10.4680   63.6740   30.0410 N.3   420  TYR420     -0.1241
     47  CA        10.0970   62.3340   29.6050 C.3   420  TYR420      0.1605
     48  C         10.9680   61.7180   28.5050 C.2   420  TYR420      0.2264
     49  O         10.9400   62.1420   27.3500 O.2   420  TYR420     -0.2867
     50  CB         8.6440   62.2390   29.1740 C.3   420  TYR420      0.0534
     51  CG         8.3590   60.8920   28.5390 C.ar  420  TYR420     -0.0201
     52  CD1        8.0200   60.7810   27.2010 C.ar  420  TYR420     -0.0009
     53  CD2        8.4810   59.7230   29.2770 C.ar  420  TYR420     -0.0009
     54  CE1        7.7720   59.5430   26.6300 C.ar  420  TYR420      0.0417
     55  CE2        8.2390   58.4840   28.7090 C.ar  420  TYR420      0.0417
     56  CZ         7.8920   58.4000   27.3920 C.ar  420  TYR420      0.1957
     57  OH         7.6510   57.1480   26.8610 O.3   420  TYR420     -0.2866
     58  N         11.9950   57.3760   27.7400 N.3   422  PRO422     -0.2116
     59  CA        11.7970   56.0000   28.2360 C.3   422  PRO422      0.1372
     60  C         12.7120   55.5410   29.3910 C.2   422  PRO422      0.2244
     61  O         12.2050   54.9530   30.3270 O.2   422  PRO422     -0.2868
     62  CB        11.9770   55.1370   26.9740 C.3   422  PRO422      0.0268
     63  CG        11.5230   56.0530   25.8350 C.3   422  PRO422      0.0207
     64  CD        11.8720   57.4610   26.2630 C.3   422  PRO422      0.0892
     65  N          5.2600   59.0970   30.3410 N.3   427  ALA427     -0.1231
     66  CA         4.6000   60.2960   29.8240 C.3   427  ALA427      0.1694
     67  C          3.8410   61.0440   30.9270 C.2   427  ALA427      0.2591
     68  O          3.7530   62.2720   30.8960 O.2   427  ALA427     -0.2718
     69  CB         3.6800   59.9310   28.6740 C.3   427  ALA427      0.0304
     70  N          3.2760   60.2920   31.8790 N.am  428  LYS428     -0.1980
     71  CA         2.8390   60.8320   33.1650 C.3   428  LYS428      0.1596
     72  C          3.7220   60.2350   34.2520 C.2   428  LYS428      0.2287
     73  O          3.6130   59.0430   34.5560 O.2   428  LYS428     -0.2864
     74  CB         1.3690   60.4890   33.4400 C.3   428  LYS428      0.0298
     75  CG         0.3920   61.1030   32.4450 C.3   428  LYS428      0.0038
     76  CD        -1.0190   60.5740   32.6160 C.3   428  LYS428      0.0206
     77  CE        -1.9150   61.1790   31.5540 C.3   428  LYS428      0.1093
     78  NZ        -3.1510   60.3770   31.3110 N.3   428  LYS428     -0.1314
     79  N         -2.8760   63.3280   40.2710 N.3   435  TYR435     -0.1227
     80  CA        -4.2030   63.0290   39.6890 C.3   435  TYR435      0.1736
     81  C         -5.0580   62.2600   40.6490 C.2   435  TYR435      0.2595
     82  O         -6.2530   62.5430   40.7970 O.2   435  TYR435     -0.2718
     83  CB        -4.0990   62.2130   38.4000 C.3   435  TYR435      0.0548
     84  CG        -3.6140   62.9990   37.2030 C.ar  435  TYR435     -0.0200
     85  CD1       -4.2840   64.1530   36.7760 C.ar  435  TYR435     -0.0009
     86  CD2       -2.5290   62.5710   36.4650 C.ar  435  TYR435     -0.0009
     87  CE1       -3.8360   64.8780   35.6460 C.ar  435  TYR435      0.0417
     88  CE2       -2.0770   63.2930   35.3390 C.ar  435  TYR435      0.0417
     89  CZ        -2.7230   64.4330   34.9500 C.ar  435  TYR435      0.1957
     90  OH        -2.2880   65.1290   33.8340 O.3   435  TYR435     -0.2866
     91  N         -4.4810   61.2420   41.2700 N.am  436  ALA436     -0.1980
     92  CA        -5.2120   60.4660   42.2790 C.3   436  ALA436      0.1597
     93  C         -5.7450   61.3790   43.4000 C.2   436  ALA436      0.2287
     94  O         -6.9400   61.3180   43.7530 O.2   436  ALA436     -0.2864
     95  CB        -4.3250   59.3220   42.8300 C.3   436  ALA436      0.0319
     96  N         -8.5500   63.7180   42.1400 N.3   439  ASN439     -0.1240
     97  CA        -9.8040   62.9780   42.0590 C.3   439  ASN439      0.1653
     98  C        -10.5200   62.8850   43.4000 C.2   439  ASN439      0.2266
     99  O        -11.7690   62.8840   43.4670 O.2   439  ASN439     -0.2867
    100  CB        -9.5650   61.5950   41.4560 C.3   439  ASN439      0.1155
    101  CG        -9.2210   61.6620   39.9750 C.2   439  ASN439      0.2627
    102  OD1       -9.5240   62.6290   39.3100 O.2   439  ASN439     -0.2716
    103  ND2       -8.6130   60.6260   39.4610 N.am  439  ASN439     -0.0877
    104  N        -14.0230   60.3930   43.3350 N.3   445  VAL445     -0.1245
    105  CA       -13.8850   59.0970   43.9990 C.3   445  VAL445      0.1561
    106  C        -13.7810   59.2390   45.5090 C.2   445  VAL445      0.2260
    107  O        -13.1790   60.1870   46.0070 O.2   445  VAL445     -0.2867
    108  CB       -12.6760   58.2770   43.4600 C.3   445  VAL445      0.0252
    109  CG1      -11.3210   58.8830   43.9130 C.3   445  VAL445      0.0019
    110  CG2      -12.7920   56.8010   43.8840 C.3   445  VAL445      0.0019
    111  N         -3.6950   47.2230   42.8370 N.3   506  LEU506     -0.1231
    112  CA        -3.0010   48.4790   43.1570 C.3   506  LEU506      0.1693
    113  C         -3.9360   49.6690   43.4130 C.2   506  LEU506      0.2592
    114  O         -3.5080   50.6930   43.9410 O.2   506  LEU506     -0.2718
    115  CB        -1.9930   48.8420   42.0480 C.3   506  LEU506      0.0284
    116  CG        -0.9470   47.7890   41.6820 C.3   506  LEU506      0.0019
    117  CD1       -0.0130   48.3260   40.6350 C.3   506  LEU506      0.0001
    118  CD2       -0.1480   47.3670   42.8920 C.3   506  LEU506      0.0001
    119  N         -5.2090   49.5540   43.0430 N.am  507  GLY507     -0.1957
    120  CA        -6.1530   50.6550   43.2570 C.3   507  GLY507      0.1869
    121  C         -6.6290   51.3000   41.9610 C.2   507  GLY507      0.2309
    122  O         -7.7260   51.8800   41.9140 O.2   507  GLY507     -0.2863
    123  N        -10.3710   52.0630   40.9580 N.3   510  TYR510     -0.1227
    124  CA       -10.8450   53.4150   40.6610 C.3   510  TYR510      0.1736
    125  C        -11.6990   53.5010   39.3800 C.2   510  TYR510      0.2595
    126  O        -12.7420   54.1210   39.3840 O.2   510  TYR510     -0.2718
    127  CB        -9.6890   54.3920   40.5960 C.3   510  TYR510      0.0548
    128  CG        -9.9630   55.6900   39.8460 C.ar  510  TYR510     -0.0200
    129  CD1      -10.8390   56.6410   40.3460 C.ar  510  TYR510     -0.0009
    130  CD2       -9.3090   55.9710   38.6620 C.ar  510  TYR510     -0.0009
    131  CE1      -11.0720   57.8190   39.6750 C.ar  510  TYR510      0.0417
    132  CE2       -9.5390   57.1420   37.9830 C.ar  510  TYR510      0.0417
    133  CZ       -10.4230   58.0520   38.4930 C.ar  510  TYR510      0.1957
    134  OH       -10.6130   59.2240   37.8370 O.3   510  TYR510     -0.2866
    135  N        -11.2260   52.9090   38.2890 N.am  511  VAL511     -0.1980
    136  CA       -11.9780   52.8930   37.0290 C.3   511  VAL511      0.1595
    137  C        -13.3220   52.1950   37.2270 C.2   511  VAL511      0.2287
    138  O        -14.3600   52.6890   36.7760 O.2   511  VAL511     -0.2864
    139  CB       -11.1540   52.2090   35.9050 C.3   511  VAL511      0.0276
    140  CG1      -12.0000   52.0370   34.6420 C.3   511  VAL511      0.0022
    141  CG2       -9.9340   53.0360   35.6020 C.3   511  VAL511      0.0022
    142  N        -13.5870   53.0090   46.7510 N.3   523  ASN523     -0.1240
    143  CA       -12.3960   52.2530   46.3370 C.3   523  ASN523      0.1653
    144  C        -11.4630   52.0420   47.5300 C.2   523  ASN523      0.2266
    145  O        -11.2890   52.9440   48.3640 O.2   523  ASN523     -0.2867
    146  CB       -11.6740   53.0240   45.2130 C.3   523  ASN523      0.1155
    147  CG       -10.5230   52.2320   44.5670 C.2   523  ASN523      0.2627
    148  OD1      -10.5610   50.9930   44.4400 O.2   523  ASN523     -0.2716
    149  ND2       -9.4920   52.9620   44.1340 N.am  523  ASN523     -0.0877
    150  N         -8.1350   52.1380   48.8370 N.3   525  ASP525     -0.1225
    151  CA        -6.8730   52.8060   48.5160 C.3   525  ASP525      0.1805
    152  C         -5.6940   51.8310   48.6910 C.2   525  ASP525      0.2598
    153  O         -5.5500   51.2050   49.7350 O.2   525  ASP525     -0.2718
    154  CB        -6.7330   54.0230   49.4250 C.3   525  ASP525      0.1424
    155  CG        -5.4500   54.7990   49.2040 C.2   525  ASP525      0.3668
    156  OD1       -4.9700   54.9190   48.0350 O.co2 525  ASP525     -0.2456
    157  OD2       -4.9430   55.3180   50.2300 O.co2 525  ASP525     -0.2456
    158  N         -4.8760   51.7130   47.6460 N.am  526  GLY526     -0.1957
    159  CA        -3.7090   50.8430   47.6500 C.3   526  GLY526      0.1869
    160  C         -4.0130   49.4310   47.1810 C.2   526  GLY526      0.2309
    161  O         -3.1100   48.6710   46.9360 O.2   526  GLY526     -0.2863
@<TRIPOS>BOND
     1    42    40   ar
     2    42    44   ar
     3    63    64    1
     4    63    62    1
     5    45    44    1
     6    40    39   ar
     7    44    43   ar
     8    64    58    1
     9    39    38    1
    10    39    41   ar
    11    54    52   ar
    12    54    56   ar
    13    43    41   ar
    14    38    35    1
    15    57    56    1
    16    62    59    1
    17    37    36    2
    18    52    51   ar
    19    49    48    2
    20    56    55   ar
    21    58    59    1
    22    36    35    1
    23    35    34    1
    24    59    60    1
    25    48    47    1
    26    51    50    1
    27    51    53   ar
    28    69    66    1
    29    55    53   ar
    30    50    47    1
    31    60    61    2
    32    47    46    1
    33    66    65    1
    34    66    67    1
    35    68    67    2
    36    67    70   am
    37    78    77    1
    38    77    76    1
    39    70    71    1
    40    75    76    1
    41    75    74    1
    42    71    74    1
    43    71    72    1
    44    90    89    1
    45    72    73    2
    46   140   139    1
    47    89    88   ar
    48    89    87   ar
    49    88    86   ar
    50   141   139    1
    51    87    85   ar
    52   139   136    1
    53    86    84   ar
    54    85    84   ar
    55   138   137    2
    56   136   137    1
    57   136   135    1
    58    84    83    1
    59   134   133    1
    60   132   133   ar
    61   132   130   ar
    62   135   125   am
    63    83    80    1
    64   133   131   ar
    65   130   128   ar
    66   102   101    2
    67   125   126    2
    68   125   124    1
    69   103   101   am
    70   131   129   ar
    71    80    79    1
    72    80    81    1
    73   128   129   ar
    74   128   127    1
    75   101   100    1
    76   127   124    1
    77   117   116    1
    78    81    82    2
    79    81    91   am
    80   124   123    1
    81    28    27    2
    82    91    92    1
    83    27    26    1
    84   100    97    1
    85   116   115    1
    86   116   118    1
    87    23    22    1
    88   122   121    2
    89   121   120    1
    90    33    31   am
    91   115   112    1
    92    97    96    1
    93    97    98    1
    94    92    95    1
    95    92    93    1
    96    30    31    1
    97    30    29    1
    98   111   112    1
    99    26    29    1
   100    26    25    1
   101    31    32    2
   102   119   120    1
   103   119   113   am
   104   112   113    1
   105   104   105    1
   106    25    20   am
   107    22    24    1
   108    22    19    1
   109    98    99    2
   110    93    94    2
   111   113   114    2
   112   108   110    1
   113   108   109    1
   114   108   105    1
   115   105   106    1
   116    20    19    1
   117    20    21    2
   118   149   147   am
   119    19    18    1
   120   148   147    2
   121   147   146    1
   122   146   143    1
   123   106   107    2
   124    18    10   am
   125    11    10    2
   126     7     5    1
   127   143   142    1
   128   143   144    1
   129    10     9    1
   130     6     5    1
   131   161   160    2
   132   160   159    1
   133     5     2    1
   134   144   145    2
   135   158   159    1
   136   158   152   am
   137     9     8    1
   138     9    12    1
   139   156   155   ar
   140     8     3   am
   141   151   152    1
   142   151   150    1
   143   151   154    1
   144     3     2    1
   145     3     4    2
   146     2     1    1
   147    12    13    1
   148   152   153    2
   149   155   154    1
   150   155   157   ar
   151    13    14   ar
   152    13    15   ar
   153    14    16   ar
   154    15    17   ar
   155    16    17   ar
