@<TRIPOS>MOLECULE
tmp/3ictB03.pdb
 154 148 0 0 0
SMALL
GASTEIGER

@<TRIPOS>ATOM
      1  N         13.5050   66.7970    2.8840 N.3   118  PRO118     -0.2116
      2  CA        14.1040   67.8760    2.0980 C.3   118  PRO118      0.1372
      3  C         14.1730   67.5300    0.6120 C.2   118  PRO118      0.2244
      4  O         14.0610   66.3600    0.2390 O.2   118  PRO118     -0.2868
      5  CB        15.5180   67.9810    2.6810 C.3   118  PRO118      0.0268
      6  CG        15.8520   66.5880    3.0820 C.3   118  PRO118      0.0207
      7  CD        14.5370   65.9450    3.5130 C.3   118  PRO118      0.0892
      8  N         16.3790   66.8670   -1.8310 N.3   120  ILE120     -0.1245
      9  CA        17.7310   66.4590   -2.1830 C.3   120  ILE120      0.1561
     10  C         17.6850   65.6490   -3.4730 C.2   120  ILE120      0.2260
     11  O         16.9720   64.6520   -3.5450 O.2   120  ILE120     -0.2867
     12  CB        18.4010   65.6220   -1.0700 C.3   120  ILE120      0.0252
     13  CG1       18.6460   66.4810    0.1710 C.3   120  ILE120      0.0019
     14  CG2       19.7220   65.0220   -1.5620 C.3   120  ILE120      0.0019
     15  CD1       18.8830   65.6580    1.4410 C.3   120  ILE120      0.0001
     16  N         21.2090   61.9290    9.0230 N.3   156  ILE156     -0.1231
     17  CA        21.0590   63.3130    8.6190 C.3   156  ILE156      0.1692
     18  C         20.1780   64.0540    9.6210 C.2   156  ILE156      0.2593
     19  O         18.9770   63.7970    9.7210 O.2   156  ILE156     -0.2718
     20  CB        20.4480   63.4360    7.2200 C.3   156  ILE156      0.0266
     21  CG1       21.2850   62.6730    6.1990 C.3   156  ILE156      0.0019
     22  CG2       20.3640   64.9110    6.8180 C.3   156  ILE156      0.0020
     23  CD1       20.4900   62.2550    4.9470 C.3   156  ILE156      0.0001
     24  N         20.7880   64.9810   10.3480 N.am  157  GLY157     -0.1942
     25  CA        20.0730   65.7990   11.3160 C.3   157  GLY157      0.2014
     26  C         20.4710   65.3620   12.7010 C.2   157  GLY157      0.2639
     27  O         20.3230   64.1900   13.0540 O.2   157  GLY157     -0.2714
     28  N         21.0010   66.3080   13.4730 N.am  158  GLY158     -0.1939
     29  CA        21.5600   66.0270   14.7920 C.3   158  GLY158      0.2014
     30  C         20.6960   66.5190   15.9380 C.2   158  GLY158      0.2639
     31  O         21.2140   67.0290   16.9190 O.2   158  GLY158     -0.2714
     32  N         19.3830   66.3570   15.8280 N.am  159  GLY159     -0.1939
     33  CA        18.4770   66.7390   16.9070 C.3   159  GLY159      0.2014
     34  C         18.2260   65.5570   17.8100 C.2   159  GLY159      0.2639
     35  O         18.9710   64.5860   17.7880 O.2   159  GLY159     -0.2714
     36  N         17.1650   65.6190   18.6050 N.am  160  PHE160     -0.1959
     37  CA        16.8980   64.5380   19.5500 C.3   160  PHE160      0.1771
     38  C         16.6950   63.1790   18.8750 C.2   160  PHE160      0.2619
     39  O         17.3320   62.2060   19.2860 O.2   160  PHE160     -0.2715
     40  CB        15.7780   64.9150   20.5390 C.3   160  PHE160      0.0574
     41  CG        16.2760   65.7530   21.6930 C.ar  160  PHE160     -0.0200
     42  CD1       16.4780   65.1870   22.9470 C.ar  160  PHE160     -0.0042
     43  CD2       16.6070   67.1020   21.5070 C.ar  160  PHE160     -0.0042
     44  CE1       16.9720   65.9620   24.0180 C.ar  160  PHE160     -0.0003
     45  CE2       17.1020   67.8790   22.5640 C.ar  160  PHE160     -0.0003
     46  CZ        17.2860   67.3090   23.8230 C.ar  160  PHE160     -0.0000
     47  N         15.8710   63.1140   17.8230 N.am  161  ILE161     -0.1963
     48  CA        15.6480   61.8520   17.1050 C.3   161  ILE161      0.1727
     49  C         16.9660   61.3230   16.5480 C.2   161  ILE161      0.2616
     50  O         17.3140   60.1690   16.7870 O.2   161  ILE161     -0.2715
     51  CB        14.6040   61.9660   15.9370 C.3   161  ILE161      0.0290
     52  CG1       13.1870   62.2100   16.4850 C.3   161  ILE161      0.0022
     53  CG2       14.6470   60.7000   15.0210 C.3   161  ILE161      0.0023
     54  CD1       12.1090   62.3020   15.4110 C.3   161  ILE161      0.0001
     55  N         17.6850   62.1790   15.8250 N.am  162  GLY162     -0.1955
     56  CA        18.9390   61.8210   15.1660 C.3   162  GLY162      0.1869
     57  C         19.9650   61.2120   16.1010 C.2   162  GLY162      0.2309
     58  O         20.5650   60.1780   15.7810 O.2   162  GLY162     -0.2863
     59  N         25.5130   63.8450   10.1340 N.3   178  VAL178     -0.1231
     60  CA        25.6670   65.0400    9.3060 C.3   178  VAL178      0.1692
     61  C         24.7140   66.0750    9.8520 C.2   178  VAL178      0.2591
     62  O         23.5140   65.8170    9.9520 O.2   178  VAL178     -0.2718
     63  CB        25.2890   64.7820    7.8050 C.3   178  VAL178      0.0266
     64  CG1       25.4060   66.0660    6.9880 C.3   178  VAL178      0.0020
     65  CG2       26.1370   63.6980    7.2000 C.3   178  VAL178      0.0020
     66  N         25.2360   67.2450   10.2090 N.am  179  GLU179     -0.1979
     67  CA        24.4060   68.2960   10.7900 C.3   179  GLU179      0.1602
     68  C         24.6370   69.6230   10.0770 C.2   179  GLU179      0.2287
     69  O         25.7690   69.9910    9.8360 O.2   179  GLU179     -0.2864
     70  CB        24.6840   68.4050   12.3010 C.3   179  GLU179      0.0415
     71  CG        24.0580   69.6130   12.9980 C.3   179  GLU179      0.1163
     72  CD        22.5390   69.6810   12.8790 C.2   179  GLU179      0.3649
     73  OE1       21.8730   68.6960   13.2560 O.co2 179  GLU179     -0.2457
     74  OE2       22.0040   70.7270   12.4250 O.co2 179  GLU179     -0.2457
     75  N         23.7990   72.6400   11.4250 N.3   180  ALA180     -0.1245
     76  CA        24.2400   73.5850   12.4380 C.3   180  ALA180      0.1562
     77  C         25.6680   73.2680   12.8590 C.2   180  ALA180      0.2260
     78  O         26.2430   72.2630   12.4190 O.2   180  ALA180     -0.2867
     79  CB        23.2720   73.5680   13.6340 C.3   180  ALA180      0.0290
     80  N         26.4030   72.3880   15.8320 N.3   182  GLN182     -0.1245
     81  CA        26.2460   71.5580   17.0130 C.3   182  GLN182      0.1566
     82  C         25.1240   70.5450   16.8390 C.2   182  GLN182      0.2260
     83  O         24.2240   70.7480   16.0370 O.2   182  GLN182     -0.2867
     84  CB        25.9170   72.4260   18.2490 C.3   182  GLN182      0.0367
     85  CG        24.7080   73.3370   18.0810 C.3   182  GLN182      0.0905
     86  CD        24.2080   73.9050   19.3910 C.2   182  GLN182      0.2608
     87  OE1       24.3050   75.1030   19.6230 O.2   182  GLN182     -0.2717
     88  NE2       23.6480   73.0540   20.2410 N.am  182  GLN182     -0.0878
     89  N         19.7700   71.3440   19.0450 N.3   184  PRO184     -0.2103
     90  CA        19.4790   72.7890   19.0880 C.3   184  PRO184      0.1489
     91  C         18.9670   73.3640   20.4190 C.2   184  PRO184      0.2417
     92  O         19.3250   74.4930   20.7180 O.2   184  PRO184     -0.2734
     93  CB        18.4250   72.9870   17.9900 C.3   184  PRO184      0.0282
     94  CG        17.9320   71.6060   17.6300 C.3   184  PRO184      0.0208
     95  CD        19.0570   70.6660   17.9370 C.3   184  PRO184      0.0893
     96  N         18.1290   72.6210   21.2030 N.am  185  PRO185     -0.2729
     97  CA        17.6640   73.1720   22.4820 C.3   185  PRO185      0.1401
     98  C         18.7730   73.4550   23.5000 C.2   185  PRO185      0.2269
     99  O         18.5560   74.2350   24.4360 O.2   185  PRO185     -0.2865
    100  CB        16.7870   72.0580   23.0400 C.3   185  PRO185      0.0296
    101  CG        16.3910   71.2750   21.8820 C.3   185  PRO185      0.0237
    102  CD        17.5510   71.2790   20.9920 C.3   185  PRO185      0.0939
    103  N         27.3840   71.2900    7.4590 N.3   207  ASP207     -0.1225
    104  CA        27.4260   70.5950    6.1830 C.3   207  ASP207      0.1805
    105  C         26.0340   70.0300    5.9460 C.2   207  ASP207      0.2598
    106  O         25.2430   69.8580    6.8770 O.2   207  ASP207     -0.2718
    107  CB        28.4310   69.4490    6.2510 C.3   207  ASP207      0.1424
    108  CG        29.3650   69.3820    5.0360 C.2   207  ASP207      0.3668
    109  OD1       28.9570   69.7540    3.9050 O.co2 207  ASP207     -0.2456
    110  OD2       30.5270   68.9280    5.2280 O.co2 207  ASP207     -0.2456
    111  N         25.7280   69.7560    4.6930 N.am  208  GLY208     -0.1942
    112  CA        24.4410   69.1880    4.3280 C.3   208  GLY208      0.2014
    113  C         24.6520   68.2620    3.1600 C.2   208  GLY208      0.2638
    114  O         25.7240   68.2330    2.5860 O.2   208  GLY208     -0.2714
    115  N         23.6380   67.4840    2.8320 N.am  209  VAL209     -0.1977
    116  CA        23.6960   66.6140    1.6730 C.3   209  VAL209      0.1596
    117  C         23.3740   67.4660    0.4480 C.2   209  VAL209      0.2287
    118  O         22.3770   68.1920    0.4390 O.2   209  VAL209     -0.2864
    119  CB        22.7100   65.4430    1.8100 C.3   209  VAL209      0.0276
    120  CG1       22.7720   64.5360    0.5990 C.3   209  VAL209      0.0022
    121  CG2       23.0040   64.6510    3.0880 C.3   209  VAL209      0.0022
    122  N         27.7940   69.1880    0.8410 N.3   222  LYS222     -0.1245
    123  CA        28.0030   70.5550    0.3570 C.3   222  LYS222      0.1561
    124  C         29.4540   71.0100    0.4330 C.2   222  LYS222      0.2260
    125  O         29.9000   71.8260   -0.3790 O.2   222  LYS222     -0.2867
    126  CB        27.1340   71.5420    1.1340 C.3   222  LYS222      0.0271
    127  CG        25.6470   71.3330    0.9990 C.3   222  LYS222      0.0035
    128  CD        24.9180   72.5860    1.4720 C.3   222  LYS222      0.0206
    129  CE        23.4430   72.5770    1.0830 C.3   222  LYS222      0.1093
    130  NZ        22.6520   71.6510    1.9480 N.3   222  LYS222     -0.1314
    131  N         16.5550   62.5030    9.8710 N.3   234  ALA234     -0.1231
    132  CA        15.9380   63.0350   11.0840 C.3   234  ALA234      0.1694
    133  C         16.1200   64.5470   11.1700 C.2   234  ALA234      0.2592
    134  O         16.8990   65.0380   11.9850 O.2   234  ALA234     -0.2718
    135  CB        16.5160   62.3280   12.3220 C.3   234  ALA234      0.0304
    136  N         15.4010   65.2960   10.3370 N.am  235  ILE235     -0.1966
    137  CA        15.6620   66.7270   10.2550 C.3   235  ILE235      0.1727
    138  C         14.5360   67.6330   10.7620 C.2   235  ILE235      0.2617
    139  O         14.4370   68.7940   10.3610 O.2   235  ILE235     -0.2715
    140  CB        16.1050   67.1560    8.8340 C.3   235  ILE235      0.0290
    141  CG1       15.0120   66.8600    7.7980 C.3   235  ILE235      0.0022
    142  CG2       17.4210   66.4890    8.4530 C.3   235  ILE235      0.0023
    143  CD1       15.1780   67.6550    6.5060 C.3   235  ILE235      0.0001
    144  N         13.6950   67.1130   11.6470 N.am  236  GLY236     -0.1940
    145  CA        12.6110   67.8990   12.1840 C.3   236  GLY236      0.2014
    146  C         11.2710   67.3610   11.7680 C.2   236  GLY236      0.2638
    147  O         11.1680   66.4940   10.8970 O.2   236  GLY236     -0.2714
    148  N         10.2310   67.8700   12.4110 N.am  237  VAL237     -0.1977
    149  CA         8.8700   67.4300   12.1170 C.3   237  VAL237      0.1596
    150  C          8.0230   68.6600   11.8220 C.2   237  VAL237      0.2287
    151  O          8.3660   69.7730   12.2310 O.2   237  VAL237     -0.2864
    152  CB         8.2600   66.5850   13.2690 C.3   237  VAL237      0.0276
    153  CG1        9.1270   65.3390   13.5660 C.3   237  VAL237      0.0022
    154  CG2        8.0630   67.4250   14.5300 C.3   237  VAL237      0.0022
@<TRIPOS>BOND
     1    11    10    2
     2    10     9    1
     3     9     8    1
     4     9    12    1
     5    14    12    1
     6    12    13    1
     7   125   124    2
     8    13    15    1
     9     4     3    2
    10   123   124    1
    11   123   122    1
    12   123   126    1
    13   118   117    2
    14   117   116    1
    15   120   119    1
    16     3     2    1
    17   127   126    1
    18   127   128    1
    19   129   128    1
    20   129   130    1
    21   116   119    1
    22   116   115    1
    23   119   121    1
    24     2     5    1
    25     2     1    1
    26   114   113    2
    27     5     6    1
    28   115   113   am
    29     1     7    1
    30     6     7    1
    31   113   112    1
    32   109   108   ar
    33   112   111    1
    34   111   105   am
    35    23    21    1
    36   108   110   ar
    37   108   107    1
    38   105   104    1
    39   105   106    2
    40   104   107    1
    41   104   103    1
    42    21    20    1
    43   143   141    1
    44    22    20    1
    45    64    63    1
    46    65    63    1
    47    20    17    1
    48   141   140    1
    49    63    60    1
    50   142   140    1
    51    17    16    1
    52    17    18    1
    53   140   137    1
    54    60    61    1
    55    60    59    1
    56    18    19    2
    57    18    24   am
    58    69    68    2
    59    61    62    2
    60    61    66   am
    61   131   132    1
    62    68    67    1
    63    66    67    1
    64   137   136    1
    65   137   138    1
    66   136   133   am
    67    24    25    1
    68   139   138    2
    69   138   144   am
    70    67    70    1
    71   147   146    2
    72   132   133    1
    73   132   135    1
    74   133   134    2
    75    25    26    1
    76    75    76    1
    77   144   145    1
    78   146   145    1
    79   146   148   am
    80   150   149    1
    81   150   151    2
    82   149   148    1
    83   149   152    1
    84    70    71    1
    85    78    77    2
    86    74    72   ar
    87    76    77    1
    88    76    79    1
    89    26    27    2
    90    26    28   am
    91    72    71    1
    92    72    73   ar
    93   152   153    1
    94   152   154    1
    95    28    29    1
    96    29    30    1
    97    53    51    1
    98    56    55    1
    99    56    57    1
   100    54    52    1
   101    58    57    2
   102    55    49   am
   103    32    30   am
   104    32    33    1
   105    80    81    1
   106    51    52    1
   107    51    48    1
   108    30    31    2
   109    83    82    2
   110    49    50    2
   111    49    48    1
   112    82    81    1
   113    33    34    1
   114    81    84    1
   115    48    47    1
   116    94    95    1
   117    94    93    1
   118    35    34    2
   119    34    36   am
   120    47    38   am
   121    95    89    1
   122    93    90    1
   123    85    84    1
   124    85    86    1
   125    36    37    1
   126    38    39    2
   127    38    37    1
   128    89    90    1
   129    90    91    1
   130    86    87    2
   131    86    88   am
   132    37    40    1
   133    91    92    2
   134    91    96   am
   135    40    41    1
   136   102    96    1
   137   102   101    1
   138    96    97    1
   139    43    41   ar
   140    43    45   ar
   141    41    42   ar
   142   101   100    1
   143    97   100    1
   144    97    98    1
   145    45    46   ar
   146    42    44   ar
   147    98    99    2
   148    46    44   ar
