@<TRIPOS>MOLECULE
tmp/3ictA01.pdb
 137 129 0 0 0
SMALL
GASTEIGER

@<TRIPOS>ATOM
      1  N         31.7120   71.6900   62.3930 N.3    14  VAL14      -0.1231
      2  CA        31.2040   70.7260   61.4270 C.3    14  VAL14       0.1692
      3  C         30.0590   71.3860   60.6610 C.2    14  VAL14       0.2591
      4  O         30.1460   72.5630   60.3470 O.2    14  VAL14      -0.2718
      5  CB        30.8350   69.3830   62.0990 C.3    14  VAL14       0.0266
      6  CG1       30.6850   68.2870   61.0540 C.3    14  VAL14       0.0020
      7  CG2       31.9140   68.9860   63.0660 C.3    14  VAL14       0.0020
      8  N         28.9950   70.6620   60.3590 N.am   15  ALA15      -0.1980
      9  CA        27.8850   71.2070   59.5540 C.3    15  ALA15       0.1597
     10  C         27.5270   72.6960   59.7800 C.2    15  ALA15       0.2287
     11  O         27.7650   73.5280   58.9100 O.2    15  ALA15      -0.2864
     12  CB        26.6660   70.3320   59.6790 C.3    15  ALA15       0.0319
     13  N         31.1180   75.1520   60.2990 N.3    18  ALA18      -0.1231
     14  CA        31.9330   75.3100   59.0900 C.3    18  ALA18       0.1694
     15  C         31.2240   76.1420   58.0310 C.2    18  ALA18       0.2592
     16  O         31.8350   76.9900   57.3910 O.2    18  ALA18      -0.2718
     17  CB        32.3110   73.9640   58.5240 C.3    18  ALA18       0.0304
     18  N         29.9390   75.9110   57.8200 N.am   19  SER19      -0.1952
     19  CA        29.2720   76.6410   56.7340 C.3    19  SER19       0.1924
     20  C         29.1170   78.1380   57.0410 C.2    19  SER19       0.2314
     21  O         29.2070   78.9690   56.1400 O.2    19  SER19      -0.2863
     22  CB        27.9450   76.0040   56.3520 C.3    19  SER19       0.2116
     23  OG        27.1060   75.9500   57.4630 O.3    19  SER19      -0.2180
     24  N         32.8240   79.8910   56.6870 N.3    22  ALA22      -0.1231
     25  CA        33.2940   80.0370   55.3240 C.3    22  ALA22       0.1694
     26  C         32.6130   81.2100   54.6390 C.2    22  ALA22       0.2591
     27  O         33.2800   82.0480   54.0400 O.2    22  ALA22      -0.2718
     28  CB        33.0610   78.7450   54.5610 C.3    22  ALA22       0.0304
     29  N         31.2840   81.2760   54.7320 N.am   23  ARG23      -0.1980
     30  CA        30.5430   82.3850   54.1440 C.3    23  ARG23       0.1597
     31  C         30.8940   83.7320   54.8080 C.2    23  ARG23       0.2287
     32  O         31.0380   84.7330   54.1200 O.2    23  ARG23      -0.2864
     33  CB        29.0260   82.1080   54.1920 C.3    23  ARG23       0.0334
     34  CG        28.1580   83.2460   53.6450 C.3    23  ARG23       0.0492
     35  CD        28.3250   83.5510   52.1580 C.3    23  ARG23       0.2205
     36  NE        27.3710   84.5740   51.7800 N.pl3  23  ARG23      -0.0865
     37  CZ        27.1720   85.0750   50.5670 C.cat  23  ARG23       0.5346
     38  NH1       27.9110   84.6830   49.5360 N.pl3  23  ARG23       0.1354
     39  NH2       26.2120   85.9870   50.3950 N.pl3  23  ARG23       0.1354
     40  N         34.0110   85.0030   53.1360 N.3    26  ARG26      -0.1245
     41  CA        33.6450   85.5080   51.8190 C.3    26  ARG26       0.1563
     42  C         33.0070   86.8980   51.8830 C.2    26  ARG26       0.2260
     43  O         33.1880   87.6960   50.9630 O.2    26  ARG26      -0.2867
     44  CB        32.7400   84.5130   51.0620 C.3    26  ARG26       0.0307
     45  CG        33.5430   83.2750   50.7050 C.3    26  ARG26       0.0489
     46  CD        32.9160   82.3940   49.6860 C.3    26  ARG26       0.2205
     47  NE        31.7410   81.6850   50.1710 N.pl3  26  ARG26      -0.0865
     48  CZ        31.7880   80.5430   50.8400 C.cat  26  ARG26       0.5346
     49  NH1       32.9620   80.0100   51.1250 N.pl3  26  ARG26       0.1354
     50  NH2       30.6630   79.9330   51.2050 N.pl3  26  ARG26       0.1354
     51  N         34.8280   69.7100   59.8630 N.3    42  SER42      -0.1202
     52  CA        34.1940   69.3920   58.5720 C.3    42  SER42       0.2020
     53  C         34.3350   67.9370   58.1030 C.2    42  SER42       0.2619
     54  O         34.5460   67.6770   56.9140 O.2    42  SER42      -0.2717
     55  CB        34.7260   70.3200   57.4700 C.3    42  SER42       0.2103
     56  OG        34.6410   71.6720   57.8810 O.3    42  SER42      -0.2182
     57  N         34.2390   66.9920   59.0250 N.am   43  PHE43      -0.1961
     58  CA        34.2480   65.5960   58.6240 C.3    43  PHE43       0.1771
     59  C         32.8190   65.2270   58.2250 C.2    43  PHE43       0.2619
     60  O         31.8840   65.9580   58.5220 O.2    43  PHE43      -0.2715
     61  CB        34.8210   64.6870   59.7160 C.3    43  PHE43       0.0574
     62  CG        33.9660   64.5990   60.9410 C.ar   43  PHE43      -0.0200
     63  CD1       33.0460   63.5650   61.0890 C.ar   43  PHE43      -0.0042
     64  CD2       34.0860   65.5420   61.9600 C.ar   43  PHE43      -0.0042
     65  CE1       32.2360   63.4850   62.2180 C.ar   43  PHE43      -0.0003
     66  CE2       33.2890   65.4630   63.0990 C.ar   43  PHE43      -0.0003
     67  CZ        32.3560   64.4310   63.2180 C.ar   43  PHE43      -0.0000
     68  N         32.6680   64.1040   57.5320 N.am   44  ALA44      -0.1963
     69  CA        31.3800   63.6810   57.0280 C.3    44  ALA44       0.1728
     70  C         30.8360   62.6070   57.9430 C.2    44  ALA44       0.2616
     71  O         31.1020   61.4210   57.7330 O.2    44  ALA44      -0.2715
     72  CB        31.5540   63.1440   55.6430 C.3    44  ALA44       0.0334
     73  N         30.0970   63.0050   58.9780 N.am   45  ASN45      -0.1958
     74  CA        29.5990   61.9930   59.9150 C.3    45  ASN45       0.1819
     75  C         28.4830   61.1580   59.3550 C.2    45  ASN45       0.2621
     76  O         28.2360   60.0550   59.8480 O.2    45  ASN45      -0.2715
     77  CB        29.2840   62.5240   61.3250 C.3    45  ASN45       0.1195
     78  CG        28.3830   63.7200   61.3270 C.2    45  ASN45       0.2630
     79  OD1       28.3390   64.4890   60.3670 O.2    45  ASN45      -0.2716
     80  ND2       27.6780   63.9170   62.4470 N.am   45  ASN45      -0.0877
     81  N         27.8290   61.6730   58.3110 N.am   46  CYS46      -0.1968
     82  CA        26.8280   60.8980   57.5660 C.3    46  CYS46       0.1712
     83  C         27.4990   59.7250   56.8540 C.2    46  CYS46       0.2296
     84  O         26.8390   58.7880   56.4910 O.2    46  CYS46      -0.2864
     85  CB        26.1050   61.7800   56.5470 C.3    46  CYS46       0.0983
     86  SG        25.6150   63.3590   57.2210 S.3    46  CYS46      -0.0798
     87  N         36.6620   65.9120   54.7320 N.3    64  VAL64      -0.1231
     88  CA        36.3780   66.7400   53.5570 C.3    64  VAL64       0.1692
     89  C         37.3450   67.9320   53.4780 C.2    64  VAL64       0.2591
     90  O         37.8500   68.2670   52.3920 O.2    64  VAL64      -0.2718
     91  CB        34.9120   67.2530   53.5610 C.3    64  VAL64       0.0266
     92  CG1       34.5670   67.9070   52.2180 C.3    64  VAL64       0.0020
     93  CG2       33.9350   66.1120   53.8590 C.3    64  VAL64       0.0020
     94  N         37.5890   68.5500   54.6380 N.am   65  GLN65      -0.1979
     95  CA        38.4850   69.6960   54.7800 C.3    65  GLN65       0.1601
     96  C         39.4400   69.4490   55.9390 C.2    65  GLN65       0.2287
     97  O         39.0410   68.9340   56.9800 O.2    65  GLN65      -0.2864
     98  CB        37.6760   70.9790   55.0260 C.3    65  GLN65       0.0394
     99  CG        37.0760   71.6160   53.7580 C.3    65  GLN65       0.0908
    100  CD        38.0710   72.5020   52.9930 C.2    65  GLN65       0.2608
    101  OE1       38.4000   73.6160   53.4220 O.2    65  GLN65      -0.2717
    102  NE2       38.5320   72.0170   51.8440 N.am   65  GLN65      -0.0878
    103  N         40.6600   80.2520   54.1840 N.3    73  PHE73      -0.1241
    104  CA        39.7320   81.2350   54.7250 C.3    73  PHE73       0.1605
    105  C         40.3320   82.1000   55.8450 C.2    73  PHE73       0.2264
    106  O         39.6260   82.8410   56.5070 O.2    73  PHE73      -0.2867
    107  CB        38.4100   80.5740   55.1310 C.3    73  PHE73       0.0534
    108  CG        37.6170   80.0270   53.9580 C.ar   73  PHE73      -0.0203
    109  CD1       37.1090   80.8830   52.9810 C.ar   73  PHE73      -0.0042
    110  CD2       37.3740   78.6560   53.8370 C.ar   73  PHE73      -0.0042
    111  CE1       36.3760   80.3770   51.8920 C.ar   73  PHE73      -0.0003
    112  CE2       36.6500   78.1400   52.7610 C.ar   73  PHE73      -0.0003
    113  CZ        36.1540   79.0020   51.7850 C.ar   73  PHE73      -0.0000
    114  N         21.3570   67.3340   58.2350 N.3   296  ALA296     -0.1245
    115  CA        22.5080   68.1200   57.7870 C.3   296  ALA296      0.1562
    116  C         22.1590   69.2540   56.8510 C.2   296  ALA296      0.2260
    117  O         22.8880   70.2410   56.8070 O.2   296  ALA296     -0.2867
    118  CB        23.5630   67.2250   57.1130 C.3   296  ALA296      0.0290
    119  N         23.3840   73.1120   57.4870 N.3   300  ASN300     -0.1240
    120  CA        24.1350   73.8370   56.4440 C.3   300  ASN300      0.1653
    121  C         23.4360   75.1100   55.9510 C.2   300  ASN300      0.2266
    122  O         24.0510   76.1490   55.8210 O.2   300  ASN300     -0.2867
    123  CB        24.4080   72.9200   55.2560 C.3   300  ASN300      0.1155
    124  CG        25.7010   72.1500   55.3940 C.2   300  ASN300      0.2627
    125  OD1       26.7610   72.6010   54.9350 O.2   300  ASN300     -0.2716
    126  ND2       25.6310   70.9830   56.0200 N.am  300  ASN300     -0.0877
    127  N         24.6750   79.0890   56.5710 N.3   304  ARG304     -0.1245
    128  CA        24.8800   79.9700   55.4340 C.3   304  ARG304      0.1563
    129  C         23.9760   81.2140   55.5070 C.2   304  ARG304      0.2260
    130  O         24.3940   82.3450   55.2340 O.2   304  ARG304     -0.2867
    131  CB        24.6160   79.1670   54.1580 C.3   304  ARG304      0.0307
    132  CG        24.5940   79.9610   52.9110 C.3   304  ARG304      0.0489
    133  CD        25.9750   80.3550   52.4650 C.3   304  ARG304      0.2205
    134  NE        25.8540   81.0780   51.2000 N.pl3 304  ARG304     -0.0865
    135  CZ        25.1360   82.1820   51.0630 C.cat 304  ARG304      0.5346
    136  NH1       24.5090   82.6710   52.1240 N.pl3 304  ARG304      0.1354
    137  NH2       25.0630   82.7970   49.8890 N.pl3 304  ARG304      0.1354
@<TRIPOS>BOND
     1    38    37    1
     2    46    47    1
     3    46    45    1
     4   137   135    1
     5    47    48    2
     6    39    37    1
     7    37    36    2
     8    45    44    1
     9    48    49    1
    10    48    50    1
    11    43    42    2
    12    44    41    1
    13   135   134    2
    14   135   136    1
    15   134   133    1
    16    36    35    1
    17   113   111   ar
    18   113   112   ar
    19    41    42    1
    20    41    40    1
    21   102   100   am
    22   111   109   ar
    23    35    34    1
    24    92    91    1
    25    90    89    2
    26   133   132    1
    27   112   110   ar
    28   132   131    1
    29   109   108   ar
    30   100   101    2
    31   100    99    1
    32    89    88    1
    33    89    94   am
    34    88    91    1
    35    88    87    1
    36    91    93    1
    37    34    33    1
    38    99    98    1
    39   110   108   ar
    40   108   107    1
    41    27    26    2
    42    32    31    2
    43    30    33    1
    44    30    29    1
    45    30    31    1
    46   131   128    1
    47   103   104    1
    48    28    25    1
    49    94    95    1
    50    26    29   am
    51    26    25    1
    52   104   107    1
    53   104   105    1
    54    95    98    1
    55    95    96    1
    56   125   124    2
    57   130   129    2
    58   123   124    1
    59   123   120    1
    60    25    24    1
    61   124   126   am
    62   128   129    1
    63   128   127    1
    64    72    69    1
    65   122   121    2
    66   105   106    2
    67    96    97    2
    68   121   120    1
    69    21    20    2
    70    22    19    1
    71    22    23    1
    72   120   119    1
    73    84    83    2
    74    85    86    1
    75    85    82    1
    76    19    20    1
    77    19    18    1
    78   117   116    2
    79   116   115    1
    80    83    82    1
    81    54    53    2
    82    69    68    1
    83    69    70    1
    84   118   115    1
    85    16    15    2
    86    55    56    1
    87    55    52    1
    88    68    59   am
    89    82    81    1
    90    71    70    2
    91   115   114    1
    92    18    15   am
    93    70    73   am
    94    15    14    1
    95    53    52    1
    96    53    57   am
    97    59    60    2
    98    59    58    1
    99    81    75   am
   100    17    14    1
   101    52    51    1
   102    58    57    1
   103    58    61    1
   104    11    10    2
   105    73    74    1
   106    14    13    1
   107    75    76    2
   108    75    74    1
   109     9    12    1
   110     9    10    1
   111     9     8    1
   112    61    62    1
   113    74    77    1
   114     4     3    2
   115     8     3   am
   116    79    78    2
   117     3     2    1
   118    62    63   ar
   119    62    64   ar
   120     6     5    1
   121    63    65   ar
   122    77    78    1
   123    78    80   am
   124     2     5    1
   125     2     1    1
   126    64    66   ar
   127     5     7    1
   128    65    67   ar
   129    66    67   ar
