@<TRIPOS>MOLECULE
tmp/3iczA01.pdb
 204 191 0 0 0
SMALL
GASTEIGER

@<TRIPOS>ATOM
      1  N         13.6720   15.6440  160.7810 N.3    93  HIS93      -0.1226
      2  CA        14.0010   17.0370  161.0800 C.3    93  HIS93       0.1752
      3  C         13.5230   17.9930  159.9320 C.2    93  HIS93       0.2596
      4  O         12.8570   19.0540  160.1690 O.2    93  HIS93      -0.2718
      5  CB        15.5270   17.1670  161.3650 C.3    93  HIS93       0.0759
      6  CG        16.1030   18.5330  161.1130 C.ar   93  HIS93       0.0818
      7  ND1       16.1000   19.5370  162.0560 N.ar   93  HIS93      -0.2268
      8  CD2       16.8020   19.0200  160.0700 C.ar   93  HIS93       0.1154
      9  CE1       16.6980   20.6110  161.5720 C.ar   93  HIS93       0.1986
     10  NE2       17.1610   20.3120  160.3770 N.ar   93  HIS93      -0.2212
     11  N         13.9050   17.6380  158.7080 N.am   94  TYR94      -0.1962
     12  CA        13.5950   18.4620  157.5260 C.3    94  TYR94       0.1771
     13  C         12.0730   18.5760  157.3910 C.2    94  TYR94       0.2619
     14  O         11.5550   19.6460  157.1850 O.2    94  TYR94      -0.2715
     15  CB        14.1450   17.8400  156.2280 C.3    94  TYR94       0.0574
     16  CG        15.6670   17.9220  156.0830 C.ar   94  TYR94      -0.0198
     17  CD1       16.3660   16.9470  155.4040 C.ar   94  TYR94      -0.0009
     18  CD2       16.4020   18.9970  156.6250 C.ar   94  TYR94      -0.0009
     19  CE1       17.7930   17.0180  155.2540 C.ar   94  TYR94       0.0417
     20  CE2       17.8040   19.0600  156.5040 C.ar   94  TYR94       0.0417
     21  CZ        18.4860   18.0680  155.7970 C.ar   94  TYR94       0.1957
     22  OH        19.8720   18.1450  155.6230 O.3    94  TYR94      -0.2866
     23  N         11.3680   17.4540  157.5070 N.am   95  LEU95      -0.1977
     24  CA         9.9110   17.4610  157.3610 C.3    95  LEU95       0.1596
     25  C          9.1920   18.3550  158.4130 C.2    95  LEU95       0.2287
     26  O          8.2670   19.0760  158.0690 O.2    95  LEU95      -0.2864
     27  CB         9.4070   15.9920  157.3810 C.3    95  LEU95       0.0297
     28  CG         9.1770   15.2900  156.0510 C.3    95  LEU95       0.0022
     29  CD1       10.0260   15.7870  154.8410 C.3    95  LEU95       0.0001
     30  CD2        8.8990   13.7780  156.0940 C.3    95  LEU95       0.0001
     31  N         10.3170   21.0200  160.0510 N.3    97  GLU97      -0.1231
     32  CA        10.5840   22.4280  159.7780 C.3    97  GLU97       0.1699
     33  C          9.9530   22.8730  158.4520 C.2    97  GLU97       0.2592
     34  O          9.3580   23.9400  158.4050 O.2    97  GLU97      -0.2718
     35  CB        12.0780   22.6850  159.7730 C.3    97  GLU97       0.0402
     36  CG        12.8290   22.1190  161.0170 C.3    97  GLU97       0.1161
     37  CD        12.5770   22.8660  162.3240 C.2    97  GLU97       0.3649
     38  OE1       11.7560   23.8340  162.3700 O.co2  97  GLU97      -0.2457
     39  OE2       13.2120   22.4650  163.3300 O.co2  97  GLU97      -0.2457
     40  N         10.0620   22.0470  157.4110 N.am   98  ASP98      -0.1960
     41  CA         9.3730   22.3140  156.0950 C.3    98  ASP98       0.1840
     42  C          7.8660   22.4700  156.2240 C.2    98  ASP98       0.2622
     43  O          7.3120   23.3750  155.5940 O.2    98  ASP98      -0.2715
     44  CB         9.6940   21.2300  155.0880 C.3    98  ASP98       0.1450
     45  CG         9.0680   21.4490  153.7630 C.2    98  ASP98       0.3671
     46  OD1        9.5590   22.2510  152.9150 O.co2  98  ASP98      -0.2456
     47  OD2        8.0770   20.7540  153.5020 O.co2  98  ASP98      -0.2456
     48  N          7.2010   21.6170  157.0270 N.am   99  ASP99      -0.1971
     49  CA         5.7380   21.7220  157.1540 C.3    99  ASP99       0.1709
     50  C          5.3250   23.0670  157.7510 C.2    99  ASP99       0.2293
     51  O          4.3260   23.6460  157.3530 O.2    99  ASP99      -0.2864
     52  CB         5.1130   20.5870  157.9360 C.3    99  ASP99       0.1436
     53  CG         5.0830   19.2530  157.1380 C.2    99  ASP99       0.3671
     54  OD1        5.0880   19.2720  155.8770 O.co2  99  ASP99      -0.2456
     55  OD2        5.0250   18.1860  157.7770 O.co2  99  ASP99      -0.2456
     56  N          7.2910   25.8790  157.4980 N.3   101  MET101     -0.1230
     57  CA         7.6150   26.8000  156.4130 C.3   101  MET101      0.1702
     58  C          6.5450   26.8580  155.2660 C.2   101  MET101      0.2592
     59  O          6.2950   27.9230  154.6720 O.2   101  MET101     -0.2718
     60  CB         9.0200   26.4600  155.8700 C.3   101  MET101      0.0401
     61  CG        10.1230   26.8330  156.9030 C.3   101  MET101      0.0596
     62  SD        11.7640   26.5230  156.1710 S.3   101  MET101     -0.1393
     63  CE        12.4350   25.2130  157.1660 C.3   101  MET101      0.0692
     64  N          5.9560   25.7000  154.9460 N.am  102  ASP102     -0.1974
     65  CA         5.0710   25.5770  153.7780 C.3   102  ASP102      0.1709
     66  C          3.5850   25.7530  154.1840 C.2   102  ASP102      0.2293
     67  O          2.7130   25.8980  153.3260 O.2   102  ASP102     -0.2864
     68  CB         5.3110   24.2560  152.9790 C.3   102  ASP102      0.1436
     69  CG         6.6860   24.2000  152.2880 C.2   102  ASP102      0.3671
     70  OD1        7.3570   25.2570  152.1890 O.co2 102  ASP102     -0.2456
     71  OD2        7.1270   23.0860  151.8440 O.co2 102  ASP102     -0.2456
     72  N          1.6760   23.5860  155.8070 N.3   104  SER104     -0.1217
     73  CA         1.0830   22.3290  155.4350 C.3   104  SER104      0.1889
     74  C          0.1940   21.8190  156.5340 C.2   104  SER104      0.2288
     75  O          0.3160   22.2180  157.6680 O.2   104  SER104     -0.2866
     76  CB         2.1670   21.3020  155.1080 C.3   104  SER104      0.2089
     77  OG         2.7280   21.6280  153.8390 O.3   104  SER104     -0.2183
     78  N          0.7130   15.2160  157.0960 N.3   107  ARG107     -0.1245
     79  CA         1.9790   14.5460  156.8120 C.3   107  ARG107      0.1563
     80  C          1.8590   13.0420  157.2020 C.2   107  ARG107      0.2260
     81  O          1.4840   12.7210  158.3270 O.2   107  ARG107     -0.2867
     82  CB         3.0760   15.1590  157.6590 C.3   107  ARG107      0.0307
     83  CG         4.4650   14.4830  157.4080 C.3   107  ARG107      0.0489
     84  CD         5.2470   15.5220  156.7230 C.3   107  ARG107      0.2205
     85  NE         5.5150   15.1390  155.4210 N.pl3 107  ARG107     -0.0865
     86  CZ         6.0200   15.8990  154.4620 C.cat 107  ARG107      0.5346
     87  NH1        6.2880   17.1930  154.6150 N.pl3 107  ARG107      0.1354
     88  NH2        6.2500   15.2750  153.3240 N.pl3 107  ARG107      0.1354
     89  N         21.3280   20.8760  151.5640 N.3   163  THR163     -0.1203
     90  CA        19.8700   20.7760  151.6490 C.3   163  THR163      0.1994
     91  C         19.3130   22.1110  152.2010 C.2   163  THR163      0.2617
     92  O         18.3480   22.6520  151.6780 O.2   163  THR163     -0.2717
     93  CB        19.4830   19.6120  152.5350 C.3   163  THR163      0.1784
     94  OG1       20.0780   18.4150  152.0580 O.3   163  THR163     -0.2211
     95  CG2       18.0180   19.4050  152.5380 C.3   163  THR163      0.0376
     96  N         19.9360   22.6350  153.2510 N.am  164  ALA164     -0.1979
     97  CA        19.5500   23.9130  153.8210 C.3   164  ALA164      0.1597
     98  C         19.6130   25.0720  152.8050 C.2   164  ALA164      0.2287
     99  O         18.7640   25.9170  152.7640 O.2   164  ALA164     -0.2864
    100  CB        20.4570   24.2320  155.0870 C.3   164  ALA164      0.0319
    101  N         16.7600   24.4800  150.4100 N.3   167  GLN167     -0.1245
    102  CA        15.5290   25.0270  151.0640 C.3   167  GLN167      0.1566
    103  C         15.3990   26.5830  150.9230 C.2   167  GLN167      0.2260
    104  O         14.2740   27.1150  150.6930 O.2   167  GLN167     -0.2867
    105  CB        15.4630   24.5860  152.5570 C.3   167  GLN167      0.0367
    106  CG        14.1490   24.9500  153.2560 C.3   167  GLN167      0.0905
    107  CD        12.9180   24.1370  152.8090 C.2   167  GLN167      0.2608
    108  OE1       12.9410   23.4560  151.7710 O.2   167  GLN167     -0.2717
    109  NE2       11.8090   24.2470  153.5770 N.am  167  GLN167     -0.0878
    110  N         14.2110   27.2080  147.4080 N.3   170  ASP170     -0.1239
    111  CA        12.7540   26.8890  147.3900 C.3   170  ASP170      0.1674
    112  C         11.8380   27.9980  148.0040 C.2   170  ASP170      0.2266
    113  O         10.9270   28.5390  147.3900 O.2   170  ASP170     -0.2867
    114  CB        12.5610   25.5230  148.0700 C.3   170  ASP170      0.1410
    115  CG        11.0650   25.1040  148.1850 C.2   170  ASP170      0.3668
    116  OD1       10.5860   24.1990  147.4410 O.co2 170  ASP170     -0.2456
    117  OD2       10.3770   25.6610  149.0480 O.co2 170  ASP170     -0.2456
    118  N         17.9760   20.9900  147.4310 N.3   207  LYS207     -0.1231
    119  CA        17.0310   20.7160  148.4840 C.3   207  LYS207      0.1693
    120  C         16.7720   19.2170  148.6040 C.2   207  LYS207      0.2592
    121  O         16.3960   18.7140  149.7020 O.2   207  LYS207     -0.2718
    122  CB        15.7010   21.5180  148.3140 C.3   207  LYS207      0.0285
    123  CG        14.6100   20.9050  147.4140 C.3   207  LYS207      0.0035
    124  CD        13.2360   21.5750  147.5840 C.3   207  LYS207      0.0206
    125  CE        12.2050   21.0630  146.5420 C.3   207  LYS207      0.1093
    126  NZ        10.8730   21.7050  146.7950 N.3   207  LYS207     -0.1314
    127  N         16.9210   18.4750  147.5030 N.am  208  THR208     -0.1953
    128  CA        16.5210   17.0660  147.6850 C.3   208  THR208      0.1897
    129  C         17.4870   15.9730  147.3320 C.2   208  THR208      0.2313
    130  O         17.5280   14.9740  148.0190 O.2   208  THR208     -0.2863
    131  CB        15.0550   16.7030  147.2020 C.3   208  THR208      0.1794
    132  OG1       15.0740   15.9570  146.0040 O.3   208  THR208     -0.2208
    133  CG2       14.1290   17.8470  147.1260 C.3   208  THR208      0.0378
    134  N         20.4210   14.6570  149.9400 N.3   211  TYR211     -0.1241
    135  CA        20.0370   13.9020  151.1760 C.3   211  TYR211      0.1605
    136  C         19.1700   12.7100  150.8660 C.2   211  TYR211      0.2264
    137  O         19.1190   11.7710  151.6390 O.2   211  TYR211     -0.2867
    138  CB        19.3810   14.7540  152.2900 C.3   211  TYR211      0.0534
    139  CG        17.8500   14.8480  152.3210 C.ar  211  TYR211     -0.0201
    140  CD1       17.0880   13.9730  153.0820 C.ar  211  TYR211     -0.0009
    141  CD2       17.1870   15.8060  151.5560 C.ar  211  TYR211     -0.0009
    142  CE1       15.6900   14.0870  153.1240 C.ar  211  TYR211      0.0417
    143  CE2       15.7990   15.9490  151.5930 C.ar  211  TYR211      0.0417
    144  CZ        15.0620   15.0900  152.3730 C.ar  211  TYR211      0.1957
    145  OH        13.7350   15.2450  152.3760 O.3   211  TYR211     -0.2866
    146  N         11.9630   14.3940  142.7820 N.3   247  GLN247     -0.1245
    147  CA        11.3060   15.6400  143.1220 C.3   247  GLN247      0.1566
    148  C         10.2110   16.0280  142.1190 C.2   247  GLN247      0.2260
    149  O          9.2120   16.6760  142.4980 O.2   247  GLN247     -0.2867
    150  CB        12.2910   16.7870  143.2830 C.3   247  GLN247      0.0367
    151  CG        11.6380   18.1350  143.8250 C.3   247  GLN247      0.0905
    152  CD        11.0170   17.9710  145.2080 C.2   247  GLN247      0.2608
    153  OE1       11.6060   17.3230  146.0810 O.2   247  GLN247     -0.2717
    154  NE2        9.8290   18.5550  145.4230 N.am  247  GLN247     -0.0878
    155  N          7.1540   14.2380  143.1440 N.3   250  ASP250     -0.1225
    156  CA         6.6120   14.8730  144.3170 C.3   250  ASP250      0.1805
    157  C          5.7470   16.0530  143.9040 C.2   250  ASP250      0.2597
    158  O          4.6680   16.2200  144.4380 O.2   250  ASP250     -0.2718
    159  CB         7.7210   15.4050  145.2250 C.3   250  ASP250      0.1424
    160  CG         7.1760   15.9520  146.5190 C.2   250  ASP250      0.3668
    161  OD1        6.4810   15.1920  147.2610 O.co2 250  ASP250     -0.2456
    162  OD2        7.4420   17.1520  146.7960 O.co2 250  ASP250     -0.2456
    163  N          6.2710   16.8840  143.0030 N.am  251  ASP251     -0.1974
    164  CA         5.5510   18.0710  142.5070 C.3   251  ASP251      0.1709
    165  C          4.2360   17.7250  141.7990 C.2   251  ASP251      0.2293
    166  O          3.2340   18.3540  142.0120 O.2   251  ASP251     -0.2864
    167  CB         6.4510   18.8690  141.5580 C.3   251  ASP251      0.1436
    168  CG         7.6130   19.5340  142.2960 C.2   251  ASP251      0.3671
    169  OD1        7.7040   19.3490  143.5390 O.co2 251  ASP251     -0.2456
    170  OD2        8.4400   20.2040  141.6410 O.co2 251  ASP251     -0.2456
    171  N          1.6900   16.4540  144.3920 N.3   254  ASP254     -0.1239
    172  CA         1.2080   17.5850  145.2070 C.3   254  ASP254      0.1674
    173  C         -0.0930   18.1720  144.6280 C.2   254  ASP254      0.2266
    174  O         -1.0190   18.4580  145.3870 O.2   254  ASP254     -0.2867
    175  CB         2.2500   18.6980  145.2990 C.3   254  ASP254      0.1410
    176  CG         1.8570   19.7870  146.2940 C.2   254  ASP254      0.3668
    177  OD1        2.1710   19.5980  147.5000 O.co2 254  ASP254     -0.2456
    178  OD2        1.2660   20.8290  145.8830 O.co2 254  ASP254     -0.2456
    179  N         -0.4500   13.4740  152.3110 N.3   264  LYS264     -0.1245
    180  CA        -0.2970   14.9170  152.5610 C.3   264  LYS264      0.1561
    181  C         -1.2460   15.7210  151.7080 C.2   264  LYS264      0.2260
    182  O         -1.7950   15.1990  150.7160 O.2   264  LYS264     -0.2867
    183  CB         1.1620   15.3980  152.3620 C.3   264  LYS264      0.0271
    184  CG         1.8850   14.9330  151.1050 C.3   264  LYS264      0.0035
    185  CD         3.4210   15.2570  151.1610 C.3   264  LYS264      0.0206
    186  CE         4.0860   14.9770  149.8210 C.3   264  LYS264      0.1093
    187  NZ         5.6200   15.0630  149.7440 N.3   264  LYS264     -0.1314
    188  N          1.6560   23.5990  146.9370 N.3   268  ASP268     -0.1239
    189  CA         2.6100   24.2630  146.0210 C.3   268  ASP268      0.1674
    190  C          1.9570   25.4280  145.2520 C.2   268  ASP268      0.2266
    191  O          2.5560   26.4960  145.1230 O.2   268  ASP268     -0.2867
    192  CB         3.2450   23.2860  145.0610 C.3   268  ASP268      0.1410
    193  CG         4.2330   22.3470  145.7300 C.2   268  ASP268      0.3668
    194  OD1        4.5890   22.5730  146.9300 O.co2 268  ASP268     -0.2456
    195  OD2        4.6080   21.3550  145.0390 O.co2 268  ASP268     -0.2456
    196  N          4.8310   28.1240  144.6350 N.3   273  LYS273     -0.1245
    197  CA         6.1300   27.4570  144.4310 C.3   273  LYS273      0.1561
    198  C          6.5470   27.3560  142.9640 C.2   273  LYS273      0.2260
    199  O          5.7020   27.1630  142.0950 O.2   273  LYS273     -0.2867
    200  CB         6.1300   26.0500  145.0900 C.3   273  LYS273      0.0271
    201  CG         6.0600   26.1570  146.6360 C.3   273  LYS273      0.0035
    202  CD         7.3590   26.7720  147.1360 C.3   273  LYS273      0.0206
    203  CE         7.3240   27.0820  148.6240 C.3   273  LYS273      0.1093
    204  NZ         6.8320   25.9620  149.4980 N.3   273  LYS273     -0.1314
@<TRIPOS>BOND
     1   167   168    1
     2   167   164    1
     3   170   168   ar
     4   165   166    2
     5   165   164    1
     6   199   198    2
     7   148   149    2
     8   148   147    1
     9   168   169   ar
    10   164   163    1
    11   146   147    1
    12   198   197    1
    13   163   157   am
    14   147   150    1
    15   155   156    1
    16   150   151    1
    17   151   152    1
    18   157   156    1
    19   157   158    2
    20   156   159    1
    21   171   172    1
    22   197   196    1
    23   197   200    1
    24   173   172    1
    25   173   174    2
    26   195   193   ar
    27   192   193    1
    28   192   189    1
    29   200   201    1
    30   191   190    2
    31   172   175    1
    32   152   154   am
    33   152   153    2
    34   159   160    1
    35   190   189    1
    36   175   176    1
    37   193   194   ar
    38   178   176   ar
    39   132   131    1
    40   189   188    1
    41   176   177   ar
    42   160   162   ar
    43   160   161   ar
    44   125   126    1
    45   125   124    1
    46   201   202    1
    47   133   131    1
    48   202   203    1
    49   131   128    1
    50   129   128    1
    51   129   130    2
    52   113   112    2
    53   111   110    1
    54   111   112    1
    55   111   114    1
    56   123   124    1
    57   123   122    1
    58   118   119    1
    59   116   115   ar
    60   127   128    1
    61   127   120   am
    62   114   115    1
    63   115   117   ar
    64   122   119    1
    65   119   120    1
    66   120   121    2
    67   203   204    1
    68   187   186    1
    69   186   185    1
    70   134   135    1
    71   101   102    1
    72   104   103    2
    73   182   181    2
    74   136   135    1
    75   136   137    2
    76   103   102    1
    77   102   105    1
    78   184   185    1
    79   184   183    1
    80   135   138    1
    81   141   143   ar
    82   141   139   ar
    83    89    90    1
    84   143   144   ar
    85    90    91    1
    86    90    93    1
    87    92    91    2
    88   181   180    1
    89   108   107    2
    90    71    69   ar
    91    94    93    1
    92    70    69   ar
    93    91    96   am
    94    69    68    1
    95   138   139    1
    96   179   180    1
    97   139   140   ar
    98   183   180    1
    99   144   145    1
   100   144   142   ar
   101    93    95    1
   102   105   106    1
   103    99    98    2
   104    98    97    1
   105   107   106    1
   106   107   109   am
   107    46    45   ar
   108    68    65    1
   109   140   142   ar
   110    96    97    1
   111    88    86    1
   112    67    66    2
   113    47    45   ar
   114    45    44    1
   115    65    66    1
   116    65    64    1
   117    97   100    1
   118    77    76    1
   119    86    87    1
   120    86    85    2
   121    59    58    2
   122    29    28    1
   123    64    58   am
   124    44    41    1
   125    76    73    1
   126    19    17   ar
   127    19    21   ar
   128    58    57    1
   129    17    16   ar
   130    85    84    1
   131    73    72    1
   132    73    74    1
   133    43    42    2
   134    22    21    1
   135    21    20   ar
   136    60    57    1
   137    60    61    1
   138    54    53   ar
   139    28    30    1
   140    28    27    1
   141    16    15    1
   142    16    18   ar
   143    41    42    1
   144    41    40    1
   145    62    61    1
   146    62    63    1
   147    42    48   am
   148    15    12    1
   149    57    56    1
   150    20    18   ar
   151    74    75    2
   152    84    83    1
   153    79    78    1
   154    79    80    1
   155    79    82    1
   156    48    49    1
   157    53    55   ar
   158    53    52    1
   159    49    50    1
   160    49    52    1
   161    14    13    2
   162    80    81    2
   163    51    50    2
   164    24    27    1
   165    24    23    1
   166    24    25    1
   167    13    23   am
   168    13    12    1
   169    83    82    1
   170    40    33   am
   171    12    11    1
   172    26    25    2
   173    34    33    2
   174    33    32    1
   175    11     3   am
   176    35    32    1
   177    35    36    1
   178    32    31    1
   179     3     4    2
   180     3     2    1
   181     8    10   ar
   182     8     6   ar
   183    10     9   ar
   184     1     2    1
   185    36    37    1
   186     2     5    1
   187     6     5    1
   188     6     7   ar
   189     9     7   ar
   190    37    38   ar
   191    37    39   ar
