@<TRIPOS>MOLECULE
tmp/3id0A00.pdb
 170 157 0 0 0
SMALL
GASTEIGER

@<TRIPOS>ATOM
      1  N          8.2220   20.9790  167.0790 N.3    94  TYR94      -0.1227
      2  CA         9.1880   21.1700  168.1590 C.3    94  TYR94       0.1736
      3  C         10.0510   19.9440  168.4250 C.2    94  TYR94       0.2595
      4  O         11.2460   20.0790  168.6590 O.2    94  TYR94      -0.2718
      5  CB         8.5250   21.7300  169.4310 C.3    94  TYR94       0.0548
      6  CG         8.4820   23.2460  169.4190 C.ar   94  TYR94      -0.0200
      7  CD1        7.2760   23.9400  169.2810 C.ar   94  TYR94      -0.0009
      8  CD2        9.6620   23.9860  169.5010 C.ar   94  TYR94      -0.0009
      9  CE1        7.2530   25.3460  169.2480 C.ar   94  TYR94       0.0417
     10  CE2        9.6530   25.3770  169.4670 C.ar   94  TYR94       0.0417
     11  CZ         8.4540   26.0540  169.3410 C.ar   94  TYR94       0.1957
     12  OH         8.4800   27.4330  169.3090 O.3    94  TYR94      -0.2866
     13  N          9.4470   18.7600  168.3430 N.am   95  LEU95      -0.1980
     14  CA        10.1490   17.4850  168.5050 C.3    95  LEU95       0.1596
     15  C         11.3170   17.3200  167.5290 C.2    95  LEU95       0.2287
     16  O         12.4320   16.9780  167.9370 O.2    95  LEU95      -0.2864
     17  CB         9.1800   16.3160  168.3240 C.3    95  LEU95       0.0297
     18  CG         8.0160   16.0630  169.2850 C.3    95  LEU95       0.0022
     19  CD1        7.5420   14.6410  169.0750 C.3    95  LEU95       0.0001
     20  CD2        8.3750   16.2890  170.7520 C.3    95  LEU95       0.0001
     21  N         13.9500   19.6790  168.5580 N.3    98  ASP98      -0.1225
     22  CA        14.4260   19.1900  169.8520 C.3    98  ASP98       0.1805
     23  C         15.4090   18.0110  169.7110 C.2    98  ASP98       0.2597
     24  O         16.3970   17.9240  170.4500 O.2    98  ASP98      -0.2718
     25  CB        13.2370   18.7940  170.7350 C.3    98  ASP98       0.1424
     26  CG        13.6570   18.3400  172.1130 C.2    98  ASP98       0.3668
     27  OD1       14.1630   19.1670  172.8870 O.co2  98  ASP98      -0.2456
     28  OD2       13.4720   17.1490  172.4350 O.co2  98  ASP98      -0.2456
     29  N         15.1370   17.1200  168.7540 N.am   99  ASP99      -0.1974
     30  CA        15.9230   15.8980  168.5770 C.3    99  ASP99       0.1709
     31  C         17.3170   16.1620  168.0160 C.2    99  ASP99       0.2293
     32  O         18.2860   15.5030  168.4050 O.2    99  ASP99      -0.2864
     33  CB        15.1580   14.8780  167.7260 C.3    99  ASP99       0.1436
     34  CG        14.1390   14.0840  168.5430 C.2    99  ASP99       0.3671
     35  OD1       14.2950   13.9990  169.7830 O.co2  99  ASP99      -0.2456
     36  OD2       13.1880   13.5300  167.9500 O.co2  99  ASP99      -0.2456
     37  N         19.0450   18.0370  171.1200 N.3   102  ASP102     -0.1239
     38  CA        19.4330   17.1490  172.2150 C.3   102  ASP102      0.1674
     39  C         20.2930   15.9730  171.7450 C.2   102  ASP102      0.2266
     40  O         20.8340   15.2300  172.5620 O.2   102  ASP102     -0.2867
     41  CB        18.1940   16.6380  172.9580 C.3   102  ASP102      0.1410
     42  CG        17.3560   17.7630  173.5610 C.2   102  ASP102      0.3668
     43  OD1       17.7610   18.9410  173.4890 O.co2 102  ASP102     -0.2456
     44  OD2       16.2810   17.4630  174.1190 O.co2 102  ASP102     -0.2456
     45  N         19.3380   13.2540  170.0330 N.3   104  SER104     -0.1217
     46  CA        18.6290   12.0080  170.3240 C.3   104  SER104      0.1889
     47  C         18.6410   11.0500  169.1390 C.2   104  SER104      0.2288
     48  O         18.7800   11.4680  167.9910 O.2   104  SER104     -0.2866
     49  CB        17.1900   12.2980  170.7720 C.3   104  SER104      0.2089
     50  OG        17.1460   12.7460  172.1230 O.3   104  SER104     -0.2183
     51  N         12.7710    8.4070  168.4660 N.3   107  ARG107     -0.1245
     52  CA        11.4850    8.9860  168.8590 C.3   107  ARG107      0.1563
     53  C         10.3300    8.0340  168.5380 C.2   107  ARG107      0.2260
     54  O         10.1660    7.5960  167.3960 O.2   107  ARG107     -0.2867
     55  CB        11.2740   10.3530  168.1870 C.3   107  ARG107      0.0307
     56  CG         9.8910   10.9960  168.3980 C.3   107  ARG107      0.0489
     57  CD         9.7390   11.6170  169.7840 C.3   107  ARG107      0.2205
     58  NE        10.5730   12.8080  169.9450 N.pl3 107  ARG107     -0.0865
     59  CZ        10.7980   13.4230  171.1040 C.cat 107  ARG107      0.5346
     60  NH1       10.2510   12.9700  172.2300 N.pl3 107  ARG107      0.1354
     61  NH2       11.5770   14.4990  171.1380 N.pl3 107  ARG107      0.1354
     62  N          7.2640   28.6060  174.0060 N.3   163  THR163     -0.1218
     63  CA         7.9290   27.3300  173.7740 C.3   163  THR163      0.1862
     64  C          9.3380   27.5460  173.2260 C.2   163  THR163      0.2287
     65  O         10.2870   26.9100  173.6860 O.2   163  THR163     -0.2866
     66  CB         7.0890   26.3750  172.8760 C.3   163  THR163      0.1770
     67  OG1        5.8180   26.1230  173.4950 O.3   163  THR163     -0.2211
     68  CG2        7.8060   25.0400  172.6920 C.3   163  THR163      0.0375
     69  N         12.6590   26.5960  175.1560 N.3   167  GLN167     -0.1245
     70  CA        13.6820   25.8020  174.4810 C.3   167  GLN167      0.1566
     71  C         15.0600   26.4480  174.6010 C.2   167  GLN167      0.2260
     72  O         16.0700   25.7530  174.8010 O.2   167  GLN167     -0.2867
     73  CB        13.3280   25.6370  173.0070 C.3   167  GLN167      0.0367
     74  CG        12.3000   24.5650  172.7260 C.3   167  GLN167      0.0905
     75  CD        12.8850   23.1680  172.7640 C.2   167  GLN167      0.2608
     76  OE1       13.0890   22.5930  173.8340 O.2   167  GLN167     -0.2717
     77  NE2       13.1380   22.6040  171.5860 N.am  167  GLN167     -0.0878
     78  N         16.4450   25.9300  178.0840 N.3   170  ASP170     -0.1239
     79  CA        16.7720   24.5140  178.2920 C.3   170  ASP170      0.1674
     80  C         18.1130   24.1120  177.6760 C.2   170  ASP170      0.2266
     81  O         18.9250   23.4400  178.3190 O.2   170  ASP170     -0.2867
     82  CB        15.6430   23.6320  177.7330 C.3   170  ASP170      0.1410
     83  CG        15.8970   22.1350  177.9320 C.2   170  ASP170      0.3668
     84  OD1       16.0260   21.6850  179.0920 O.co2 170  ASP170     -0.2456
     85  OD2       15.9500   21.4030  176.9200 O.co2 170  ASP170     -0.2456
     86  N          8.8910   25.8880  178.2890 N.3   207  LYS207     -0.1231
     87  CA         9.1390   24.8810  177.2600 C.3   207  LYS207      0.1693
     88  C          8.0650   23.7990  177.1940 C.2   207  LYS207      0.2592
     89  O          7.8930   23.1790  176.1470 O.2   207  LYS207     -0.2718
     90  CB        10.5430   24.2630  177.3850 C.3   207  LYS207      0.0285
     91  CG        10.7220   23.2970  178.5400 C.3   207  LYS207      0.0035
     92  CD        11.7900   22.2610  178.2440 C.3   207  LYS207      0.0206
     93  CE        11.9830   21.3230  179.4310 C.3   207  LYS207      0.1093
     94  NZ        12.6990   20.0720  179.0590 N.3   207  LYS207     -0.1314
     95  N          7.3420   23.5760  178.2930 N.am  208  THR208     -0.1953
     96  CA         6.3550   22.4830  178.3440 C.3   208  THR208      0.1897
     97  C          4.8980   22.9100  178.5930 C.2   208  THR208      0.2313
     98  O          4.0210   22.5840  177.7960 O.2   208  THR208     -0.2863
     99  CB         6.7940   21.3500  179.3300 C.3   208  THR208      0.1794
    100  OG1        8.0120   20.7640  178.8570 O.3   208  THR208     -0.2208
    101  CG2        5.7340   20.2450  179.4500 C.3   208  THR208      0.0378
    102  N          2.2820   24.7560  175.6230 N.3   211  TYR211     -0.1241
    103  CA         1.7640   23.9490  174.5110 C.3   211  TYR211      0.1605
    104  C          1.1250   22.6210  174.9260 C.2   211  TYR211      0.2264
    105  O          0.3830   22.0180  174.1470 O.2   211  TYR211     -0.2867
    106  CB         2.8240   23.7420  173.4140 C.3   211  TYR211      0.0534
    107  CG         3.7140   22.5140  173.5470 C.ar  211  TYR211     -0.0201
    108  CD1        3.2420   21.2390  173.2240 C.ar  211  TYR211     -0.0009
    109  CD2        5.0420   22.6350  173.9490 C.ar  211  TYR211     -0.0009
    110  CE1        4.0550   20.1200  173.3350 C.ar  211  TYR211      0.0417
    111  CE2        5.8660   21.5180  174.0560 C.ar  211  TYR211      0.0417
    112  CZ         5.3630   20.2670  173.7470 C.ar  211  TYR211      0.1957
    113  OH         6.1700   19.1600  173.8510 O.3   211  TYR211     -0.2866
    114  N          6.3320   17.2200  182.9170 N.3   247  GLN247     -0.1245
    115  CA         7.7430   17.3140  182.5660 C.3   247  GLN247      0.1566
    116  C          8.6230   16.6250  183.6030 C.2   247  GLN247      0.2260
    117  O          9.6560   16.0570  183.2550 O.2   247  GLN247     -0.2867
    118  CB         8.1670   18.7680  182.3790 C.3   247  GLN247      0.0367
    119  CG         9.5990   18.9470  181.8750 C.3   247  GLN247      0.0905
    120  CD         9.8450   18.2980  180.5270 C.2   247  GLN247      0.2608
    121  OE1        9.0570   18.4510  179.5980 O.2   247  GLN247     -0.2717
    122  NE2       10.9500   17.5680  180.4150 N.am  247  GLN247     -0.0878
    123  N          8.5550   13.0980  182.6290 N.3   250  ASP250     -0.1225
    124  CA         9.4200   12.9180  181.4600 C.3   250  ASP250      0.1805
    125  C         10.8980   12.7900  181.8270 C.2   250  ASP250      0.2597
    126  O         11.6620   12.1070  181.1300 O.2   250  ASP250     -0.2718
    127  CB         9.2390   14.0770  180.4810 C.3   250  ASP250      0.1424
    128  CG         9.7760   13.7620  179.0990 C.2   250  ASP250      0.3668
    129  OD1        9.2210   12.8570  178.4380 O.co2 250  ASP250     -0.2456
    130  OD2       10.7460   14.4220  178.6700 O.co2 250  ASP250     -0.2456
    131  N         11.2860   13.4510  182.9170 N.am  251  ASP251     -0.1974
    132  CA        12.6730   13.4670  183.3840 C.3   251  ASP251      0.1709
    133  C         13.0970   12.1530  184.0450 C.2   251  ASP251      0.2293
    134  O         14.2040   11.6530  183.8120 O.2   251  ASP251     -0.2864
    135  CB        12.9010   14.6480  184.3370 C.3   251  ASP251      0.1436
    136  CG        12.8850   15.9920  183.6210 C.2   251  ASP251      0.3671
    137  OD1       12.7810   16.0000  182.3670 O.co2 251  ASP251     -0.2456
    138  OD2       12.9820   17.0370  184.3130 O.co2 251  ASP251     -0.2456
    139  N         13.3240    9.3510  181.5160 N.3   254  ASP254     -0.1239
    140  CA        14.5710    9.4480  180.7430 C.3   254  ASP254      0.1674
    141  C         15.6630    8.5620  181.3390 C.2   254  ASP254      0.2266
    142  O         16.3770    7.8770  180.6080 O.2   254  ASP254     -0.2867
    143  CB        15.0360   10.9150  180.6610 C.3   254  ASP254      0.1410
    144  CG        16.3850   11.0840  179.9450 C.2   254  ASP254      0.3668
    145  OD1       16.4030   11.6170  178.8100 O.co2 254  ASP254     -0.2456
    146  OD2       17.4330   10.7010  180.5220 O.co2 254  ASP254     -0.2456
    147  N         11.9330    6.0080  173.7330 N.3   264  LYS264     -0.1245
    148  CA        13.0270    6.9860  173.6660 C.3   264  LYS264      0.1561
    149  C         14.2870    6.4810  174.3580 C.2   264  LYS264      0.2260
    150  O         14.2130    5.8060  175.3880 O.2   264  LYS264     -0.2867
    151  CB        12.6260    8.3110  174.3230 C.3   264  LYS264      0.0271
    152  CG        11.3880    8.9840  173.7500 C.3   264  LYS264      0.0035
    153  CD        11.1590   10.3590  174.3750 C.3   264  LYS264      0.0206
    154  CE        10.6400   10.2730  175.8070 C.3   264  LYS264      0.1093
    155  NZ        10.1180   11.5820  176.2890 N.3   264  LYS264     -0.1314
    156  N         19.0230   10.7750  177.2960 N.3   267  THR267     -0.1203
    157  CA        20.0500   11.6880  176.7780 C.3   267  THR267      0.1994
    158  C         20.4230   12.8150  177.7570 C.2   267  THR267      0.2617
    159  O         21.4400   13.4880  177.5790 O.2   267  THR267     -0.2717
    160  CB        19.6620   12.2610  175.3780 C.3   267  THR267      0.1784
    161  OG1       20.2000   13.5760  175.2280 O.3   267  THR267     -0.2211
    162  CG2       18.1390   12.3230  175.1910 C.3   267  THR267      0.0376
    163  N         19.6110   12.9890  178.7990 N.am  268  ASP268     -0.1973
    164  CA        19.7720   14.0850  179.7540 C.3   268  ASP268      0.1709
    165  C         21.1430   14.1240  180.4110 C.2   268  ASP268      0.2293
    166  O         21.8400   15.1320  180.3250 O.2   268  ASP268     -0.2864
    167  CB        18.6760   14.0390  180.8240 C.3   268  ASP268      0.1436
    168  CG        17.2990   14.4120  180.2800 C.2   268  ASP268      0.3671
    169  OD1       17.1870   14.7600  179.0830 O.co2 268  ASP268     -0.2456
    170  OD2       16.3220   14.3540  181.0580 O.co2 268  ASP268     -0.2456
@<TRIPOS>BOND
     1     1     2    1
     2    54    53    2
     3    15    16    2
     4    15    14    1
     5    33    34    1
     6    33    30    1
     7    36    34   ar
     8    48    47    2
     9    31    32    2
    10    31    30    1
    11     2     3    1
    12     2     5    1
    13    55    56    1
    14    55    52    1
    15    17    14    1
    16    17    18    1
    17    13     3   am
    18    13    14    1
    19    56    57    1
    20     3     4    2
    21    51    52    1
    22    53    52    1
    23    34    35   ar
    24    21    22    1
    25    30    29    1
    26    29    23   am
    27    19    18    1
    28    47    46    1
    29     9     7   ar
    30     9    11   ar
    31     7     6   ar
    32    18    20    1
    33    12    11    1
    34    11    10   ar
    35     6     5    1
    36     6     8   ar
    37    10     8   ar
    38    23    22    1
    39    23    24    2
    40    57    58    1
    41    22    25    1
    42    58    59    2
    43    45    46    1
    44    46    49    1
    45    25    26    1
    46    49    50    1
    47    59    61    1
    48    59    60    1
    49    37    38    1
    50    77    75   am
    51    39    38    1
    52    39    40    2
    53    26    28   ar
    54    26    27   ar
    55    38    41    1
    56    68    66    1
    57    74    75    1
    58    74    73    1
    59    75    76    2
    60    66    67    1
    61    66    63    1
    62    41    42    1
    63    73    70    1
    64   108   110   ar
    65   108   107   ar
    66    64    65    2
    67    64    63    1
    68   110   112   ar
    69   106   107    1
    70   106   103    1
    71    43    42   ar
    72   107   109   ar
    73    42    44   ar
    74   148   147    1
    75   148   151    1
    76   148   149    1
    77   112   113    1
    78   112   111   ar
    79   152   151    1
    80   152   153    1
    81    63    62    1
    82   109   111   ar
    83   105   104    2
    84   149   150    2
    85   153   154    1
    86    70    71    1
    87    70    69    1
    88   103   104    1
    89   103   102    1
    90    71    72    2
    91   162   160    1
    92   161   160    1
    93   160   157    1
    94   154   155    1
    95    89    88    2
    96   157   156    1
    97   157   158    1
    98    85    83   ar
    99    88    87    1
   100    88    95   am
   101    87    90    1
   102    87    86    1
   103    90    91    1
   104   159   158    2
   105    80    79    1
   106    80    81    2
   107    82    83    1
   108    82    79    1
   109   158   163   am
   110    98    97    2
   111    83    84   ar
   112    78    79    1
   113    92    91    1
   114    92    93    1
   115    95    96    1
   116    96    97    1
   117    96    99    1
   118   129   128   ar
   119   130   128   ar
   120   163   164    1
   121   145   144   ar
   122   100    99    1
   123    94    93    1
   124   169   168   ar
   125   128   127    1
   126    99   101    1
   127   121   120    2
   128   164   165    1
   129   164   167    1
   130   144   146   ar
   131   144   143    1
   132   168   167    1
   133   168   170   ar
   134   166   165    2
   135   122   120   am
   136   127   124    1
   137   120   119    1
   138   142   141    2
   139   143   140    1
   140   140   141    1
   141   140   139    1
   142   126   125    2
   143   124   125    1
   144   124   123    1
   145   125   131   am
   146   119   118    1
   147   137   136   ar
   148   118   115    1
   149   115   114    1
   150   115   116    1
   151   131   132    1
   152   117   116    2
   153   132   133    1
   154   132   135    1
   155   136   138   ar
   156   136   135    1
   157   134   133    2
