@<TRIPOS>MOLECULE
tmp/3idhA00.pdb
 131 123 0 0 0
SMALL
GASTEIGER

@<TRIPOS>ATOM
      1  N        -20.3190   -8.9130    6.9390 N.3    76  GLY76      -0.1225
      2  CA       -21.5160   -8.3090    7.4850 C.3    76  GLY76       0.1811
      3  C        -22.5650   -7.9410    6.4620 C.2    76  GLY76       0.2280
      4  O        -23.6720   -7.5890    6.8270 O.2    76  GLY76      -0.2866
      5  N        -19.8380   -8.0630   11.6780 N.3   147  SER147     -0.1202
      6  CA       -20.8850   -7.0880   11.9500 C.3   147  SER147      0.2020
      7  C        -22.1840   -7.7410   12.3980 C.2   147  SER147      0.2619
      8  O        -23.2220   -7.5760   11.7640 O.2   147  SER147     -0.2717
      9  CB       -21.1220   -6.2680   10.7040 C.3   147  SER147      0.2103
     10  OG       -19.9210   -5.6240   10.3510 O.3   147  SER147     -0.2182
     11  N        -22.0790   -8.4970   13.4880 N.am  148  PHE148     -0.1962
     12  CA       -23.1990   -9.2140   14.0980 C.3   148  PHE148      0.1756
     13  C        -23.0300   -9.1470   15.6130 C.2   148  PHE148      0.2461
     14  O        -21.9200   -8.8700   16.0930 O.2   148  PHE148     -0.2730
     15  CB       -23.2360  -10.6610   13.5990 C.3   148  PHE148      0.0574
     16  CG       -23.3030  -10.7620   12.0970 C.ar  148  PHE148     -0.0200
     17  CD1      -22.1610  -10.9090   11.3510 C.ar  148  PHE148     -0.0042
     18  CD2      -24.5060  -10.6500   11.4480 C.ar  148  PHE148     -0.0042
     19  CE1      -22.2190  -10.9890    9.9770 C.ar  148  PHE148     -0.0003
     20  CE2      -24.5880  -10.7090   10.0780 C.ar  148  PHE148     -0.0003
     21  CZ       -23.4500  -10.8700    9.3300 C.ar  148  PHE148     -0.0000
     22  N        -24.1320   -9.3550   16.3680 N.am  149  PRO149     -0.2727
     23  CA       -24.0280   -9.2650   17.8140 C.3   149  PRO149      0.1402
     24  C        -23.1330  -10.3480   18.4030 C.2   149  PRO149      0.2269
     25  O        -23.3540  -11.5510   18.1830 O.2   149  PRO149     -0.2865
     26  CB       -25.4820   -9.4180   18.2960 C.3   149  PRO149      0.0296
     27  CG       -26.1940  -10.0510   17.2250 C.3   149  PRO149      0.0237
     28  CD       -25.5090   -9.6460   15.9390 C.3   149  PRO149      0.0939
     29  N        -28.0150  -11.8240   12.0430 N.3   164  THR164     -0.1203
     30  CA       -28.9870  -10.8030   11.6320 C.3   164  THR164      0.1994
     31  C        -28.8160  -10.6150   10.1190 C.2   164  THR164      0.2617
     32  O        -27.9580  -11.2620    9.5160 O.2   164  THR164     -0.2717
     33  CB       -28.7570   -9.4580   12.3950 C.3   164  THR164      0.1784
     34  OG1      -27.3960   -9.0530   12.2590 O.3   164  THR164     -0.2211
     35  CG2      -29.0940   -9.5920   13.8940 C.3   164  THR164      0.0376
     36  N        -29.6270   -9.7530    9.5240 N.am  165  LYS165     -0.1979
     37  CA       -29.5260   -9.3570    8.1140 C.3   165  LYS165      0.1596
     38  C        -29.5630  -10.5260    7.1260 C.2   165  LYS165      0.2287
     39  O        -28.9270  -10.4710    6.0790 O.2   165  LYS165     -0.2864
     40  CB       -28.2730   -8.4910    7.8440 C.3   165  LYS165      0.0298
     41  CG       -28.1570   -7.1930    8.6790 C.3   165  LYS165      0.0038
     42  CD       -26.7720   -6.5570    8.5590 C.3   165  LYS165      0.0206
     43  CE       -25.7140   -7.3320    9.3450 C.3   165  LYS165      0.1093
     44  NZ       -24.5180   -6.4790    9.6680 N.3   165  LYS165     -0.1314
     45  N        -16.9820   -4.9130   15.8480 N.3   200  ASN200     -0.1225
     46  CA       -18.1840   -4.5650   15.1190 C.3   200  ASN200      0.1785
     47  C        -17.8600   -3.4960   14.0810 C.2   200  ASN200      0.2597
     48  O        -16.9300   -2.7360   14.2680 O.2   200  ASN200     -0.2718
     49  CB       -19.2320   -4.0590   16.1070 C.3   200  ASN200      0.1169
     50  CG       -20.6030   -3.9660   15.4980 C.2   200  ASN200      0.2627
     51  OD1      -21.1670   -2.8660   15.3460 O.2   200  ASN200     -0.2716
     52  ND2      -21.1610   -5.1120   15.1560 N.am  200  ASN200     -0.0877
     53  N        -18.6300   -3.4280   12.9920 N.am  201  ASP201     -0.1960
     54  CA       -18.4600   -2.3420   12.0060 C.3   201  ASP201      0.1840
     55  C        -18.6500   -0.9300   12.5700 C.2   201  ASP201      0.2622
     56  O        -17.9820   -0.0020   12.1200 O.2   201  ASP201     -0.2715
     57  CB       -19.3120   -2.5410   10.7250 C.3   201  ASP201      0.1450
     58  CG       -20.7890   -2.7860   10.9960 C.2   201  ASP201      0.3671
     59  OD1      -21.5710   -2.8350   10.0210 O.co2 201  ASP201     -0.2456
     60  OD2      -21.1950   -2.9410   12.1500 O.co2 201  ASP201     -0.2456
     61  N        -19.5490   -0.7600   13.5290 N.am  202  THR202     -0.1951
     62  CA       -19.7430    0.5340   14.1650 C.3   202  THR202      0.1897
     63  C        -18.4590    0.9800   14.8400 C.2   202  THR202      0.2313
     64  O        -18.0890    2.1350   14.7640 O.2   202  THR202     -0.2863
     65  CB       -20.8940    0.5310   15.2400 C.3   202  THR202      0.1794
     66  OG1      -20.6320   -0.4650   16.2270 O.3   202  THR202     -0.2208
     67  CG2      -22.2550    0.2810   14.6030 C.3   202  THR202      0.0378
     68  N        -23.7010    2.9810   11.8400 N.3   221  ILE221     -0.1245
     69  CA       -23.8500    2.3400   10.5340 C.3   221  ILE221      0.1561
     70  C        -25.2940    2.4810   10.1000 C.2   221  ILE221      0.2260
     71  O        -26.1840    2.1390   10.8420 O.2   221  ILE221     -0.2867
     72  CB       -23.4560    0.8480   10.5870 C.3   221  ILE221      0.0252
     73  CG1      -21.9810    0.7020   10.9860 C.3   221  ILE221      0.0019
     74  CG2      -23.7290    0.1390    9.2440 C.3   221  ILE221      0.0019
     75  CD1      -20.9690    1.0720    9.9020 C.3   221  ILE221      0.0001
     76  N        -26.9630   -1.7550    4.9350 N.3   224  THR224     -0.1203
     77  CA       -27.8290   -2.9430    4.9470 C.3   224  THR224      0.1994
     78  C        -28.5630   -3.0450    6.2950 C.2   224  THR224      0.2618
     79  O        -29.7900   -3.1850    6.3460 O.2   224  THR224     -0.2717
     80  CB       -26.9760   -4.2190    4.6830 C.3   224  THR224      0.1784
     81  OG1      -26.3260   -4.0670    3.4090 O.3   224  THR224     -0.2211
     82  CG2      -27.8370   -5.4760    4.6460 C.3   224  THR224      0.0376
     83  N        -27.7900   -2.9470    7.3800 N.am  225  GLY225     -0.1942
     84  CA       -28.3150   -2.8810    8.7290 C.3   225  GLY225      0.2014
     85  C        -28.1120   -1.5290    9.3640 C.2   225  GLY225      0.2639
     86  O        -27.5640   -0.6240    8.7680 O.2   225  GLY225     -0.2714
     87  N        -28.5830   -1.3950   10.5950 N.am  226  CYS226     -0.1953
     88  CA       -28.4920   -0.1540   11.3390 C.3   226  CYS226      0.1843
     89  C        -28.1140   -0.4340   12.7970 C.2   226  CYS226      0.2625
     90  O        -28.7740   -1.2150   13.4810 O.2   226  CYS226     -0.2714
     91  CB       -29.7930    0.6160   11.2590 C.3   226  CYS226      0.0997
     92  SG       -29.7070    2.2940   11.9520 S.3   226  CYS226     -0.0797
     93  N        -27.0510    0.2100   13.2490 N.am  227  ASN227     -0.1972
     94  CA       -26.5230    0.0210   14.6000 C.3   227  ASN227      0.1688
     95  C        -25.6080    1.2130   14.9710 C.2   227  ASN227      0.2292
     96  O        -25.2760    2.0370   14.1060 O.2   227  ASN227     -0.2864
     97  CB       -25.7690   -1.2970   14.6410 C.3   227  ASN227      0.1181
     98  CG       -25.3050   -1.6880   16.0310 C.2   227  ASN227      0.2629
     99  OD1      -25.8780   -1.2790   17.0430 O.2   227  ASN227     -0.2716
    100  ND2      -24.2680   -2.5180   16.0780 N.am  227  ASN227     -0.0877
    101  N        -26.2540   -2.5360   19.7160 N.3   252  GLU252     -0.1245
    102  CA       -27.1420   -3.4250   18.9760 C.3   252  GLU252      0.1567
    103  C        -28.5730   -2.9170   19.0810 C.2   252  GLU252      0.2260
    104  O        -29.5190   -3.6460   19.4110 O.2   252  GLU252     -0.2867
    105  CB       -26.9950   -4.8710   19.4480 C.3   252  GLU252      0.0388
    106  CG       -25.6620   -5.5260   19.0610 C.3   252  GLU252      0.1160
    107  CD       -25.4890   -5.8300   17.5570 C.2   252  GLU252      0.3649
    108  OE1      -26.4850   -5.9590   16.8130 O.co2 252  GLU252     -0.2457
    109  OE2      -24.3280   -5.9700   17.1110 O.co2 252  GLU252     -0.2457
    110  N        -30.5520   -2.2590   16.8650 N.3   254  GLY254     -0.1225
    111  CA       -31.4190   -2.8470   15.8360 C.3   254  GLY254      0.1811
    112  C        -32.5300   -3.7160   16.4080 C.2   254  GLY254      0.2280
    113  O        -33.5940   -3.7900   15.8300 O.2   254  GLY254     -0.2866
    114  N        -34.8930   -7.7150   15.2580 N.3   283  GLN283     -0.1245
    115  CA       -34.3100   -6.5620   14.5880 C.3   283  GLN283      0.1566
    116  C        -35.3630   -5.6130   14.0330 C.2   283  GLN283      0.2260
    117  O        -35.2280   -5.1090   12.9330 O.2   283  GLN283     -0.2867
    118  CB       -33.3380   -7.0130   13.4770 C.3   283  GLN283      0.0367
    119  CG       -32.2010   -7.8550   13.9830 C.3   283  GLN283      0.0905
    120  CD       -31.2540   -7.0880   14.8760 C.2   283  GLN283      0.2608
    121  OE1      -31.1330   -7.3880   16.0700 O.2   283  GLN283     -0.2717
    122  NE2      -30.5550   -6.0960   14.3000 N.am  283  GLN283     -0.0878
    123  N        -34.2050   -1.9160   13.3780 N.3   286  GLU286     -0.1245
    124  CA       -33.4390   -1.9960   12.1410 C.3   286  GLU286      0.1567
    125  C        -34.2820   -2.1430   10.8610 C.2   286  GLU286      0.2260
    126  O        -33.9490   -1.5450    9.8300 O.2   286  GLU286     -0.2867
    127  CB       -32.4580   -3.1440   12.2750 C.3   286  GLU286      0.0388
    128  CG       -31.8300   -3.6420   11.0090 C.3   286  GLU286      0.1160
    129  CD       -30.6110   -4.4590   11.3330 C.2   286  GLU286      0.3649
    130  OE1      -29.5350   -3.8590   11.4470 O.co2 286  GLU286     -0.2457
    131  OE2      -30.7470   -5.6740   11.5300 O.co2 286  GLU286     -0.2457
@<TRIPOS>BOND
     1    81    80    1
     2    82    80    1
     3    80    77    1
     4    76    77    1
     5    77    78    1
     6    39    38    2
     7    78    79    2
     8    78    83   am
     9     3     4    2
    10     3     2    1
    11     1     2    1
    12    38    37    1
    13    83    84    1
    14    40    37    1
    15    40    41    1
    16    37    36    1
    17    42    41    1
    18    42    43    1
    19    84    85    1
    20    86    85    2
    21    74    72    1
    22    21    19   ar
    23    21    20   ar
    24    43    44    1
    25    85    87   am
    26    32    31    2
    27    36    31   am
    28   126   125    2
    29    75    73    1
    30    19    17   ar
    31    59    58   ar
    32    20    18   ar
    33    70    69    1
    34    70    71    2
    35    31    30    1
    36    10     9    1
    37    69    72    1
    38    69    68    1
    39    72    73    1
    40    87    88    1
    41     9     6    1
    42    57    58    1
    43    57    54    1
    44   125   124    1
    45    58    60   ar
    46   128   129    1
    47   128   127    1
    48    91    88    1
    49    91    92    1
    50   129   130   ar
    51   129   131   ar
    52    88    89    1
    53    17    16   ar
    54    18    16   ar
    55    30    29    1
    56    30    33    1
    57     5     6    1
    58     8     7    2
    59     6     7    1
    60    54    55    1
    61    54    53    1
    62    16    15    1
    63    56    55    2
    64   124   127    1
    65   124   123    1
    66    34    33    1
    67    33    35    1
    68     7    11   am
    69    55    61   am
    70    89    93   am
    71    89    90    2
    72   117   116    2
    73    53    47   am
    74    93    94    1
    75   118   119    1
    76   118   115    1
    77    11    12    1
    78    61    62    1
    79    15    12    1
    80   119   120    1
    81   116   115    1
    82    47    48    2
    83    47    46    1
    84    12    13    1
    85    96    95    2
    86    62    63    1
    87    62    65    1
    88   122   120   am
    89   115   114    1
    90    94    97    1
    91    94    95    1
    92    67    65    1
    93    97    98    1
    94    64    63    2
    95   120   121    2
    96    46    45    1
    97    46    49    1
    98    52    50   am
    99    65    66    1
   100    51    50    2
   101    50    49    1
   102    13    14    2
   103    13    22   am
   104   113   112    2
   105   111   112    1
   106   111   110    1
   107    28    22    1
   108    28    27    1
   109    98   100   am
   110    98    99    2
   111    22    23    1
   112   108   107   ar
   113   109   107   ar
   114    27    26    1
   115   107   106    1
   116    23    26    1
   117    23    24    1
   118    25    24    2
   119   102   103    1
   120   102   105    1
   121   102   101    1
   122   106   105    1
   123   103   104    2
