@<TRIPOS>MOLECULE
tmp/3idmB00.pdb
 119 115 0 0 0
SMALL
GASTEIGER

@<TRIPOS>ATOM
      1  N         -2.3160   48.0280   94.1750 N.3    32  PHE32      -0.1227
      2  CA        -1.8140   49.2810   93.6230 C.3    32  PHE32       0.1736
      3  C         -0.8370   49.0960   92.4700 C.2    32  PHE32       0.2596
      4  O          0.0520   48.2490   92.5250 O.2    32  PHE32      -0.2718
      5  CB        -1.1760   50.1600   94.7210 C.3    32  PHE32       0.0547
      6  CG        -0.5560   51.4430   94.2010 C.ar   32  PHE32      -0.0202
      7  CD1       -1.3700   52.5120   93.7660 C.ar   32  PHE32      -0.0042
      8  CD2        0.8470   51.5620   94.0780 C.ar   32  PHE32      -0.0042
      9  CE1       -0.7950   53.6890   93.2000 C.ar   32  PHE32      -0.0003
     10  CE2        1.4390   52.7310   93.5140 C.ar   32  PHE32      -0.0003
     11  CZ         0.6170   53.7940   93.0740 C.ar   32  PHE32      -0.0000
     12  N         -1.0550   49.8960   91.4300 N.am   33  GLY33      -0.1957
     13  CA        -0.1930   49.9090   90.2620 C.3    33  GLY33       0.1869
     14  C         -0.1640   48.7820   89.2590 C.2    33  GLY33       0.2309
     15  O          0.4480   48.9190   88.2010 O.2    33  GLY33      -0.2863
     16  N         -5.3390   48.7230   84.0100 N.3    54  TYR54      -0.1227
     17  CA        -4.7570   48.8150   85.3430 C.3    54  TYR54       0.1736
     18  C         -5.7920   48.6960   86.4410 C.2    54  TYR54       0.2596
     19  O         -6.9940   48.7300   86.1720 O.2    54  TYR54      -0.2718
     20  CB        -4.0210   50.1360   85.5000 C.3    54  TYR54       0.0548
     21  CG        -2.9340   50.3400   84.4830 C.ar   54  TYR54      -0.0200
     22  CD1       -3.1880   51.0520   83.2920 C.ar   54  TYR54      -0.0009
     23  CD2       -1.6460   49.8150   84.6940 C.ar   54  TYR54      -0.0009
     24  CE1       -2.1870   51.2390   82.3330 C.ar   54  TYR54       0.0417
     25  CE2       -0.6200   49.9910   83.7350 C.ar   54  TYR54       0.0417
     26  CZ        -0.9020   50.7010   82.5620 C.ar   54  TYR54       0.1957
     27  OH         0.0710   50.8620   81.6190 O.3    54  TYR54      -0.2866
     28  N         -5.3130   48.6160   87.6830 N.am   55  SER55      -0.1938
     29  CA        -6.1670   48.5020   88.8640 C.3    55  SER55       0.2055
     30  C         -7.1770   49.6430   89.0440 C.2    55  SER55       0.2643
     31  O         -8.3120   49.3860   89.4500 O.2    55  SER55      -0.2714
     32  CB        -5.3210   48.3180   90.1280 C.3    55  SER55       0.2130
     33  OG        -4.2700   49.2610   90.1880 O.3    55  SER55      -0.2179
     34  N         -6.7950   50.8700   88.6620 N.am   56  ASP56      -0.1971
     35  CA        -7.7080   52.0180   88.7700 C.3    56  ASP56       0.1709
     36  C         -8.6980   52.1170   87.6000 C.2    56  ASP56       0.2293
     37  O         -9.3500   53.1550   87.4180 O.2    56  ASP56      -0.2864
     38  CB        -6.9650   53.3560   88.9770 C.3    56  ASP56       0.1436
     39  CG        -6.2430   53.8510   87.7150 C.2    56  ASP56       0.3671
     40  OD1       -6.1410   53.0890   86.7280 O.co2  56  ASP56      -0.2456
     41  OD2       -5.7420   54.9940   87.7190 O.co2  56  ASP56      -0.2456
     42  N         -8.0440   52.3060   84.3890 N.3    58  ASP58      -0.1239
     43  CA        -7.5590   53.0730   83.2340 C.3    58  ASP58       0.1674
     44  C         -7.1890   52.0420   82.1570 C.2    58  ASP58       0.2266
     45  O         -6.6080   50.9960   82.4610 O.2    58  ASP58      -0.2867
     46  CB        -6.3470   53.9340   83.6180 C.3    58  ASP58       0.1410
     47  CG        -5.8450   54.8000   82.4730 C.2    58  ASP58       0.3668
     48  OD1       -4.6630   54.6370   82.1110 O.co2  58  ASP58      -0.2456
     49  OD2       -6.6300   55.6160   81.9310 O.co2  58  ASP58      -0.2456
     50  N         -5.8480   51.4390   77.9600 N.3    60  ARG60      -0.1245
     51  CA        -5.1300   52.0020   76.8130 C.3    60  ARG60       0.1563
     52  C         -5.1350   50.9490   75.7160 C.2    60  ARG60       0.2260
     53  O         -5.0560   49.7500   75.9890 O.2    60  ARG60      -0.2867
     54  CB        -3.6930   52.4150   77.1600 C.3    60  ARG60       0.0307
     55  CG        -3.5730   53.4670   78.2650 C.3    60  ARG60       0.0489
     56  CD        -4.0540   54.8720   77.8960 C.3    60  ARG60       0.2205
     57  NE        -4.4120   55.6090   79.1140 N.pl3  60  ARG60      -0.0865
     58  CZ        -4.1150   56.8820   79.3670 C.cat  60  ARG60       0.5346
     59  NH1       -3.4420   57.6150   78.4910 N.pl3  60  ARG60       0.1354
     60  NH2       -4.4860   57.4260   80.5190 N.pl3  60  ARG60       0.1354
     61  N          1.8750   43.1310   84.5630 N.3   100  ARG100     -0.1231
     62  CA         2.7640   44.2820   84.6670 C.3   100  ARG100      0.1694
     63  C          2.8050   44.6590   86.1420 C.2   100  ARG100      0.2592
     64  O          1.7610   44.8930   86.7590 O.2   100  ARG100     -0.2718
     65  CB         2.2710   45.4970   83.8720 C.3   100  ARG100      0.0321
     66  CG         3.3440   46.5840   83.7750 C.3   100  ARG100      0.0489
     67  CD         2.8810   47.8440   83.0910 C.3   100  ARG100      0.2205
     68  NE         4.0220   48.7340   82.8900 N.pl3 100  ARG100     -0.0865
     69  CZ         3.9570   49.9620   82.3770 C.cat 100  ARG100      0.5346
     70  NH1        2.7930   50.4950   82.0000 N.pl3 100  ARG100      0.1354
     71  NH2        5.0680   50.6630   82.2260 N.pl3 100  ARG100      0.1354
     72  N          4.0160   44.6960   86.6970 N.am  101  ARG101     -0.1966
     73  CA         4.2460   45.0620   88.0870 C.3   101  ARG101      0.1729
     74  C          3.9810   46.5310   88.3180 C.2   101  ARG101      0.2617
     75  O          4.0640   47.3430   87.3950 O.2   101  ARG101     -0.2715
     76  CB         5.7030   44.8010   88.4980 C.3   101  ARG101      0.0348
     77  CG         6.0060   43.3880   88.9470 C.3   101  ARG101      0.0492
     78  CD         7.4570   43.2160   89.4100 C.3   101  ARG101      0.2205
     79  NE         8.4240   43.5330   88.3560 N.pl3 101  ARG101     -0.0865
     80  CZ         9.3210   42.6830   87.8530 C.cat 101  ARG101      0.5346
     81  NH1        9.4050   41.4340   88.2950 N.pl3 101  ARG101      0.1354
     82  NH2       10.1360   43.0860   86.8850 N.pl3 101  ARG101      0.1354
     83  N          3.6470   46.8530   89.5610 N.am  102  GLY102     -0.1941
     84  CA         3.4380   48.2290   89.9520 C.3   102  GLY102      0.1998
     85  C          4.7550   48.6380   90.5810 C.2   102  GLY102      0.2480
     86  O          5.6780   47.8200   90.6010 O.2   102  GLY102     -0.2729
     87  N          4.9110   49.8820   91.0670 N.am  103  PRO103     -0.2726
     88  CA         6.1820   50.2890   91.6800 C.3   103  PRO103      0.1402
     89  C          6.4820   49.5580   92.9880 C.2   103  PRO103      0.2269
     90  O          5.5610   49.0730   93.6690 O.2   103  PRO103     -0.2865
     91  CB         5.9680   51.7790   91.9560 C.3   103  PRO103      0.0296
     92  CG         4.9110   52.1750   90.9860 C.3   103  PRO103      0.0237
     93  CD         3.9770   51.0140   91.0310 C.3   103  PRO103      0.0939
     94  N         10.1920   53.0810   90.4890 N.3   113  ARG113     -0.1245
     95  CA         9.3060   52.8410   89.3570 C.3   113  ARG113      0.1563
     96  C          9.9350   51.9030   88.3240 C.2   113  ARG113      0.2260
     97  O          9.2700   51.4950   87.3840 O.2   113  ARG113     -0.2867
     98  CB         8.8440   54.1590   88.7190 C.3   113  ARG113      0.0307
     99  CG         9.9570   55.0600   88.2600 C.3   113  ARG113      0.0489
    100  CD         9.4220   56.3760   87.7700 C.3   113  ARG113      0.2205
    101  NE        10.5200   57.2430   87.3530 N.pl3 113  ARG113     -0.0865
    102  CZ        10.4660   58.1050   86.3420 C.cat 113  ARG113      0.5346
    103  NH1        9.3600   58.2380   85.6140 N.pl3 113  ARG113      0.1354
    104  NH2       11.5330   58.8380   86.0550 N.pl3 113  ARG113      0.1354
    105  N          8.2290   48.4420   86.7760 N.3   116  VAL116     -0.1231
    106  CA         7.0710   48.5720   85.8900 C.3   116  VAL116      0.1692
    107  C          7.4540   48.4720   84.4150 C.2   116  VAL116      0.2592
    108  O          6.5910   48.2840   83.5470 O.2   116  VAL116     -0.2718
    109  CB         6.3430   49.9210   86.0830 C.3   116  VAL116      0.0266
    110  CG1        6.0550   50.1930   87.5490 C.3   116  VAL116      0.0020
    111  CG2        7.1240   51.0780   85.4500 C.3   116  VAL116      0.0020
    112  N          8.7470   48.6560   84.1420 N.am  117  ASN117     -0.1974
    113  CA         9.2500   48.6510   82.7770 C.3   117  ASN117      0.1688
    114  C          9.5040   47.2730   82.1850 C.2   117  ASN117      0.2292
    115  O         10.6300   46.9280   81.7880 O.2   117  ASN117     -0.2864
    116  CB        10.4600   49.5700   82.6730 C.3   117  ASN117      0.1181
    117  CG        10.1030   51.0360   82.8980 C.2   117  ASN117      0.2629
    118  OD1        8.9950   51.4750   82.5750 O.2   117  ASN117     -0.2716
    119  ND2       11.0650   51.8130   83.4040 N.am  117  ASN117     -0.0877
@<TRIPOS>BOND
     1    52    53    2
     2    52    51    1
     3    51    54    1
     4    51    50    1
     5    54    55    1
     6    56    55    1
     7    56    57    1
     8    59    58    1
     9    57    58    2
    10    58    60    1
    11    27    26    1
    12   115   114    2
    13    49    47   ar
    14    70    69    1
    15    48    47   ar
    16    44    45    2
    17    44    43    1
    18   114   113    1
    19    71    69    1
    20    24    26   ar
    21    24    22   ar
    22    69    68    2
    23    47    46    1
    24    26    25   ar
    25   118   117    2
    26   116   113    1
    27   116   117    1
    28   113   112    1
    29    68    67    1
    30   117   119   am
    31    67    66    1
    32    43    46    1
    33    43    42    1
    34    22    21   ar
    35   108   107    2
    36    25    23   ar
    37    66    65    1
    38    65    62    1
    39    16    17    1
    40   112   107   am
    41   107   106    1
    42    21    23   ar
    43    21    20    1
    44    61    62    1
    45    62    63    1
    46    17    20    1
    47    17    18    1
    48   111   109    1
    49   103   102    1
    50   106   109    1
    51   106   105    1
    52   104   102    1
    53   109   110    1
    54    63    72   am
    55    63    64    2
    56    19    18    2
    57   102   101    2
    58    18    28   am
    59    72    73    1
    60    40    39   ar
    61    82    80    1
    62   101   100    1
    63    97    96    2
    64    75    74    2
    65    37    36    2
    66    36    35    1
    67    28    29    1
    68    39    41   ar
    69    39    38    1
    70   100    99    1
    71    80    81    1
    72    80    79    2
    73    73    74    1
    74    73    76    1
    75    15    14    2
    76    99    98    1
    77    74    83   am
    78    96    95    1
    79    79    78    1
    80    76    77    1
    81    34    35    1
    82    34    30   am
    83    98    95    1
    84    35    38    1
    85    29    30    1
    86    29    32    1
    87    77    78    1
    88    30    31    2
    89    14    13    1
    90    95    94    1
    91    83    84    1
    92    84    85    1
    93    32    33    1
    94    13    12    1
    95    85    86    2
    96    85    87   am
    97    92    93    1
    98    92    91    1
    99    93    87    1
   100    87    88    1
   101    12     3   am
   102    88    91    1
   103    88    89    1
   104     3     4    2
   105     3     2    1
   106    89    90    2
   107    11     9   ar
   108    11    10   ar
   109     9     7   ar
   110    10     8   ar
   111     2     1    1
   112     2     5    1
   113     7     6   ar
   114     8     6   ar
   115     6     5    1
