@<TRIPOS>MOLECULE
tmp/3idnB00.pdb
 116 110 0 0 0
SMALL
GASTEIGER

@<TRIPOS>ATOM
      1  N         -2.3790   48.0000   93.5680 N.3    32  PHE32      -0.1227
      2  CA        -1.8620   49.2600   93.0700 C.3    32  PHE32       0.1736
      3  C         -1.0120   49.2170   91.8000 C.2    32  PHE32       0.2596
      4  O          0.0030   48.5270   91.7310 O.2    32  PHE32      -0.2718
      5  CB        -1.0610   49.9900   94.1480 C.3    32  PHE32       0.0547
      6  CG        -0.5550   51.3250   93.6900 C.ar   32  PHE32      -0.0202
      7  CD1       -1.4470   52.3660   93.4660 C.ar   32  PHE32      -0.0042
      8  CD2        0.7920   51.5200   93.4010 C.ar   32  PHE32      -0.0042
      9  CE1       -1.0120   53.5840   92.9610 C.ar   32  PHE32      -0.0003
     10  CE2        1.2410   52.7320   92.8950 C.ar   32  PHE32      -0.0003
     11  CZ         0.3370   53.7710   92.6710 C.ar   32  PHE32      -0.0000
     12  N         -1.4490   49.9830   90.8050 N.am   33  GLY33      -0.1957
     13  CA        -0.7410   50.0960   89.5400 C.3    33  GLY33       0.1869
     14  C         -0.5530   48.8700   88.6650 C.2    33  GLY33       0.2309
     15  O          0.2090   48.9210   87.6970 O.2    33  GLY33      -0.2863
     16  N         -5.4280   48.7370   83.3900 N.3    54  TYR54      -0.1241
     17  CA        -4.8520   48.8230   84.7290 C.3    54  TYR54       0.1605
     18  C         -5.9210   48.7050   85.8010 C.2    54  TYR54       0.2264
     19  O         -7.1150   48.8620   85.5310 O.2    54  TYR54      -0.2867
     20  CB        -4.1120   50.1460   84.9070 C.3    54  TYR54       0.0534
     21  CG        -3.0510   50.3730   83.8650 C.ar   54  TYR54      -0.0201
     22  CD1       -3.3750   50.9130   82.6200 C.ar   54  TYR54      -0.0009
     23  CD2       -1.7250   50.0140   84.1090 C.ar   54  TYR54      -0.0009
     24  CE1       -2.4060   51.0910   81.6450 C.ar   54  TYR54       0.0417
     25  CE2       -0.7430   50.1830   83.1410 C.ar   54  TYR54       0.0417
     26  CZ        -1.0870   50.7190   81.9150 C.ar   54  TYR54       0.1957
     27  OH        -0.1140   50.8630   80.9640 O.3    54  TYR54      -0.2866
     28  N         -6.7480   50.7450   88.0590 N.3    56  ASP56      -0.1239
     29  CA        -7.5420   51.9600   88.2550 C.3    56  ASP56       0.1674
     30  C         -8.5110   52.1290   87.0760 C.2    56  ASP56       0.2266
     31  O         -9.2040   53.1370   86.9520 O.2    56  ASP56      -0.2867
     32  CB        -6.6480   53.2060   88.4140 C.3    56  ASP56       0.1410
     33  CG        -6.0060   53.6580   87.1070 C.2    56  ASP56       0.3668
     34  OD1       -6.2080   53.0030   86.0680 O.co2  56  ASP56      -0.2456
     35  OD2       -5.2940   54.6840   87.1240 O.co2  56  ASP56      -0.2456
     36  N         -7.8520   52.3930   83.7310 N.3    58  ASP58      -0.1239
     37  CA        -7.4150   53.1860   82.5760 C.3    58  ASP58       0.1674
     38  C         -7.2430   52.1250   81.4800 C.2    58  ASP58       0.2266
     39  O         -6.7750   51.0270   81.7700 O.2    58  ASP58      -0.2867
     40  CB        -6.0640   53.8480   82.9010 C.3    58  ASP58       0.1410
     41  CG        -5.4340   54.5720   81.7080 C.2    58  ASP58       0.3668
     42  OD1       -4.1860   54.6100   81.6340 O.co2  58  ASP58      -0.2456
     43  OD2       -6.1680   55.1170   80.8640 O.co2  58  ASP58      -0.2456
     44  N         -5.9520   51.3210   77.2610 N.3    60  ARG60      -0.1245
     45  CA        -5.2200   51.8360   76.1090 C.3    60  ARG60       0.1563
     46  C         -5.2280   50.7860   75.0140 C.2    60  ARG60       0.2260
     47  O         -5.0940   49.5960   75.2900 O.2    60  ARG60      -0.2867
     48  CB        -3.7920   52.1880   76.5010 C.3    60  ARG60       0.0307
     49  CG        -3.7280   53.2080   77.6100 C.3    60  ARG60       0.0489
     50  CD        -4.2240   54.5680   77.1560 C.3    60  ARG60       0.2205
     51  NE        -4.5790   55.3880   78.3110 N.pl3  60  ARG60      -0.0865
     52  CZ        -4.2830   56.6770   78.4370 C.cat  60  ARG60       0.5346
     53  NH1       -3.6190   57.3090   77.4770 N.pl3  60  ARG60       0.1354
     54  NH2       -4.6490   57.3360   79.5260 N.pl3  60  ARG60       0.1354
     55  N          1.6200   43.0790   84.0570 N.3   100  ARG100     -0.1231
     56  CA         2.5240   44.2170   84.1150 C.3   100  ARG100      0.1694
     57  C          2.5650   44.6410   85.5820 C.2   100  ARG100      0.2591
     58  O          1.5390   44.9270   86.2000 O.2   100  ARG100     -0.2718
     59  CB         2.0470   45.4030   83.2770 C.3   100  ARG100      0.0321
     60  CG         3.0830   46.5270   83.2640 C.3   100  ARG100      0.0489
     61  CD         2.6340   47.7800   82.5150 C.3   100  ARG100      0.2205
     62  NE         3.7620   48.6930   82.3660 N.pl3 100  ARG100     -0.0865
     63  CZ         3.7170   49.8960   81.7930 C.cat 100  ARG100      0.5346
     64  NH1        2.5840   50.3880   81.2990 N.pl3 100  ARG100      0.1354
     65  NH2        4.8370   50.6030   81.6830 N.pl3 100  ARG100      0.1354
     66  N          3.7690   44.6560   86.1230 N.am  101  ARG101     -0.1980
     67  CA         4.0270   45.0170   87.4990 C.3   101  ARG101      0.1597
     68  C          3.7780   46.4910   87.7990 C.2   101  ARG101      0.2287
     69  O          3.9360   47.3500   86.9310 O.2   101  ARG101     -0.2864
     70  CB         5.4860   44.6860   87.8170 C.3   101  ARG101      0.0334
     71  CG         5.6940   43.6600   88.9110 C.3   101  ARG101      0.0492
     72  CD         7.0150   42.9140   88.7530 C.3   101  ARG101      0.2205
     73  NE         7.8910   43.4980   87.7410 N.pl3 101  ARG101     -0.0865
     74  CZ         8.9680   42.8910   87.2460 C.cat 101  ARG101      0.5346
     75  NH1        9.3100   41.6760   87.6670 N.pl3 101  ARG101      0.1354
     76  NH2        9.7040   43.4960   86.3220 N.pl3 101  ARG101      0.1354
     77  N          4.6470   49.8080   90.5830 N.3   103  PRO103     -0.2116
     78  CA         5.9370   50.2540   91.1270 C.3   103  PRO103      0.1372
     79  C          6.2720   49.6050   92.4710 C.2   103  PRO103      0.2244
     80  O          5.3790   49.2050   93.2170 O.2   103  PRO103     -0.2868
     81  CB         5.7510   51.7650   91.2900 C.3   103  PRO103      0.0268
     82  CG         4.5430   52.0890   90.4520 C.3   103  PRO103      0.0207
     83  CD         3.6610   50.8950   90.6370 C.3   103  PRO103      0.0892
     84  N          5.2710   54.2400   96.6780 N.3   110  PRO110     -0.2116
     85  CA         6.0590   53.8940   95.4920 C.3   110  PRO110      0.1372
     86  C          7.4130   54.5940   95.4780 C.2   110  PRO110      0.2244
     87  O          7.4910   55.8160   95.5730 O.2   110  PRO110     -0.2868
     88  CB         5.1560   54.3320   94.3400 C.3   110  PRO110      0.0268
     89  CG         4.4060   55.4890   94.9250 C.3   110  PRO110      0.0207
     90  CD         4.0490   54.9710   96.2980 C.3   110  PRO110      0.0892
     91  N          9.8120   52.9170   89.8550 N.3   113  ARG113     -0.1245
     92  CA         8.9320   52.5820   88.7490 C.3   113  ARG113      0.1563
     93  C          9.6150   51.6500   87.7540 C.2   113  ARG113      0.2260
     94  O          8.9690   51.1240   86.8480 O.2   113  ARG113     -0.2867
     95  CB         8.4580   53.8560   88.0430 C.3   113  ARG113      0.0307
     96  CG         9.5650   54.7990   87.6870 C.3   113  ARG113      0.0489
     97  CD         9.0580   56.0310   86.9370 C.3   113  ARG113      0.2205
     98  NE        10.1810   56.8870   86.5680 N.pl3 113  ARG113     -0.0865
     99  CZ        10.1490   57.8190   85.6230 C.cat 113  ARG113      0.5346
    100  NH1        9.0400   58.0350   84.9270 N.pl3 113  ARG113      0.1354
    101  NH2       11.2390   58.5310   85.3690 N.pl3 113  ARG113      0.1354
    102  N          7.9190   48.5110   86.2170 N.3   116  VAL116     -0.1231
    103  CA         6.7920   48.5870   85.2780 C.3   116  VAL116      0.1692
    104  C          7.2460   48.4780   83.8260 C.2   116  VAL116      0.2592
    105  O          6.4240   48.3040   82.9220 O.2   116  VAL116     -0.2718
    106  CB         6.0090   49.9280   85.4060 C.3   116  VAL116      0.0266
    107  CG1        5.6920   50.2360   86.8760 C.3   116  VAL116      0.0020
    108  CG2        6.8040   51.0550   84.7770 C.3   116  VAL116      0.0020
    109  N          8.5510   48.5670   83.5920 N.am  117  ASN117     -0.1974
    110  CA         9.0480   48.5220   82.2270 C.3   117  ASN117      0.1688
    111  C          9.2890   47.1410   81.6400 C.2   117  ASN117      0.2292
    112  O         10.4160   46.7840   81.2740 O.2   117  ASN117     -0.2864
    113  CB        10.2980   49.3900   82.1080 C.3   117  ASN117      0.1181
    114  CG         9.9890   50.8630   82.3150 C.2   117  ASN117      0.2629
    115  OD1        8.8990   51.3220   81.9690 O.2   117  ASN117     -0.2716
    116  ND2       10.9400   51.6120   82.8680 N.am  117  ASN117     -0.0877
@<TRIPOS>BOND
     1    46    47    2
     2    46    45    1
     3    45    48    1
     4    45    44    1
     5    48    49    1
     6    50    49    1
     7    50    51    1
     8    53    52    1
     9    51    52    2
    10    52    54    1
    11    43    41   ar
    12    27    26    1
    13   112   111    2
    14    64    63    1
    15    38    39    2
    16    38    37    1
    17    42    41   ar
    18   111   110    1
    19    24    26   ar
    20    24    22   ar
    21    65    63    1
    22    41    40    1
    23    63    62    2
    24    26    25   ar
    25   115   114    2
    26   113   110    1
    27   113   114    1
    28   110   109    1
    29   114   116   am
    30    62    61    1
    31    61    60    1
    32    37    40    1
    33    37    36    1
    34    22    21   ar
    35   105   104    2
    36    25    23   ar
    37    60    59    1
    38    59    56    1
    39    16    17    1
    40   109   104   am
    41   104   103    1
    42    21    23   ar
    43    21    20    1
    44    55    56    1
    45    56    57    1
    46    17    20    1
    47    17    18    1
    48   108   106    1
    49   100    99    1
    50   103   106    1
    51   103   102    1
    52   101    99    1
    53   106   107    1
    54    19    18    2
    55    57    66   am
    56    57    58    2
    57    99    98    2
    58    34    33   ar
    59    66    67    1
    60    76    74    1
    61    98    97    1
    62    94    93    2
    63    69    68    2
    64    97    96    1
    65    31    30    2
    66    30    29    1
    67    33    35   ar
    68    33    32    1
    69    74    75    1
    70    74    73    2
    71    67    68    1
    72    67    70    1
    73    96    95    1
    74    15    14    2
    75    73    72    1
    76    93    92    1
    77    70    71    1
    78    95    92    1
    79    28    29    1
    80    29    32    1
    81    14    13    1
    82    92    91    1
    83    72    71    1
    84    13    12    1
    85    82    83    1
    86    82    81    1
    87    77    83    1
    88    77    78    1
    89    12     3   am
    90    78    81    1
    91    78    79    1
    92     4     3    2
    93     3     2    1
    94    79    80    2
    95    11    10   ar
    96    11     9   ar
    97    10     8   ar
    98     9     7   ar
    99     2     1    1
   100     2     5    1
   101     8     6   ar
   102     7     6   ar
   103     6     5    1
   104    88    89    1
   105    88    85    1
   106    89    90    1
   107    86    85    1
   108    86    87    2
   109    85    84    1
   110    90    84    1
