@<TRIPOS>MOLECULE
tmp/3idoA00.pdb
 111 110 0 0 0
SMALL
GASTEIGER

@<TRIPOS>ATOM
      1  N         58.1910   69.6840    5.5820 N.3     8  CYS8       -0.1221
      2  CA        58.8940   69.6200    6.8690 C.3     8  CYS8        0.1808
      3  C         60.0080   70.6840    6.8750 C.2     8  CYS8        0.2601
      4  O         59.9610   71.6250    6.0740 O.2     8  CYS8       -0.2717
      5  CB        59.4280   68.2110    7.1470 C.3     8  CYS8        0.0970
      6  SG        60.6540   67.5610    5.9570 S.3     8  CYS8       -0.0800
      7  N         60.9850   70.5650    7.7750 N.am    9  LEU9       -0.1965
      8  CA        62.0520   71.5710    7.8940 C.3     9  LEU9        0.1728
      9  C         63.0980   71.4260    6.7810 C.2     9  LEU9        0.2617
     10  O         63.2860   72.3350    5.9650 O.2     9  LEU9       -0.2715
     11  CB        62.7070   71.5030    9.2870 C.3     9  LEU9        0.0311
     12  CG        63.9460   72.3430    9.6610 C.3     9  LEU9        0.0022
     13  CD1       63.6760   73.8320    9.5600 C.3     9  LEU9        0.0001
     14  CD2       64.4450   71.9900   11.0780 C.3     9  LEU9        0.0001
     15  N         63.7420   70.2640    6.7310 N.am   10  GLY10      -0.1940
     16  CA        64.8200   70.0100    5.7810 C.3    10  GLY10       0.2014
     17  C         64.4720   69.2610    4.5060 C.2    10  GLY10       0.2639
     18  O         65.2860   69.2170    3.5780 O.2    10  GLY10      -0.2714
     19  N         63.2740   68.6840    4.4360 N.am   11  ASN11      -0.1958
     20  CA        62.8530   67.8910    3.2590 C.3    11  ASN11       0.1819
     21  C         63.8200   66.7280    2.9700 C.2    11  ASN11       0.2621
     22  O         64.1890   66.4590    1.8250 O.2    11  ASN11      -0.2715
     23  CB        62.6060   68.7870    2.0120 C.3    11  ASN11       0.1195
     24  CG        61.9520   68.0230    0.8350 C.2    11  ASN11       0.2630
     25  OD1       62.2710   68.2580   -0.3420 O.2    11  ASN11      -0.2716
     26  ND2       61.0410   67.1070    1.1560 N.am   11  ASN11      -0.0877
     27  N         64.2380   66.0550    4.0360 N.am   12  ILE12      -0.1963
     28  CA        65.0390   64.8310    3.9340 C.3    12  ILE12       0.1727
     29  C         64.5090   63.6660    4.7690 C.2    12  ILE12       0.2616
     30  O         64.8170   62.5280    4.4540 O.2    12  ILE12      -0.2715
     31  CB        66.5540   65.0360    4.2560 C.3    12  ILE12       0.0290
     32  CG1       66.7570   65.6060    5.6660 C.3    12  ILE12       0.0022
     33  CG2       67.2480   65.9000    3.1940 C.3    12  ILE12       0.0023
     34  CD1       68.1320   65.2980    6.2360 C.3    12  ILE12       0.0001
     35  N         63.7330   63.9140    5.8310 N.am   13  CYS13      -0.1954
     36  CA        63.1260   62.7820    6.5710 C.3    13  CYS13       0.1843
     37  C         61.6010   62.6790    6.3970 C.2    13  CYS13       0.2625
     38  O         61.1230   61.7850    5.6840 O.2    13  CYS13      -0.2714
     39  CB        63.4860   62.7740    8.0650 C.3    13  CYS13       0.0997
     40  SG        65.2670   62.8680    8.5230 S.3    13  CYS13      -0.0797
     41  N         60.8590   63.5990    7.0310 N.am   14  ARG14      -0.1977
     42  CA        59.4080   63.4670    7.2060 C.3    14  ARG14       0.1597
     43  C         58.5780   63.6910    5.9490 C.2    14  ARG14       0.2287
     44  O         57.7800   62.8280    5.5920 O.2    14  ARG14      -0.2864
     45  CB        58.8990   64.3830    8.3260 C.3    14  ARG14       0.0334
     46  CG        59.3210   63.9640    9.7180 C.3    14  ARG14       0.0492
     47  CD        59.0570   65.0910   10.7250 C.3    14  ARG14       0.2205
     48  NE        59.9060   66.2510   10.4570 N.pl3  14  ARG14      -0.0865
     49  CZ        59.8580   67.3830   11.1430 C.cat  14  ARG14       0.5346
     50  NH1       60.6650   68.3860   10.8200 N.pl3  14  ARG14       0.1354
     51  NH2       58.9950   67.5120   12.1470 N.pl3  14  ARG14       0.1354
     52  N         63.5010   75.1070    5.0640 N.3    43  CYS43      -0.1235
     53  CA        64.9320   75.4140    5.0690 C.3    43  CYS43       0.1677
     54  C         65.6080   74.8600    3.8040 C.2    43  CYS43       0.2270
     55  O         65.2740   73.7560    3.3450 O.2    43  CYS43      -0.2867
     56  CB        65.5720   74.7920    6.3110 C.3    43  CYS43       0.0956
     57  SG        67.2860   75.2650    6.6090 S.3    43  CYS43      -0.0801
     58  N         68.9490   74.3470    3.6040 N.3    45  TYR45      -0.1227
     59  CA        70.2470   73.8010    4.0020 C.3    45  TYR45       0.1736
     60  C         70.6010   72.5460    3.2030 C.2    45  TYR45       0.2595
     61  O         71.6640   72.4890    2.5720 O.2    45  TYR45      -0.2718
     62  CB        70.2970   73.5410    5.5170 C.3    45  TYR45       0.0548
     63  CG        71.6810   73.1740    6.0110 C.ar   45  TYR45      -0.0200
     64  CD1       72.6530   74.1650    6.2470 C.ar   45  TYR45      -0.0009
     65  CD2       72.0310   71.8450    6.2200 C.ar   45  TYR45      -0.0009
     66  CE1       73.9350   73.8260    6.6800 C.ar   45  TYR45       0.0417
     67  CE2       73.3050   71.5010    6.6540 C.ar   45  TYR45       0.0417
     68  CZ        74.2490   72.4920    6.8830 C.ar   45  TYR45       0.1957
     69  OH        75.5010   72.1320    7.3000 O.3    45  TYR45      -0.2866
     70  N         69.6880   71.5730    3.1990 N.am   46  HIS46      -0.1975
     71  CA        69.8930   70.2660    2.5650 C.3    46  HIS46       0.1656
     72  C         69.5400   70.1680    1.0820 C.2    46  HIS46       0.2291
     73  O         69.5990   69.0730    0.5140 O.2    46  HIS46      -0.2864
     74  CB        69.0920   69.1960    3.3040 C.3    46  HIS46       0.0771
     75  CG        69.5100   69.0120    4.7230 C.ar   46  HIS46       0.0820
     76  ND1       70.5840   68.2290    5.0840 N.ar   46  HIS46      -0.2267
     77  CD2       69.0180   69.5330    5.8690 C.ar   46  HIS46       0.1154
     78  CE1       70.7240   68.2580    6.3970 C.ar   46  HIS46       0.1986
     79  NE2       69.7890   69.0470    6.8970 N.ar   46  HIS46      -0.2212
     80  N         60.2550   64.9500   14.5690 N.3   124  ASP124     -0.1239
     81  CA        61.5300   64.9230   13.8610 C.3   124  ASP124      0.1674
     82  C         62.3300   63.6940   14.3130 C.2   124  ASP124      0.2266
     83  O         62.6270   63.5710   15.4980 O.2   124  ASP124     -0.2867
     84  CB        62.2890   66.2110   14.1750 C.3   124  ASP124      0.1410
     85  CG        63.5570   66.3750   13.3570 C.2   124  ASP124      0.3668
     86  OD1       64.0180   65.4320   12.6830 O.co2 124  ASP124     -0.2456
     87  OD2       64.1090   67.4840   13.4110 O.co2 124  ASP124     -0.2456
     88  N         65.3840   62.6760   13.0640 N.3   126  TYR126     -0.1227
     89  CA        66.7930   62.7680   12.6690 C.3   126  TYR126      0.1736
     90  C         67.8070   62.3790   13.7560 C.2   126  TYR126      0.2595
     91  O         68.7650   61.6450   13.4740 O.2   126  TYR126     -0.2718
     92  CB        67.1310   64.1650   12.1330 C.3   126  TYR126      0.0548
     93  CG        68.4830   64.2060   11.4760 C.ar  126  TYR126     -0.0200
     94  CD1       68.6630   63.6970   10.1910 C.ar  126  TYR126     -0.0009
     95  CD2       69.5950   64.7300   12.1440 C.ar  126  TYR126     -0.0009
     96  CE1       69.9140   63.7110    9.5790 C.ar  126  TYR126      0.0417
     97  CE2       70.8560   64.7530   11.5380 C.ar  126  TYR126      0.0417
     98  CZ        71.0020   64.2420   10.2580 C.ar  126  TYR126      0.1957
     99  OH        72.2290   64.2490    9.6450 O.3   126  TYR126     -0.2866
    100  N         67.5820   62.8610   14.9740 N.am  127  TYR127     -0.1976
    101  CA        68.5420   62.7140   16.0590 C.3   127  TYR127      0.1639
    102  C         68.2750   61.5130   16.9620 C.2   127  TYR127      0.2290
    103  O         68.8700   61.3950   18.0360 O.2   127  TYR127     -0.2864
    104  CB        68.5800   63.9850   16.8930 C.3   127  TYR127      0.0560
    105  CG        69.0710   65.2050   16.1450 C.ar  127  TYR127     -0.0198
    106  CD1       70.4360   65.4100   15.9250 C.ar  127  TYR127     -0.0009
    107  CD2       68.1710   66.1690   15.6660 C.ar  127  TYR127     -0.0009
    108  CE1       70.8940   66.5340   15.2460 C.ar  127  TYR127      0.0417
    109  CE2       68.6180   67.2920   14.9890 C.ar  127  TYR127      0.0417
    110  CZ        69.9830   67.4720   14.7860 C.ar  127  TYR127      0.1957
    111  OH        70.4360   68.5830   14.1240 O.3   127  TYR127     -0.2866
@<TRIPOS>BOND
     1    25    24    2
     2    73    72    2
     3    24    26   am
     4    24    23    1
     5    72    71    1
     6    22    21    2
     7    23    20    1
     8    71    70    1
     9    71    74    1
    10    61    60    2
    11    21    20    1
    12    21    27   am
    13    33    31    1
    14    70    60   am
    15    60    59    1
    16    20    19    1
    17    74    75    1
    18    55    54    2
    19    18    17    2
    20    58    59    1
    21    54    53    1
    22    28    27    1
    23    28    31    1
    24    28    29    1
    25    59    62    1
    26    31    32    1
    27    19    17   am
    28    30    29    2
    29    17    16    1
    30    75    76   ar
    31    75    77   ar
    32    29    35   am
    33    52    53    1
    34    53    56    1
    35    76    78   ar
    36    62    63    1
    37     1     2    1
    38    44    43    2
    39    32    34    1
    40    38    37    2
    41    16    15    1
    42    35    36    1
    43    77    79   ar
    44    43    42    1
    45     6     5    1
    46    10     9    2
    47    63    65   ar
    48    63    64   ar
    49     4     3    2
    50    65    67   ar
    51    64    66   ar
    52    56    57    1
    53    78    79   ar
    54    37    36    1
    55    37    41   am
    56    36    39    1
    57    67    68   ar
    58    66    68   ar
    59    15     9   am
    60     9     8    1
    61     2     3    1
    62     2     5    1
    63     3     7   am
    64    68    69    1
    65    41    42    1
    66    42    45    1
    67     7     8    1
    68     8    11    1
    69    39    40    1
    70    45    46    1
    71    11    12    1
    72    13    12    1
    73    96    94   ar
    74    96    98   ar
    75    99    98    1
    76    12    14    1
    77    46    47    1
    78    94    93   ar
    79    98    97   ar
    80    48    47    1
    81    48    49    2
    82    50    49    1
    83    49    51    1
    84    93    92    1
    85    93    95   ar
    86    97    95   ar
    87    92    89    1
    88    89    88    1
    89    89    90    1
    90    86    85   ar
    91    85    87   ar
    92    85    84    1
    93    91    90    2
    94    90   100   am
    95    81    84    1
    96    81    82    1
    97    81    80    1
    98   111   110    1
    99    82    83    2
   100   110   109   ar
   101   110   108   ar
   102   100   101    1
   103   109   107   ar
   104   108   106   ar
   105   107   105   ar
   106   106   105   ar
   107   101   104    1
   108   101   102    1
   109   105   104    1
   110   102   103    2
