@<TRIPOS>MOLECULE
tmp/3idpB00.pdb
 215 205 0 0 0
SMALL
GASTEIGER

@<TRIPOS>ATOM
      1  N          5.0700   17.4680   23.4830 N.3    15  ILE15      -0.1231
      2  CA         5.6810   16.9890   24.7240 C.3    15  ILE15       0.1692
      3  C          4.6920   16.2270   25.5880 C.2    15  ILE15       0.2592
      4  O          5.0370   15.2160   26.1830 O.2    15  ILE15      -0.2718
      5  CB         6.3270   18.1520   25.5320 C.3    15  ILE15       0.0266
      6  CG1        7.5690   18.6850   24.8100 C.3    15  ILE15       0.0019
      7  CG2        6.6900   17.7190   26.9480 C.3    15  ILE15       0.0020
      8  CD1        8.5430   17.6030   24.3060 C.3    15  ILE15       0.0001
      9  N          3.4620   16.7160   25.6520 N.am   16  GLY16      -0.1957
     10  CA         2.4250   16.0700   26.4470 C.3    16  GLY16       0.1869
     11  C          1.0650   16.6610   26.1650 C.2    16  GLY16       0.2309
     12  O          0.9540   17.7570   25.6110 O.2    16  GLY16      -0.2863
     13  N          1.1580   20.4630   25.4940 N.3    23  VAL23      -0.1245
     14  CA         2.4440   21.1410   25.6120 C.3    23  VAL23       0.1561
     15  C          3.3820   20.7570   24.4850 C.2    23  VAL23       0.2260
     16  O          3.4930   19.5820   24.1280 O.2    23  VAL23      -0.2867
     17  CB         3.1270   20.8650   26.9720 C.3    23  VAL23       0.0252
     18  CG1        4.3950   21.6930   27.1270 C.3    23  VAL23       0.0019
     19  CG2        2.1780   21.1810   28.0970 C.3    23  VAL23       0.0019
     20  N          8.9910   26.3040   26.1340 N.3    33  ALA33      -0.1231
     21  CA         7.8560   25.4100   26.2450 C.3    33  ALA33       0.1694
     22  C          6.6320   26.2370   25.9270 C.2    33  ALA33       0.2592
     23  O          6.5470   27.4000   26.3360 O.2    33  ALA33      -0.2718
     24  CB         7.7610   24.8370   27.6380 C.3    33  ALA33       0.0304
     25  N          5.7010   25.6500   25.1820 N.am   34  VAL34      -0.1966
     26  CA         4.4500   26.3130   24.8460 C.3    34  VAL34       0.1727
     27  C          3.2760   25.4630   25.3130 C.2    34  VAL34       0.2616
     28  O          3.1380   24.3160   24.8990 O.2    34  VAL34      -0.2715
     29  CB         4.3090   26.5370   23.3210 C.3    34  VAL34       0.0290
     30  CG1        3.1710   27.5100   23.0380 C.3    34  VAL34       0.0023
     31  CG2        5.6070   27.0410   22.7110 C.3    34  VAL34       0.0023
     32  N          2.4360   26.0160   26.1760 N.am   35  LYS35      -0.1977
     33  CA         1.2200   25.3230   26.5630 C.3    35  LYS35       0.1596
     34  C          0.0680   25.9530   25.8250 C.2    35  LYS35       0.2287
     35  O         -0.1260   27.1620   25.8830 O.2    35  LYS35      -0.2864
     36  CB         0.9850   25.3710   28.0770 C.3    35  LYS35       0.0298
     37  CG        -0.2290   24.5690   28.5280 C.3    35  LYS35       0.0038
     38  CD        -0.2190   24.2710   30.0090 C.3    35  LYS35       0.0206
     39  CE        -0.7270   25.4490   30.8200 C.3    35  LYS35       0.1093
     40  NZ        -0.7780   25.1070   32.2560 N.3    35  LYS35      -0.1314
     41  N         -4.0510   31.5220   35.2760 N.3    53  GLU53      -0.1245
     42  CA        -2.6680   31.0590   35.2760 C.3    53  GLU53       0.1567
     43  C         -1.7050   32.1770   34.8800 C.2    53  GLU53       0.2260
     44  O         -0.7790   32.4820   35.6340 O.2    53  GLU53      -0.2867
     45  CB        -2.4920   29.8280   34.3920 C.3    53  GLU53       0.0388
     46  CG        -1.0960   29.2170   34.4770 C.3    53  GLU53       0.1160
     47  CD        -1.0180   27.8340   33.8760 C.2    53  GLU53       0.3649
     48  OE1       -2.0540   27.3310   33.3730 O.co2  53  GLU53      -0.2457
     49  OE2        0.0820   27.2400   33.9120 O.co2  53  GLU53      -0.2457
     50  N         -1.3250   34.6080   37.5780 N.3    56  VAL56      -0.1231
     51  CA        -0.4260   34.1470   38.6190 C.3    56  VAL56       0.1692
     52  C          1.0470   34.1770   38.1620 C.2    56  VAL56       0.2591
     53  O          1.9290   34.5860   38.9160 O.2    56  VAL56      -0.2718
     54  CB        -0.8400   32.7290   39.1070 C.3    56  VAL56       0.0266
     55  CG1        0.2500   32.0950   39.9610 C.3    56  VAL56       0.0020
     56  CG2       -2.1380   32.7970   39.8870 C.3    56  VAL56       0.0020
     57  N          1.3110   33.7480   36.9340 N.am   57  LEU57      -0.1980
     58  CA         2.6880   33.6420   36.4540 C.3    57  LEU57       0.1596
     59  C          3.3820   34.9840   36.2910 C.2    57  LEU57       0.2287
     60  O          4.5720   35.1110   36.5760 O.2    57  LEU57      -0.2864
     61  CB         2.7370   32.8710   35.1480 C.3    57  LEU57       0.0297
     62  CG         2.5550   31.3730   35.3580 C.3    57  LEU57       0.0022
     63  CD1        2.2760   30.6960   34.0460 C.3    57  LEU57       0.0001
     64  CD2        3.8120   30.8230   35.9900 C.3    57  LEU57       0.0001
     65  N          5.5370   36.1490   39.1770 N.3    60  THR60      -0.1218
     66  CA         6.6770   35.3300   39.6220 C.3    60  THR60       0.1862
     67  C          7.9960   35.6370   38.8790 C.2    60  THR60       0.2287
     68  O          8.0650   35.5440   37.6550 O.2    60  THR60      -0.2866
     69  CB         6.3560   33.8070   39.5170 C.3    60  THR60       0.1770
     70  OG1        6.1880   33.4340   38.1450 O.3    60  THR60      -0.2211
     71  CG2        5.0770   33.4720   40.2770 C.3    60  THR60       0.0375
     72  N         11.2830   29.0980   40.4190 N.3    65  ILE65      -0.1231
     73  CA         9.9640   29.0040   39.8090 C.3    65  ILE65       0.1692
     74  C         10.1650   29.0350   38.3050 C.2    65  ILE65       0.2591
     75  O         10.8310   29.9300   37.7900 O.2    65  ILE65      -0.2718
     76  CB         9.0420   30.1760   40.2430 C.3    65  ILE65       0.0266
     77  CG1        8.8930   30.2370   41.7740 C.3    65  ILE65       0.0019
     78  CG2        7.6890   30.1000   39.5450 C.3    65  ILE65       0.0020
     79  CD1        8.3580   28.9610   42.4440 C.3    65  ILE65       0.0001
     80  N          9.5990   28.0540   37.6060 N.am   66  LEU66      -0.1980
     81  CA         9.7030   27.9970   36.1600 C.3    66  LEU66       0.1596
     82  C          9.4430   29.3730   35.5520 C.2    66  LEU66       0.2287
     83  O          8.4390   30.0070   35.8570 O.2    66  LEU66      -0.2864
     84  CB         8.7230   26.9750   35.5920 C.3    66  LEU66       0.0297
     85  CG         8.9700   26.6700   34.1170 C.3    66  LEU66       0.0022
     86  CD1       10.3230   25.9870   33.9420 C.3    66  LEU66       0.0001
     87  CD2        7.8610   25.8200   33.5750 C.3    66  LEU66       0.0001
     88  N          0.5300   29.7030   26.5320 N.3    79  ILE79      -0.1245
     89  CA         1.4030   30.1660   27.5970 C.3    79  ILE79       0.1561
     90  C          2.8130   29.6610   27.3370 C.2    79  ILE79       0.2260
     91  O          3.0280   28.4590   27.1750 O.2    79  ILE79      -0.2867
     92  CB         0.9100   29.7020   28.9810 C.3    79  ILE79       0.0252
     93  CG1       -0.4510   30.3140   29.2910 C.3    79  ILE79       0.0019
     94  CG2        1.9120   30.0750   30.0740 C.3    79  ILE79       0.0019
     95  CD1       -1.2830   29.4890   30.2390 C.3    79  ILE79       0.0001
     96  N          6.7990   29.3010   28.4520 N.3    81  THR81      -0.1203
     97  CA         7.7950   29.3370   29.5230 C.3    81  THR81       0.1994
     98  C          9.1500   28.9240   28.9770 C.2    81  THR81       0.2618
     99  O          9.2280   28.3590   27.8920 O.2    81  THR81      -0.2717
    100  CB         7.4410   28.3880   30.7070 C.3    81  THR81       0.1784
    101  OG1        7.5250   27.0240   30.2830 O.3    81  THR81      -0.2211
    102  CG2        6.0640   28.6740   31.2390 C.3    81  THR81       0.0376
    103  N         10.2090   29.1850   29.7390 N.am   82  GLN82      -0.1965
    104  CA        11.5200   28.6380   29.4190 C.3    82  GLN82       0.1733
    105  C         11.3960   27.1320   29.1710 C.2    82  GLN82       0.2616
    106  O         10.4910   26.4680   29.7000 O.2    82  GLN82      -0.2715
    107  CB        12.5240   28.9130   30.5490 C.3    82  GLN82       0.0408
    108  CG        12.3210   28.0450   31.7760 C.3    82  GLN82       0.0908
    109  CD        13.2610   28.3430   32.9260 C.2    82  GLN82       0.2608
    110  OE1       12.8220   28.5210   34.0670 O.2    82  GLN82      -0.2717
    111  NE2       14.5590   28.3670   32.6450 N.am   82  GLN82      -0.0878
    112  N         12.2790   26.6030   28.3350 N.am   83  TRP83      -0.1960
    113  CA        12.3980   25.1710   28.1960 C.3    83  TRP83       0.1771
    114  C         13.4680   24.6670   29.1460 C.2    83  TRP83       0.2619
    115  O         14.6040   25.1450   29.1270 O.2    83  TRP83      -0.2715
    116  CB        12.7580   24.7760   26.7720 C.3    83  TRP83       0.0590
    117  CG        13.0050   23.3200   26.6930 C.ar   83  TRP83       0.0006
    118  CD1       14.2100   22.7000   26.6340 C.ar   83  TRP83       0.0946
    119  CD2       12.0150   22.2840   26.7420 C.ar   83  TRP83       0.0152
    120  NE1       14.0390   21.3380   26.6150 N.ar   83  TRP83      -0.2442
    121  CE2       12.6990   21.0550   26.6880 C.ar   83  TRP83       0.0810
    122  CE3       10.6160   22.2780   26.8210 C.ar   83  TRP83       0.0012
    123  CZ2       12.0320   19.8210   26.6990 C.ar   83  TRP83       0.0191
    124  CZ3        9.9530   21.0540   26.8410 C.ar   83  TRP83       0.0001
    125  CH2       10.6640   19.8430   26.7780 C.ar   83  TRP83       0.0015
    126  N         13.1120   23.6970   29.9780 N.am   84  CYS84      -0.1968
    127  CA        14.0920   23.1170   30.8840 C.3    84  CYS84       0.1712
    128  C         14.5110   21.7270   30.4690 C.2    84  CYS84       0.2296
    129  O         13.6730   20.8680   30.1920 O.2    84  CYS84      -0.2864
    130  CB        13.5660   23.0900   32.3110 C.3    84  CYS84       0.0983
    131  SG        13.6560   24.6830   33.0740 S.3    84  CYS84      -0.0798
    132  N         16.3370   18.1980   31.5780 N.3    86  GLY86      -0.1225
    133  CA        16.4110   17.4000   32.8020 C.3    86  GLY86       0.1811
    134  C         15.1200   16.6540   33.0370 C.2    86  GLY86       0.2280
    135  O         14.3970   16.3540   32.0900 O.2    86  GLY86      -0.2866
    136  N          6.4330   31.8410   46.7070 N.3   119  LEU119     -0.1245
    137  CA         5.0450   31.7700   46.2780 C.3   119  LEU119      0.1561
    138  C          4.0530   32.2270   47.3470 C.2   119  LEU119      0.2260
    139  O          3.0310   32.8450   47.0320 O.2   119  LEU119     -0.2867
    140  CB         4.6990   30.3620   45.8080 C.3   119  LEU119      0.0270
    141  CG         5.1700   30.0130   44.4020 C.3   119  LEU119      0.0019
    142  CD1        4.6670   28.6340   44.0370 C.3   119  LEU119      0.0001
    143  CD2        4.6900   31.0480   43.3770 C.3   119  LEU119      0.0001
    144  N          0.2320   33.1810   46.7980 N.3   124  ILE124     -0.1245
    145  CA        -0.1180   32.1040   45.9050 C.3   124  ILE124      0.1561
    146  C         -0.0270   30.8300   46.7100 C.2   124  ILE124      0.2260
    147  O          0.9790   30.5890   47.3940 O.2   124  ILE124     -0.2867
    148  CB         0.8140   32.0510   44.6870 C.3   124  ILE124      0.0252
    149  CG1        0.6420   33.3210   43.8520 C.3   124  ILE124      0.0019
    150  CG2        0.5270   30.7980   43.8290 C.3   124  ILE124      0.0019
    151  CD1        1.8090   33.6260   42.9460 C.3   124  ILE124      0.0001
    152  N         -0.0010   26.8790   46.0980 N.3   126  HIS126     -0.1241
    153  CA         0.2030   25.9360   45.0070 C.3   126  HIS126      0.1621
    154  C         -1.0050   25.0350   44.8040 C.2   126  HIS126      0.2264
    155  O         -1.5010   24.9180   43.6920 O.2   126  HIS126     -0.2867
    156  CB         1.4570   25.0910   45.2060 C.3   126  HIS126      0.0745
    157  CG         1.9650   24.4830   43.9360 C.ar  126  HIS126      0.0817
    158  ND1        1.3170   23.4510   43.2940 N.ar  126  HIS126     -0.2268
    159  CD2        3.0480   24.7740   43.1780 C.ar  126  HIS126      0.1154
    160  CE1        1.9810   23.1280   42.2000 C.ar  126  HIS126      0.1986
    161  NE2        3.0360   23.9150   42.1060 N.ar  126  HIS126     -0.2212
    162  N         10.7900   20.1890   39.2770 N.3   135  PHE135     -0.1241
    163  CA        11.6370   19.8130   38.1500 C.3   135  PHE135      0.1605
    164  C         13.1070   20.0550   38.4690 C.2   135  PHE135      0.2264
    165  O         13.4570   21.0500   39.1180 O.2   135  PHE135     -0.2867
    166  CB        11.2460   20.6170   36.9110 C.3   135  PHE135      0.0534
    167  CG        11.6610   19.9810   35.6280 C.ar  135  PHE135     -0.0203
    168  CD1       10.8400   19.0440   35.0120 C.ar  135  PHE135     -0.0042
    169  CD2       12.8730   20.3170   35.0290 C.ar  135  PHE135     -0.0042
    170  CE1       11.2190   18.4400   33.8210 C.ar  135  PHE135     -0.0003
    171  CE2       13.2650   19.7260   33.8380 C.ar  135  PHE135     -0.0003
    172  CZ        12.4340   18.7860   33.2270 C.ar  135  PHE135     -0.0000
    173  N          9.8450   25.0100   40.4020 N.3   144  ILE144     -0.1231
    174  CA         8.5180   24.5700   40.8040 C.3   144  ILE144      0.1692
    175  C          7.5320   25.0830   39.7800 C.2   144  ILE144      0.2593
    176  O          7.6130   26.2270   39.3430 O.2   144  ILE144     -0.2718
    177  CB         8.1440   25.1110   42.2100 C.3   144  ILE144      0.0266
    178  CG1        8.9900   24.4300   43.2820 C.3   144  ILE144      0.0019
    179  CG2        6.6630   24.9150   42.5030 C.3   144  ILE144      0.0020
    180  CD1        8.8440   25.0560   44.6690 C.3   144  ILE144      0.0001
    181  N          6.6040   24.2350   39.3900 N.am  145  GLY145     -0.1942
    182  CA         5.5140   24.6770   38.5570 C.3   145  GLY145      0.2014
    183  C          4.3440   23.7640   38.7810 C.2   145  GLY145      0.2639
    184  O          4.3230   22.9980   39.7450 O.2   145  GLY145     -0.2714
    185  N          3.3610   23.8580   37.8950 N.am  146  ASP146     -0.1957
    186  CA         2.2920   22.8720   37.8240 C.3   146  ASP146      0.1840
    187  C          2.3600   22.2240   36.4510 C.2   146  ASP146      0.2622
    188  O          1.8030   22.7330   35.4830 O.2   146  ASP146     -0.2715
    189  CB         0.9270   23.5180   38.0740 C.3   146  ASP146      0.1450
    190  CG        -0.1890   22.4930   38.2330 C.2   146  ASP146      0.3671
    191  OD1       -0.0430   21.3270   37.7860 O.co2 146  ASP146     -0.2456
    192  OD2       -1.2300   22.8580   38.8140 O.co2 146  ASP146     -0.2456
    193  N          3.0680   21.1080   36.3720 N.am  147  PHE147     -0.1960
    194  CA         3.3290   20.4600   35.0970 C.3   147  PHE147      0.1771
    195  C          2.1650   19.5700   34.6630 C.2   147  PHE147      0.2620
    196  O          2.1730   19.0210   33.5600 O.2   147  PHE147     -0.2715
    197  CB         4.6280   19.6590   35.1820 C.3   147  PHE147      0.0574
    198  CG         5.8550   20.5110   35.2450 C.ar  147  PHE147     -0.0200
    199  CD1        6.2610   21.0880   36.4500 C.ar  147  PHE147     -0.0042
    200  CD2        6.6030   20.7580   34.0930 C.ar  147  PHE147     -0.0042
    201  CE1        7.3950   21.8960   36.5150 C.ar  147  PHE147     -0.0003
    202  CE2        7.7440   21.5640   34.1420 C.ar  147  PHE147     -0.0003
    203  CZ         8.1440   22.1320   35.3620 C.ar  147  PHE147     -0.0000
    204  N          1.1710   19.4340   35.5410 N.am  148  GLY148     -0.1940
    205  CA         0.0010   18.6170   35.2730 C.3   148  GLY148      0.2014
    206  C         -0.8140   19.1920   34.1370 C.2   148  GLY148      0.2638
    207  O         -0.9060   20.4100   33.9950 O.2   148  GLY148     -0.2714
    208  N         -1.3960   18.3110   33.3250 N.am  149  LEU149     -0.1977
    209  CA        -2.2260   18.7200   32.1990 C.3   149  LEU149      0.1596
    210  C         -3.6820   18.2890   32.3470 C.2   149  LEU149      0.2287
    211  O         -4.4700   18.4060   31.4070 O.2   149  LEU149     -0.2864
    212  CB        -1.6430   18.1660   30.9050 C.3   149  LEU149      0.0297
    213  CG        -0.4480   18.9280   30.3420 C.3   149  LEU149      0.0022
    214  CD1        0.4100   18.0220   29.4710 C.3   149  LEU149      0.0001
    215  CD2       -0.9490   20.1200   29.5620 C.3   149  LEU149      0.0001
@<TRIPOS>BOND
     1    31    29    1
     2    30    29    1
     3    29    26    1
     4     1     2    1
     5    16    15    2
     6     8     6    1
     7    15    14    1
     8     2     5    1
     9     2     3    1
    10     6     5    1
    11    26    25    1
    12    26    27    1
    13    28    27    2
    14    25    22   am
    15    27    32   am
    16    13    14    1
    17     5     7    1
    18     3     9   am
    19     3     4    2
    20    12    11    2
    21    14    17    1
    22     9    10    1
    23    34    35    2
    24    34    33    1
    25    22    21    1
    26    22    23    2
    27    20    21    1
    28    11    10    1
    29    32    33    1
    30    21    24    1
    31    88    89    1
    32    33    36    1
    33   120   118   ar
    34   120   121   ar
    35   118   117   ar
    36   121   123   ar
    37   121   119   ar
    38   117   119   ar
    39   117   116    1
    40   123   125   ar
    41   119   122   ar
    42   116   113    1
    43   125   124   ar
    44   122   124   ar
    45    17    18    1
    46    17    19    1
    47    91    90    2
    48    90    89    1
    49    89    92    1
    50    99    98    2
    51    36    37    1
    52   113   112    1
    53   113   114    1
    54   112   105   am
    55    96    97    1
    56    37    38    1
    57    98    97    1
    58    98   103   am
    59    92    93    1
    60    92    94    1
    61   115   114    2
    62   114   126   am
    63   105   104    1
    64   105   106    2
    65    93    95    1
    66   104   103    1
    67   104   107    1
    68   214   213    1
    69    97   100    1
    70   215   213    1
    71   126   127    1
    72    38    39    1
    73   129   128    2
    74   101   100    1
    75   213   212    1
    76   128   127    1
    77   107   108    1
    78   100   102    1
    79    39    40    1
    80   127   130    1
    81   212   209    1
    82   211   210    2
    83   132   133    1
    84   108   109    1
    85   135   134    2
    86   209   210    1
    87   209   208    1
    88   130   131    1
    89   111   109   am
    90   133   134    1
    91   109   110    2
    92   172   170   ar
    93   172   171   ar
    94   208   206   am
    95    48    47   ar
    96   196   195    2
    97    87    85    1
    98   170   168   ar
    99   171   169   ar
   100    47    49   ar
   101    47    46    1
   102    86    85    1
   103   207   206    2
   104    63    62    1
   105   200   202   ar
   106   200   198   ar
   107    85    84    1
   108   206   205    1
   109   202   203   ar
   110    45    46    1
   111    45    42    1
   112   195   194    1
   113   195   204   am
   114    43    42    1
   115    43    44    2
   116   168   167   ar
   117   169   167   ar
   118   194   197    1
   119   194   193    1
   120    61    62    1
   121    61    58    1
   122   197   198    1
   123   198   199   ar
   124   205   204    1
   125    42    41    1
   126    62    64    1
   127   203   201   ar
   128   188   187    2
   129    82    83    2
   130    82    81    1
   131    84    81    1
   132   167   166    1
   133    81    80    1
   134    59    58    1
   135    59    60    2
   136   193   187   am
   137   199   201   ar
   138   187   186    1
   139    58    57    1
   140   166   163    1
   141    57    52   am
   142    50    51    1
   143    80    74   am
   144    68    67    2
   145   191   190   ar
   146    75    74    2
   147   186   185    1
   148   186   189    1
   149   185   183   am
   150   189   190    1
   151    70    69    1
   152   163   164    1
   153   163   162    1
   154    52    51    1
   155    52    53    2
   156   190   192   ar
   157    74    73    1
   158   164   165    2
   159   182   183    1
   160   182   181    1
   161    51    54    1
   162   183   184    2
   163    67    66    1
   164    54    56    1
   165    54    55    1
   166    65    66    1
   167   176   175    2
   168   181   175   am
   169    69    66    1
   170    69    71    1
   171    78    76    1
   172   175   174    1
   173    73    76    1
   174    73    72    1
   175    76    77    1
   176   173   174    1
   177   174   177    1
   178    77    79    1
   179   161   160   ar
   180   161   159   ar
   181   160   158   ar
   182   177   179    1
   183   177   178    1
   184   151   149    1
   185   159   157   ar
   186   178   180    1
   187   158   157   ar
   188   143   141    1
   189   155   154    2
   190   150   148    1
   191   149   148    1
   192   157   156    1
   193   142   141    1
   194   141   140    1
   195   148   145    1
   196   154   153    1
   197   153   156    1
   198   153   152    1
   199   140   137    1
   200   145   146    1
   201   145   144    1
   202   137   136    1
   203   137   138    1
   204   146   147    2
   205   139   138    2
