@<TRIPOS>MOLECULE
tmp/3idzB00.pdb
 70 67 0 0 0
SMALL
GASTEIGER

@<TRIPOS>ATOM
      1  N         46.2970   29.3350   48.9380 N.3   100  VAL100     -0.1245
      2  CA        47.6050   29.0150   49.5010 C.3   100  VAL100      0.1561
      3  C         48.2790   30.2450   50.0870 C.2   100  VAL100      0.2260
      4  O         49.3460   30.6520   49.6330 O.2   100  VAL100     -0.2867
      5  CB        48.5460   28.4050   48.4290 C.3   100  VAL100      0.0252
      6  CG1       49.8440   27.9310   49.0780 C.3   100  VAL100      0.0019
      7  CG2       47.8550   27.2480   47.7230 C.3   100  VAL100      0.0019
      8  N         53.0490   16.3920   39.0550 N.3   250  ASP250     -0.1225
      9  CA        52.5920   16.3720   40.4350 C.3   250  ASP250      0.1805
     10  C         52.3170   17.7800   40.9220 C.2   250  ASP250      0.2598
     11  O         52.9700   18.2590   41.8480 O.2   250  ASP250     -0.2718
     12  CB        53.6610   15.6980   41.2990 C.3   250  ASP250      0.1424
     13  CG        53.1810   15.3880   42.6990 C.2   250  ASP250      0.3668
     14  OD1       51.9620   15.5010   42.9710 O.co2 250  ASP250     -0.2456
     15  OD2       54.0400   15.0200   43.5290 O.co2 250  ASP250     -0.2456
     16  N         51.3380   18.4300   40.2920 N.am  251  SER251     -0.1938
     17  CA        50.9670   19.7980   40.6200 C.3   251  SER251      0.2040
     18  C         49.5490   20.1380   40.1360 C.2   251  SER251      0.2485
     19  O         49.3220   20.3280   38.9400 O.2   251  SER251     -0.2729
     20  CB        51.9800   20.7600   39.9690 C.3   251  SER251      0.2129
     21  OG        51.6180   22.1260   40.1410 O.3   251  SER251     -0.2179
     22  N         48.5790   20.2240   41.0580 N.am  252  PRO252     -0.2726
     23  CA        47.2000   20.5520   40.6750 C.3   252  PRO252      0.1402
     24  C         47.1650   21.8360   39.8470 C.2   252  PRO252      0.2269
     25  O         46.5860   21.8780   38.7560 O.2   252  PRO252     -0.2865
     26  CB        46.5000   20.7490   42.0160 C.3   252  PRO252      0.0296
     27  CG        47.2860   19.8540   42.9630 C.3   252  PRO252      0.0237
     28  CD        48.7120   20.0430   42.5160 C.3   252  PRO252      0.0939
     29  N         46.1540   14.8930   44.4570 N.3   293  HIS293     -0.1226
     30  CA        46.1940   14.9540   45.9010 C.3   293  HIS293      0.1752
     31  C         47.4470   14.3640   46.5220 C.2   293  HIS293      0.2596
     32  O         48.1930   13.6200   45.8780 O.2   293  HIS293     -0.2718
     33  CB        44.9330   14.2990   46.4590 C.3   293  HIS293      0.0759
     34  CG        43.6600   14.8960   45.9300 C.ar  293  HIS293      0.0818
     35  ND1       43.2900   16.2030   46.1710 N.ar  293  HIS293     -0.2268
     36  CD2       42.6840   14.3700   45.1500 C.ar  293  HIS293      0.1154
     37  CE1       42.1430   16.4560   45.5630 C.ar  293  HIS293      0.1986
     38  NE2       41.7550   15.3600   44.9350 N.ar  293  HIS293     -0.2212
     39  N         47.6710   14.7360   47.7780 N.am  294  THR294     -0.1953
     40  CA        48.8330   14.3120   48.5530 C.3   294  THR294      0.1897
     41  C         49.1390   12.8140   48.5620 C.2   294  THR294      0.2313
     42  O         50.2760   12.4080   48.3220 O.2   294  THR294     -0.2863
     43  CB        48.7030   14.7790   50.0230 C.3   294  THR294      0.1794
     44  OG1       48.4860   16.1940   50.0550 O.3   294  THR294     -0.2208
     45  CG2       49.9850   14.4670   50.7940 C.3   294  THR294      0.0378
     46  N         56.3680   21.5280   42.2640 N.3   312  GLY312     -0.1210
     47  CA        56.8890   22.7500   42.8370 C.3   312  GLY312      0.1956
     48  C         57.1390   22.6000   44.3290 C.2   312  GLY312      0.2612
     49  O         56.9860   21.5080   44.8820 O.2   312  GLY312     -0.2717
     50  N         57.4970   23.6990   44.9870 N.am  313  SER313     -0.1952
     51  CA        57.6390   24.9740   44.3070 C.3   313  SER313      0.1924
     52  C         58.8710   24.9280   43.4290 C.2   313  SER313      0.2314
     53  O         59.7070   24.0420   43.5820 O.2   313  SER313     -0.2863
     54  CB        57.7290   26.1090   45.3220 C.3   313  SER313      0.2116
     55  OG        58.7460   25.8560   46.2590 O.3   313  SER313     -0.2180
     56  N         56.3990   22.7770   49.2550 N.3   319  GLY319     -0.1210
     57  CA        55.6490   21.9650   48.3110 C.3   319  GLY319      0.1956
     58  C         56.0670   20.5260   48.0720 C.2   319  GLY319      0.2611
     59  O         57.0910   20.0540   48.5740 O.2   319  GLY319     -0.2717
     60  N         55.2510   19.8430   47.2690 N.am  320  ARG320     -0.1979
     61  CA        55.4270   18.4380   46.9130 C.3   320  ARG320      0.1597
     62  C         56.8270   17.9970   46.4700 C.2   320  ARG320      0.2287
     63  O         57.2100   16.8440   46.7150 O.2   320  ARG320     -0.2864
     64  CB        54.3810   18.0520   45.8440 C.3   320  ARG320      0.0334
     65  CG        53.1850   17.3420   46.4480 C.3   320  ARG320      0.0492
     66  CD        51.8040   17.9390   46.1750 C.3   320  ARG320      0.2205
     67  NE        51.2260   17.3980   44.9490 N.pl3 320  ARG320     -0.0865
     68  CZ        49.9210   17.2650   44.6930 C.cat 320  ARG320      0.5346
     69  NH1       48.9960   17.6390   45.5670 N.pl3 320  ARG320      0.1354
     70  NH2       49.5520   16.7150   43.5460 N.pl3 320  ARG320      0.1354
@<TRIPOS>BOND
     1    25    24    2
     2    19    18    2
     3     8     9    1
     4    24    23    1
     5    20    21    1
     6    20    17    1
     7    18    17    1
     8    18    22   am
     9    16    17    1
    10    16    10   am
    11     9    10    1
    12     9    12    1
    13    23    22    1
    14    23    26    1
    15    10    11    2
    16    22    28    1
    17    12    13    1
    18    26    27    1
    19    46    47    1
    20    28    27    1
    21    13    14   ar
    22    13    15   ar
    23    47    48    1
    24    52    53    2
    25    52    51    1
    26    70    68    1
    27    51    50    1
    28    51    54    1
    29    48    49    2
    30    48    50   am
    31    29    30    1
    32    68    67    2
    33    68    69    1
    34    38    36   ar
    35    38    37   ar
    36    67    66    1
    37    36    34   ar
    38    54    55    1
    39    37    35   ar
    40    64    65    1
    41    64    61    1
    42    32    31    2
    43    30    33    1
    44    30    31    1
    45    34    35   ar
    46    34    33    1
    47    66    65    1
    48    62    63    2
    49    62    61    1
    50    31    39   am
    51    61    60    1
    52    60    58   am
    53     7     5    1
    54    39    40    1
    55    58    57    1
    56    58    59    2
    57    57    56    1
    58    42    41    2
    59     5     6    1
    60     5     2    1
    61    40    41    1
    62    40    43    1
    63     1     2    1
    64     2     3    1
    65     4     3    2
    66    43    44    1
    67    43    45    1
