@<TRIPOS>MOLECULE
tmp/3ie1C00.pdb
 205 191 0 0 0
SMALL
GASTEIGER

@<TRIPOS>ATOM
      1  N         40.1800   59.0960   -4.8120 N.3    12  VAL12      -0.1231
      2  CA        40.3480   57.8190   -4.1070 C.3    12  VAL12       0.1692
      3  C         41.1790   56.8460   -4.9060 C.2    12  VAL12       0.2592
      4  O         40.7630   55.7130   -5.1360 O.2    12  VAL12      -0.2718
      5  CB        38.9980   57.1110   -3.8150 C.3    12  VAL12       0.0266
      6  CG1       38.1810   57.9280   -2.8700 C.3    12  VAL12       0.0020
      7  CG2       38.2300   56.8780   -5.1060 C.3    12  VAL12       0.0020
      8  N         42.3550   57.2720   -5.3290 N.am   13  THR13      -0.1953
      9  CA        43.1820   56.3780   -6.1070 C.3    13  THR13       0.1897
     10  C         44.6570   56.7220   -6.0060 C.2    13  THR13       0.2313
     11  O         45.0190   57.8560   -5.7100 O.2    13  THR13      -0.2863
     12  CB        42.7320   56.3980   -7.5790 C.3    13  THR13       0.1794
     13  OG1       41.6700   57.3530   -7.7270 O.3    13  THR13      -0.2208
     14  CG2       42.2300   55.0140   -8.0100 C.3    13  THR13       0.0378
     15  N         48.0670   52.7150   -7.1580 N.3    32  MET32      -0.1245
     16  CA        47.8700   53.1780   -8.5270 C.3    32  MET32       0.1570
     17  C         46.5350   53.8880   -8.6950 C.2    32  MET32       0.2261
     18  O         45.5950   53.6870   -7.9120 O.2    32  MET32      -0.2867
     19  CB        47.9210   52.0110   -9.5110 C.3    32  MET32       0.0387
     20  CG        46.8070   50.9940   -9.3160 C.3    32  MET32       0.0595
     21  SD        46.6340   49.8730  -10.7160 S.3    32  MET32      -0.1393
     22  CE        48.3400   49.4830  -11.0980 C.3    32  MET32       0.0692
     23  N         43.2130   54.5570  -10.8750 N.3    34  GLN34      -0.1231
     24  CA        42.3530   53.7500  -11.7280 C.3    34  GLN34       0.1698
     25  C         41.1430   54.5750  -12.1960 C.2    34  GLN34       0.2592
     26  O         40.8630   55.6560  -11.6640 O.2    34  GLN34      -0.2718
     27  CB        41.9140   52.5030  -10.9490 C.3    34  GLN34       0.0381
     28  CG        43.0940   51.7880  -10.2840 C.3    34  GLN34       0.0905
     29  CD        42.6830   50.7260   -9.2790 C.2    34  GLN34       0.2608
     30  OE1       41.7520   50.9190   -8.4980 O.2    34  GLN34      -0.2717
     31  NE2       43.3980   49.6040   -9.2800 N.am   34  GLN34      -0.0878
     32  N         40.4410   54.0660  -13.2040 N.am   35  GLY35      -0.1957
     33  CA        39.2850   54.7720  -13.7290 C.3    35  GLY35       0.1869
     34  C         39.6740   56.0260  -14.5000 C.2    35  GLY35       0.2309
     35  O         40.6580   56.0420  -15.2470 O.2    35  GLY35      -0.2863
     36  N         43.3990   56.5360  -14.2040 N.3    38  GLU38      -0.1245
     37  CA        44.3050   55.4680  -14.5950 C.3    38  GLU38       0.1567
     38  C         45.5610   55.9310  -15.3300 C.2    38  GLU38       0.2260
     39  O         46.6180   55.3220  -15.1980 O.2    38  GLU38      -0.2867
     40  CB        43.5330   54.4870  -15.4780 C.3    38  GLU38       0.0388
     41  CG        43.7720   53.0100  -15.2100 C.3    38  GLU38       0.1160
     42  CD        45.0790   52.4880  -15.7860 C.2    38  GLU38       0.3649
     43  OE1       45.2280   51.2470  -15.8440 O.co2  38  GLU38      -0.2457
     44  OE2       45.9510   53.2990  -16.1740 O.co2  38  GLU38      -0.2457
     45  N         46.6100   44.9620    1.0770 N.3    60  ALA60      -0.1231
     46  CA        46.7560   44.4780   -0.2980 C.3    60  ALA60       0.1694
     47  C         46.0780   45.2080   -1.4510 C.2    60  ALA60       0.2592
     48  O         46.4180   44.9580   -2.6120 O.2    60  ALA60      -0.2718
     49  CB        46.3870   42.9870   -0.3550 C.3    60  ALA60       0.0304
     50  N         45.1360   46.0980   -1.1560 N.am   61  HIS61      -0.1962
     51  CA        44.4470   46.8160   -2.2200 C.3    61  HIS61       0.1787
     52  C         45.3550   47.4320   -3.2540 C.2    61  HIS61       0.2620
     53  O         46.2690   48.1990   -2.9420 O.2    61  HIS61      -0.2715
     54  CB        43.5340   47.8800   -1.6450 C.3    61  HIS61       0.0785
     55  CG        42.2030   47.3460   -1.2420 C.ar   61  HIS61       0.0821
     56  ND1       41.3020   48.0680   -0.4940 N.ar   61  HIS61      -0.2267
     57  CD2       41.6240   46.1470   -1.4830 C.ar   61  HIS61       0.1154
     58  CE1       40.2220   47.3340   -0.2900 C.ar   61  HIS61       0.1986
     59  NE2       40.3930   46.1640   -0.8790 N.ar   61  HIS61      -0.2212
     60  N         45.0720   47.0820   -4.5030 N.am   62  LEU62      -0.1963
     61  CA        45.8390   47.5460   -5.6460 C.3    62  LEU62       0.1728
     62  C         45.9960   49.0660   -5.7200 C.2    62  LEU62       0.2616
     63  O         46.9950   49.5600   -6.2370 O.2    62  LEU62      -0.2715
     64  CB        45.1900   47.0310   -6.9220 C.3    62  LEU62       0.0311
     65  CG        46.0310   47.2010   -8.1790 C.3    62  LEU62       0.0022
     66  CD1       47.1700   46.1830   -8.1940 C.3    62  LEU62       0.0001
     67  CD2       45.1360   47.0240   -9.3850 C.3    62  LEU62       0.0001
     68  N         45.0260   49.8140   -5.2090 N.am   63  ASP63      -0.1971
     69  CA        45.1360   51.2600   -5.2650 C.3    63  ASP63       0.1709
     70  C         45.9640   51.7870   -4.0960 C.2    63  ASP63       0.2293
     71  O         45.9110   52.9790   -3.7620 O.2    63  ASP63      -0.2864
     72  CB        43.7590   51.8830   -5.2270 C.3    63  ASP63       0.1436
     73  CG        43.1150   51.7270   -3.8980 C.2    63  ASP63       0.3671
     74  OD1       43.0580   50.5770   -3.4220 O.co2  63  ASP63      -0.2456
     75  OD2       42.6780   52.7490   -3.3320 O.co2  63  ASP63      -0.2456
     76  N         47.3010   39.8960   -6.1430 N.3    93  VAL93      -0.1245
     77  CA        46.9140   41.1890   -6.6970 C.3    93  VAL93       0.1561
     78  C         47.8830   41.7410   -7.7520 C.2    93  VAL93       0.2260
     79  O         47.4480   42.3480   -8.7380 O.2    93  VAL93      -0.2867
     80  CB        46.7270   42.2360   -5.5650 C.3    93  VAL93       0.0252
     81  CG1       46.5600   43.6130   -6.1470 C.3    93  VAL93       0.0019
     82  CG2       45.5000   41.8940   -4.7380 C.3    93  VAL93       0.0019
     83  N         48.1260   39.3540  -11.2140 N.3    96  ASP96      -0.1225
     84  CA        46.9430   39.6660  -11.9780 C.3    96  ASP96       0.1805
     85  C         47.0190   41.0280  -12.6400 C.2    96  ASP96       0.2597
     86  O         46.1710   41.3680  -13.4500 O.2    96  ASP96      -0.2718
     87  CB        45.7320   39.5970  -11.0580 C.3    96  ASP96       0.1424
     88  CG        44.4980   40.1950  -11.6770 C.2    96  ASP96       0.3668
     89  OD1       44.4570   41.4310  -11.8310 O.co2  96  ASP96      -0.2456
     90  OD2       43.5690   39.4340  -12.0100 O.co2  96  ASP96      -0.2456
     91  N         48.0290   41.8150  -12.3000 N.am   97  ALA97      -0.1979
     92  CA        48.1730   43.1370  -12.9000 C.3    97  ALA97       0.1597
     93  C         49.0480   43.0430  -14.1350 C.2    97  ALA97       0.2287
     94  O         48.9820   43.8950  -15.0210 O.2    97  ALA97      -0.2864
     95  CB        48.7810   44.1080  -11.9050 C.3    97  ALA97       0.0319
     96  N         45.7840   41.2730  -16.4420 N.3   100  VAL100     -0.1231
     97  CA        44.5660   42.0650  -16.5700 C.3   100  VAL100      0.1692
     98  C         44.8700   43.5630  -16.5210 C.2   100  VAL100      0.2592
     99  O         44.3880   44.2770  -15.6420 O.2   100  VAL100     -0.2718
    100  CB        43.5510   41.7130  -15.4480 C.3   100  VAL100      0.0266
    101  CG1       42.2310   42.4430  -15.6800 C.3   100  VAL100      0.0020
    102  CG2       43.3210   40.2070  -15.4050 C.3   100  VAL100      0.0020
    103  N         45.6740   44.0350  -17.4700 N.am  101  MET101     -0.1965
    104  CA        46.0410   45.4480  -17.5350 C.3   101  MET101      0.1736
    105  C         46.2170   45.9410  -18.9670 C.2   101  MET101      0.2616
    106  O         46.8780   45.2920  -19.7810 O.2   101  MET101     -0.2715
    107  CB        47.3370   45.7040  -16.7580 C.3   101  MET101      0.0427
    108  CG        47.9170   47.0990  -16.9750 C.3   101  MET101      0.0599
    109  SD        49.3760   47.4250  -15.9820 S.3   101  MET101     -0.1393
    110  CE        48.6000   47.9370  -14.4520 C.3   101  MET101      0.0692
    111  N         45.6300   47.0990  -19.2590 N.am  102  ASP102     -0.1971
    112  CA        45.7150   47.7010  -20.5870 C.3   102  ASP102      0.1709
    113  C         47.1000   48.2850  -20.8410 C.2   102  ASP102      0.2293
    114  O         47.9390   47.6520  -21.4800 O.2   102  ASP102     -0.2864
    115  CB        44.6590   48.7970  -20.7290 C.3   102  ASP102      0.1436
    116  CG        44.5540   49.6640  -19.4940 C.2   102  ASP102      0.3671
    117  OD1       44.1430   49.1450  -18.4340 O.co2 102  ASP102     -0.2456
    118  OD2       44.8850   50.8620  -19.5850 O.co2 102  ASP102     -0.2456
    119  N         40.0880   45.7870    7.3600 N.3   141  HIS141     -0.1241
    120  CA        39.5970   46.2060    6.0610 C.3   141  HIS141      0.1621
    121  C         39.8520   45.0440    5.1210 C.2   141  HIS141      0.2264
    122  O         39.1660   44.8690    4.1160 O.2   141  HIS141     -0.2867
    123  CB        40.3620   47.4460    5.6060 C.3   141  HIS141      0.0745
    124  CG        40.0520   47.8720    4.2090 C.ar  141  HIS141      0.0817
    125  ND1       38.7890   48.2470    3.8080 N.ar  141  HIS141     -0.2268
    126  CD2       40.8460   47.9950    3.1200 C.ar  141  HIS141      0.1154
    127  CE1       38.8180   48.5840    2.5320 C.ar  141  HIS141      0.1986
    128  NE2       40.0540   48.4410    2.0920 N.ar  141  HIS141     -0.2212
    129  N         43.0750   52.5130    5.2060 N.3   162  ASP162     -0.1239
    130  CA        41.6580   52.3120    4.9180 C.3   162  ASP162      0.1674
    131  C         41.0240   51.5250    6.0480 C.2   162  ASP162      0.2266
    132  O         41.3920   50.3790    6.2890 O.2   162  ASP162     -0.2867
    133  CB        41.4480   51.5360    3.6090 C.3   162  ASP162      0.1410
    134  CG        41.7160   52.3720    2.3700 C.2   162  ASP162      0.3668
    135  OD1       41.2500   51.9590    1.2850 O.co2 162  ASP162     -0.2456
    136  OD2       42.3900   53.4250    2.4740 O.co2 162  ASP162     -0.2456
    137  N         41.0570   58.7220    5.7920 N.3   186  GLU186     -0.1245
    138  CA        40.2630   58.5860    4.5780 C.3   186  GLU186      0.1567
    139  C         38.9040   59.2230    4.8390 C.2   186  GLU186      0.2260
    140  O         38.6240   59.6470    5.9590 O.2   186  GLU186     -0.2867
    141  CB        40.0710   57.1150    4.2230 C.3   186  GLU186      0.0388
    142  CG        39.2310   56.3500    5.2410 C.3   186  GLU186      0.1160
    143  CD        38.8290   54.9630    4.7530 C.2   186  GLU186      0.3649
    144  OE1       38.1530   54.2420    5.5200 O.co2 186  GLU186     -0.2457
    145  OE2       39.1840   54.5960    3.6060 O.co2 186  GLU186     -0.2457
    146  N         36.1520   58.2990    2.2390 N.3   188  THR188     -0.1218
    147  CA        35.3420   57.6750    1.1970 C.3   188  THR188      0.1862
    148  C         33.8260   57.8630    1.3570 C.2   188  THR188      0.2287
    149  O         33.1460   58.3190    0.4360 O.2   188  THR188     -0.2866
    150  CB        35.6450   56.1670    1.1100 C.3   188  THR188      0.1770
    151  OG1       37.0520   55.9500    1.2830 O.3   188  THR188     -0.2211
    152  CG2       35.2360   55.6300   -0.2510 C.3   188  THR188      0.0375
    153  N         34.7260   41.0460   -6.0460 N.3   223  PHE223     -0.1241
    154  CA        36.1400   41.2230   -6.3460 C.3   223  PHE223      0.1605
    155  C         36.9030   40.0080   -5.8760 C.2   223  PHE223      0.2264
    156  O         36.5630   39.4100   -4.8570 O.2   223  PHE223     -0.2867
    157  CB        36.7080   42.4480   -5.6420 C.3   223  PHE223      0.0534
    158  CG        36.0570   43.7270   -6.0420 C.ar  223  PHE223     -0.0203
    159  CD1       34.9350   44.1910   -5.3640 C.ar  223  PHE223     -0.0042
    160  CD2       36.5700   44.4740   -7.0960 C.ar  223  PHE223     -0.0042
    161  CE1       34.3320   45.3840   -5.7260 C.ar  223  PHE223     -0.0003
    162  CE2       35.9770   45.6660   -7.4680 C.ar  223  PHE223     -0.0003
    163  CZ        34.8530   46.1250   -6.7800 C.ar  223  PHE223     -0.0000
    164  N         39.0140   39.4480   -4.0400 N.3   225  VAL225     -0.1245
    165  CA        39.7090   39.7300   -2.7880 C.3   225  VAL225      0.1561
    166  C         38.7650   39.5290   -1.5980 C.2   225  VAL225      0.2260
    167  O         38.1830   38.4560   -1.4430 O.2   225  VAL225     -0.2867
    168  CB        40.2750   41.1640   -2.7730 C.3   225  VAL225      0.0252
    169  CG1       41.2430   41.3210   -1.6180 C.3   225  VAL225      0.0019
    170  CG2       40.9730   41.4600   -4.0890 C.3   225  VAL225      0.0019
    171  N         41.2360   34.2260   -9.7400 N.3   253  MET253     -0.1245
    172  CA        41.9270   35.0040   -8.7250 C.3   253  MET253      0.1570
    173  C         41.1720   34.8540   -7.4110 C.2   253  MET253      0.2261
    174  O         41.7500   34.4560   -6.4000 O.2   253  MET253     -0.2867
    175  CB        42.0140   36.4800   -9.1370 C.3   253  MET253      0.0387
    176  CG        42.9350   37.3140   -8.2460 C.3   253  MET253      0.0595
    177  SD        43.4200   38.9210   -8.9320 S.3   253  MET253     -0.1393
    178  CE        42.2640   40.0350   -8.1190 C.3   253  MET253      0.0692
    179  N         32.3090   45.9710   -9.9130 N.3   315  MET315     -0.1245
    180  CA        31.7750   47.2900  -10.2220 C.3   315  MET315      0.1570
    181  C         31.1390   47.1350  -11.5920 C.2   315  MET315      0.2261
    182  O         30.7180   48.1090  -12.2100 O.2   315  MET315     -0.2867
    183  CB        32.8990   48.3200  -10.3140 C.3   315  MET315      0.0387
    184  CG        34.0460   48.0760   -9.3620 C.3   315  MET315      0.0595
    185  SD        35.6360   48.1140  -10.2130 S.3   315  MET315     -0.1393
    186  CE        35.8010   46.4070  -10.7200 C.3   315  MET315      0.0692
    187  N         32.7810   46.8440    1.9950 N.3   379  GLY379     -0.1210
    188  CA        34.0340   46.5270    2.6510 C.3   379  GLY379      0.1956
    189  C         34.6960   47.7890    3.1720 C.2   379  GLY379      0.2611
    190  O         35.8180   47.7560    3.6770 O.2   379  GLY379     -0.2717
    191  N         33.9930   48.9080    3.0430 N.am  380  ALA380     -0.1979
    192  CA        34.5010   50.1910    3.5030 C.3   380  ALA380      0.1597
    193  C         33.9710   50.4780    4.8990 C.2   380  ALA380      0.2287
    194  O         33.5180   49.5740    5.5930 O.2   380  ALA380     -0.2864
    195  CB        34.0750   51.2920    2.5440 C.3   380  ALA380      0.0319
    196  N         41.6080   60.0690    0.3650 N.3   400  HIS400     -0.1241
    197  CA        40.9500   58.8460   -0.1020 C.3   400  HIS400      0.1621
    198  C         39.4120   58.9450   -0.1550 C.2   400  HIS400      0.2264
    199  O         38.7020   58.1380    0.4540 O.2   400  HIS400     -0.2867
    200  CB        41.3730   57.6620    0.7830 C.3   400  HIS400      0.0745
    201  CG        41.2670   56.3290    0.1080 C.ar  400  HIS400      0.0817
    202  ND1       40.0720   55.6560   -0.0350 N.ar  400  HIS400     -0.2268
    203  CD2       42.2110   55.5430   -0.4640 C.ar  400  HIS400      0.1154
    204  CE1       40.2870   54.5130   -0.6610 C.ar  400  HIS400      0.1986
    205  NE2       41.5760   54.4210   -0.9330 N.ar  400  HIS400     -0.2212
@<TRIPOS>BOND
     1   114   113    2
     2   113   112    1
     3   115   112    1
     4   115   116    1
     5   112   111    1
     6   106   105    2
     7   118   116   ar
     8   116   117   ar
     9   111   105   am
    10   105   104    1
    11   104   103    1
    12   104   107    1
    13   103    98   am
    14   108   107    1
    15   108   109    1
    16    97    98    1
    17    97    96    1
    18    97   100    1
    19    98    99    2
    20    44    42   ar
    21   109   110    1
    22    43    42   ar
    23    42    41    1
    24   101   100    1
    25    40    41    1
    26    40    37    1
    27   100   102    1
    28    38    39    2
    29    38    37    1
    30    35    34    2
    31    94    93    2
    32    37    36    1
    33    34    33    1
    34    93    92    1
    35    33    32    1
    36    86    85    2
    37    32    25   am
    38    92    91    1
    39    92    95    1
    40    85    91   am
    41    85    84    1
    42   182   181    2
    43    25    24    1
    44    25    26    2
    45    90    88   ar
    46    84    83    1
    47    84    87    1
    48    89    88   ar
    49    24    27    1
    50    24    23    1
    51    88    87    1
    52   181   180    1
    53    22    21    1
    54    27    28    1
    55   186   185    1
    56    21    20    1
    57   183   180    1
    58   183   184    1
    59    28    29    1
    60   180   179    1
    61   185   184    1
    62   171   172    1
    63    19    20    1
    64    19    16    1
    65    67    65    1
    66    31    29   am
    67    29    30    2
    68   175   172    1
    69   175   176    1
    70   177   176    1
    71   177   178    1
    72    79    78    2
    73   172   173    1
    74    17    16    1
    75    17    18    2
    76    16    15    1
    77    66    65    1
    78    65    64    1
    79    14    12    1
    80    78    77    1
    81    13    12    1
    82    12     9    1
    83   162   160   ar
    84   162   163   ar
    85   173   174    2
    86   160   158   ar
    87    64    61    1
    88   163   161   ar
    89    77    76    1
    90    77    80    1
    91   154   153    1
    92   154   155    1
    93   154   157    1
    94    63    62    2
    95    81    80    1
    96     9    10    1
    97     9     8    1
    98   158   157    1
    99   158   159   ar
   100    10    11    2
   101   155   156    2
   102   161   159   ar
   103    62    61    1
   104    62    68   am
   105    61    60    1
   106    80    82    1
   107     8     3   am
   108    69    72    1
   109    69    68    1
   110    69    70    1
   111    72    73    1
   112     4     3    2
   113     7     5    1
   114     3     2    1
   115     1     2    1
   116    60    52   am
   117     2     5    1
   118    70    71    2
   119   170   168    1
   120   164   165    1
   121    73    74   ar
   122    73    75   ar
   123     5     6    1
   124    52    53    2
   125    52    51    1
   126   165   168    1
   127   165   166    1
   128   168   169    1
   129    48    47    2
   130    51    54    1
   131    51    50    1
   132    54    55    1
   133   166   167    2
   134    57    55   ar
   135    57    59   ar
   136    47    50   am
   137    47    46    1
   138    55    56   ar
   139   205   204   ar
   140   205   203   ar
   141    59    58   ar
   142   204   202   ar
   143    56    58   ar
   144   203   201   ar
   145    49    46    1
   146    46    45    1
   147   152   150    1
   148   198   197    1
   149   198   199    2
   150   197   196    1
   151   197   200    1
   152   202   201   ar
   153   201   200    1
   154   149   148    2
   155   150   147    1
   156   150   151    1
   157   147   148    1
   158   147   146    1
   159   135   134   ar
   160   187   188    1
   161   128   127   ar
   162   128   126   ar
   163   134   136   ar
   164   134   133    1
   165   127   125   ar
   166   195   192    1
   167   188   189    1
   168   191   189   am
   169   191   192    1
   170   126   124   ar
   171   189   190    2
   172   192   193    1
   173   145   143   ar
   174   133   130    1
   175   125   124   ar
   176   122   121    2
   177   124   123    1
   178   141   138    1
   179   141   142    1
   180   138   139    1
   181   138   137    1
   182   143   142    1
   183   143   144   ar
   184   139   140    2
   185   193   194    2
   186   130   129    1
   187   130   131    1
   188   121   120    1
   189   123   120    1
   190   131   132    2
   191   120   119    1
