@<TRIPOS>MOLECULE
tmp/3ie2A00.pdb
 109 104 0 0 0
SMALL
GASTEIGER

@<TRIPOS>ATOM
      1  N         30.9300    5.4540   23.8740 N.3    96  ASP96      -0.1239
      2  CA        31.8840    4.4760   24.3700 C.3    96  ASP96       0.1674
      3  C         31.6320    3.1530   23.6630 C.2    96  ASP96       0.2266
      4  O         32.5710    2.4890   23.2330 O.2    96  ASP96      -0.2867
      5  CB        31.7530    4.3240   25.8940 C.3    96  ASP96       0.1410
      6  CG        32.5100    3.1160   26.4340 C.2    96  ASP96       0.3668
      7  OD1       31.8760    2.0540   26.6220 O.co2  96  ASP96      -0.2456
      8  OD2       33.7350    3.2210   26.6610 O.co2  96  ASP96      -0.2456
      9  N         33.1810    3.2320   20.2570 N.3    99  LYS99      -0.1231
     10  CA        34.6240    3.1140   20.4030 C.3    99  LYS99       0.1693
     11  C         35.0910    1.7220   20.7910 C.2    99  LYS99       0.2591
     12  O         35.9660    1.1500   20.1500 O.2    99  LYS99      -0.2718
     13  CB        35.1180    4.1350   21.4300 C.3    99  LYS99       0.0285
     14  CG        36.6220    4.1500   21.5920 C.3    99  LYS99       0.0035
     15  CD        37.1190    5.5140   22.0510 C.3    99  LYS99       0.0206
     16  CE        38.6380    5.5780   22.0250 C.3    99  LYS99       0.1093
     17  NZ        39.1350    6.9630   22.2340 N.3    99  LYS99      -0.1314
     18  N         34.5020    1.1770   21.8440 N.am  100  VAL100     -0.1980
     19  CA        34.8750   -0.1470   22.3170 C.3   100  VAL100      0.1595
     20  C         34.0030   -1.2070   21.6770 C.2   100  VAL100      0.2287
     21  O         33.3230   -1.9480   22.3760 O.2   100  VAL100     -0.2864
     22  CB        34.7030   -0.2630   23.8440 C.3   100  VAL100      0.0276
     23  CG1       35.3550   -1.5440   24.3420 C.3   100  VAL100      0.0022
     24  CG2       35.2860    0.9650   24.5320 C.3   100  VAL100      0.0022
     25  N         40.4310    4.1060   38.2690 N.3   250  ASP250     -0.1225
     26  CA        41.1490    3.7800   37.0470 C.3   250  ASP250      0.1805
     27  C         40.2240    3.4310   35.8670 C.2   250  ASP250      0.2598
     28  O         40.2640    2.3270   35.3320 O.2   250  ASP250     -0.2718
     29  CB        42.1150    2.6280   37.3470 C.3   250  ASP250      0.1424
     30  CG        43.2680    2.5620   36.3690 C.2   250  ASP250      0.3668
     31  OD1       43.4420    3.5370   35.5990 O.co2 250  ASP250     -0.2456
     32  OD2       44.0060    1.5420   36.3800 O.co2 250  ASP250     -0.2456
     33  N         39.4060    4.3960   35.4590 N.am  251  SER251     -0.1938
     34  CA        38.4660    4.2330   34.3610 C.3   251  SER251      0.2040
     35  C         38.0500    5.6120   33.8470 C.2   251  SER251      0.2485
     36  O         37.2400    6.3100   34.4760 O.2   251  SER251     -0.2729
     37  CB        37.2200    3.4650   34.8430 C.3   251  SER251      0.2129
     38  OG        36.1930    3.3900   33.8520 O.3   251  SER251     -0.2179
     39  N         38.6120    6.0320   32.7030 N.am  252  PRO252     -0.2715
     40  CA        38.2700    7.3360   32.1250 C.3   252  PRO252      0.1536
     41  C         36.7590    7.4120   31.9960 C.2   252  PRO252      0.2598
     42  O         36.1310    8.3890   32.3970 O.2   252  PRO252     -0.2715
     43  CB        38.9630    7.3060   30.7730 C.3   252  PRO252      0.0310
     44  CG        40.1850    6.5030   31.0430 C.3   252  PRO252      0.0237
     45  CD        39.6690    5.3690   31.9240 C.3   252  PRO252      0.0939
     46  N         36.1710    6.3630   31.4420 N.am  253  MET253     -0.1978
     47  CA        34.7280    6.3230   31.3020 C.3   253  MET253      0.1605
     48  C         34.0580    6.6940   32.6390 C.2   253  MET253      0.2287
     49  O         33.2590    7.6430   32.7000 O.2   253  MET253     -0.2864
     50  CB        34.2810    4.9270   30.8730 C.3   253  MET253      0.0413
     51  CG        33.3960    4.9130   29.6460 C.3   253  MET253      0.0598
     52  SD        31.9000    3.9190   29.8520 S.3   253  MET253     -0.1393
     53  CE        30.6260    5.1790   29.5390 C.3   253  MET253      0.0692
     54  N         34.1250   10.4510   33.3660 N.3   256  ARG256     -0.1245
     55  CA        33.1940   11.2230   32.5450 C.3   256  ARG256      0.1563
     56  C         31.8190   11.1600   33.1860 C.2   256  ARG256      0.2260
     57  O         31.1170   12.1680   33.2810 O.2   256  ARG256     -0.2867
     58  CB        33.1130   10.6390   31.1340 C.3   256  ARG256      0.0307
     59  CG        34.2750   10.9990   30.2230 C.3   256  ARG256      0.0489
     60  CD        34.0350   10.4740   28.8080 C.3   256  ARG256      0.2205
     61  NE        34.4040    9.0660   28.6400 N.pl3 256  ARG256     -0.0865
     62  CZ        35.6580    8.6260   28.5110 C.cat 256  ARG256      0.5346
     63  NH1       35.9060    7.3300   28.3620 N.pl3 256  ARG256      0.1354
     64  NH2       36.6720    9.4860   28.5280 N.pl3 256  ARG256      0.1354
     65  N         43.7870    8.7360   33.9170 N.3   292  GLU292     -0.1231
     66  CA        43.4200    8.8850   32.5240 C.3   292  GLU292      0.1699
     67  C         44.0940    7.9290   31.5710 C.2   292  GLU292      0.2592
     68  O         43.4140    7.3010   30.7670 O.2   292  GLU292     -0.2718
     69  CB        43.6800   10.3200   32.0660 C.3   292  GLU292      0.0402
     70  CG        42.9320   11.3510   32.8870 C.3   292  GLU292      0.1161
     71  CD        41.4090   11.2130   32.8070 C.2   292  GLU292      0.3649
     72  OE1       40.7160   11.7950   33.6780 O.co2 292  GLU292     -0.2457
     73  OE2       40.8990   10.5420   31.8800 O.co2 292  GLU292     -0.2457
     74  N         45.4170    7.8010   31.6680 N.am  293  HIS293     -0.1962
     75  CA        46.1650    6.9540   30.7440 C.3   293  HIS293      0.1787
     76  C         46.8420    5.6890   31.2900 C.2   293  HIS293      0.2620
     77  O         47.1150    5.5430   32.4890 O.2   293  HIS293     -0.2715
     78  CB        47.1820    7.8210   30.0080 C.3   293  HIS293      0.0785
     79  CG        46.6000    9.0940   29.4750 C.ar  293  HIS293      0.0821
     80  ND1       47.3690   10.1930   29.1570 N.ar  293  HIS293     -0.2267
     81  CD2       45.3160    9.4560   29.2410 C.ar  293  HIS293      0.1154
     82  CE1       46.5840   11.1790   28.7580 C.ar  293  HIS293      0.1986
     83  NE2       45.3330   10.7580   28.8010 N.ar  293  HIS293     -0.2212
     84  N         47.1110    4.7760   30.3630 N.am  294  THR294     -0.1951
     85  CA        47.7120    3.4880   30.6540 C.3   294  THR294      0.1897
     86  C         49.0070    3.5470   31.4470 C.2   294  THR294      0.2313
     87  O         49.2400    2.7230   32.3250 O.2   294  THR294     -0.2863
     88  CB        47.9500    2.7130   29.3330 C.3   294  THR294      0.1794
     89  OG1       46.6850    2.3970   28.7370 O.3   294  THR294     -0.2208
     90  CG2       48.7100    1.4210   29.5830 C.3   294  THR294      0.0378
     91  N         37.3330   -1.2530   35.3890 N.3   312  GLY312     -0.1225
     92  CA        36.4790   -2.1880   34.6850 C.3   312  GLY312      0.1811
     93  C         37.4120   -3.0310   33.8540 C.2   312  GLY312      0.2280
     94  O         38.6150   -2.7960   33.9090 O.2   312  GLY312     -0.2866
     95  N         40.0290   -5.0720   30.2620 N.3   319  GLY319     -0.1210
     96  CA        40.2220   -3.7970   30.9220 C.3   319  GLY319      0.1956
     97  C         41.4450   -3.7140   31.8200 C.2   319  GLY319      0.2611
     98  O         42.1990   -4.6770   31.9800 O.2   319  GLY319     -0.2717
     99  N         41.6330   -2.5410   32.4140 N.am  320  ARG320     -0.1979
    100  CA        42.7660   -2.2980   33.2850 C.3   320  ARG320      0.1597
    101  C         42.7300   -3.1950   34.5120 C.2   320  ARG320      0.2287
    102  O         43.7730   -3.6420   34.9800 O.2   320  ARG320     -0.2864
    103  CB        42.8110   -0.8130   33.6910 C.3   320  ARG320      0.0334
    104  CG        43.7630    0.0170   32.8300 C.3   320  ARG320      0.0492
    105  CD        43.1050    1.1460   32.0290 C.3   320  ARG320      0.2205
    106  NE        42.9520    2.3820   32.7890 N.pl3 320  ARG320     -0.0865
    107  CZ        43.0570    3.6110   32.2750 C.cat 320  ARG320      0.5346
    108  NH1       43.3210    3.7980   30.9910 N.pl3 320  ARG320      0.1354
    109  NH2       42.8930    4.6680   33.0550 N.pl3 320  ARG320      0.1354
@<TRIPOS>BOND
     1    12    11    2
     2     9    10    1
     3    10    11    1
     4    10    13    1
     5    11    18   am
     6    13    14    1
     7    14    15    1
     8    20    19    1
     9    20    21    2
    10    18    19    1
    11    16    15    1
    12    16    17    1
    13    19    22    1
    14     4     3    2
    15     3     2    1
    16    22    23    1
    17    22    24    1
    18     1     2    1
    19     2     5    1
    20     5     6    1
    21     6     7   ar
    22     6     8   ar
    23    63    62    1
    24    62    64    1
    25    62    61    2
    26    61    60    1
    27    89    88    1
    28    82    83   ar
    29    82    80   ar
    30    83    81   ar
    31    60    59    1
    32    80    79   ar
    33    81    79   ar
    34    88    90    1
    35    88    85    1
    36    79    78    1
    37    53    52    1
    38    51    52    1
    39    51    50    1
    40    78    75    1
    41    59    58    1
    42    95    96    1
    43    84    85    1
    44    84    76   am
    45    85    86    1
    46    75    76    1
    47    75    74    1
    48    68    67    2
    49    43    44    1
    50    43    40    1
    51    50    47    1
    52    96    97    1
    53   108   107    1
    54    44    45    1
    55    58    55    1
    56    76    77    2
    57    47    46    1
    58    47    48    1
    59    46    41   am
    60    86    87    2
    61    67    74   am
    62    67    66    1
    63    97    98    2
    64    97    99   am
    65    73    71   ar
    66    45    39    1
    67    41    40    1
    68    41    42    2
    69   105   106    1
    70   105   104    1
    71    69    66    1
    72    69    70    1
    73    40    39    1
    74   107   106    2
    75   107   109    1
    76    99   100    1
    77    66    65    1
    78    55    56    1
    79    55    54    1
    80    48    49    2
    81    39    35   am
    82    71    70    1
    83    71    72   ar
    84   104   103    1
    85    56    57    2
    86   100   103    1
    87   100   101    1
    88    35    34    1
    89    35    36    2
    90    38    37    1
    91    93    94    2
    92    93    92    1
    93    34    37    1
    94    34    33    1
    95   101   102    2
    96    92    91    1
    97    28    27    2
    98    33    27   am
    99    31    30   ar
   100    27    26    1
   101    30    32   ar
   102    30    29    1
   103    26    29    1
   104    26    25    1
