@<TRIPOS>MOLECULE
tmp/3ie3B01.pdb
 124 119 0 0 0
SMALL
GASTEIGER

@<TRIPOS>ATOM
      1  N         20.0750   21.8220   -0.0930 N.3     6  TYR6       -0.1227
      2  CA        18.7700   21.8660    0.5790 C.3     6  TYR6        0.1736
      3  C         17.7000   22.6020   -0.2230 C.2     6  TYR6        0.2595
      4  O         18.0020   23.3090   -1.1880 O.2     6  TYR6       -0.2718
      5  CB        18.9290   22.5320    1.9520 C.3     6  TYR6        0.0548
      6  CG        17.8600   22.1960    2.9770 C.ar    6  TYR6       -0.0200
      7  CD1       17.5530   20.8670    3.2960 C.ar    6  TYR6       -0.0009
      8  CD2       17.1940   23.2080    3.6660 C.ar    6  TYR6       -0.0009
      9  CE1       16.5860   20.5590    4.2550 C.ar    6  TYR6        0.0417
     10  CE2       16.2270   22.9110    4.6260 C.ar    6  TYR6        0.0417
     11  CZ        15.9270   21.5870    4.9130 C.ar    6  TYR6        0.1957
     12  OH        14.9700   21.2970    5.8610 O.3     6  TYR6       -0.2866
     13  N         16.4480   22.4240    0.1930 N.am    7  PHE7       -0.1976
     14  CA        15.3180   23.1940   -0.3280 C.3     7  PHE7        0.1639
     15  C         15.4300   24.6660    0.1030 C.2     7  PHE7        0.2290
     16  O         16.1270   24.9670    1.0810 O.2     7  PHE7       -0.2864
     17  CB        14.0030   22.5830    0.1670 C.3     7  PHE7        0.0560
     18  CG        13.9000   21.0940   -0.0540 C.ar    7  PHE7       -0.0200
     19  CD1       13.6200   20.5810   -1.3200 C.ar    7  PHE7       -0.0042
     20  CD2       14.0770   20.2080    1.0040 C.ar    7  PHE7       -0.0042
     21  CE1       13.5230   19.2080   -1.5280 C.ar    7  PHE7       -0.0003
     22  CE2       13.9850   18.8290    0.8080 C.ar    7  PHE7       -0.0003
     23  CZ        13.7030   18.3290   -0.4620 C.ar    7  PHE7       -0.0000
     24  N         14.4060   26.6570    2.1440 N.3     9  VAL9       -0.1245
     25  CA        13.7440   26.7680    3.4410 C.3     9  VAL9        0.1561
     26  C         14.7960   26.7490    4.5380 C.2     9  VAL9        0.2260
     27  O         15.9210   26.2730    4.3410 O.2     9  VAL9       -0.2867
     28  CB        12.6980   25.6380    3.7040 C.3     9  VAL9        0.0252
     29  CG1       11.4680   25.8000    2.8160 C.3     9  VAL9        0.0019
     30  CG2       13.3140   24.2580    3.5320 C.3     9  VAL9        0.0019
     31  N         14.2690   25.4090    7.9410 N.3    11  GLY11      -0.1210
     32  CA        14.1010   24.0090    8.3600 C.3    11  GLY11       0.1956
     33  C         15.2730   23.4070    9.1140 C.2    11  GLY11       0.2611
     34  O         15.7510   23.9810   10.0960 O.2    11  GLY11      -0.2717
     35  N         15.7460   22.2590    8.6300 N.am   12  ARG12      -0.1979
     36  CA        16.8080   21.4990    9.2950 C.3    12  ARG12       0.1597
     37  C         18.2340   21.9420    8.9420 C.2    12  ARG12       0.2287
     38  O         19.2040   21.3160    9.3650 O.2    12  ARG12      -0.2864
     39  CB        16.6180   19.9920    9.0620 C.3    12  ARG12       0.0334
     40  CG        15.4610   19.4050    9.8700 C.3    12  ARG12       0.0492
     41  CD        15.3650   17.8890    9.7550 C.3    12  ARG12       0.2205
     42  NE        14.4200   17.3510   10.7350 N.pl3  12  ARG12      -0.0865
     43  CZ        14.7400   16.9980   11.9800 C.cat  12  ARG12       0.5346
     44  NH1       15.9910   17.1130   12.4140 N.pl3  12  ARG12       0.1354
     45  NH2       13.8040   16.5260   12.7950 N.pl3  12  ARG12       0.1354
     46  N         11.5350   22.2400   -5.3920 N.3    34  VAL34      -0.1245
     47  CA        10.6010   21.1200   -5.2510 C.3    34  VAL34       0.1561
     48  C         10.4150   20.4010   -6.5930 C.2    34  VAL34       0.2260
     49  O         10.3190   19.1740   -6.6340 O.2    34  VAL34      -0.2867
     50  CB         9.2360   21.5790   -4.6590 C.3    34  VAL34       0.0252
     51  CG1        8.2300   20.4280   -4.6120 C.3    34  VAL34       0.0019
     52  CG2        9.4300   22.1620   -3.2630 C.3    34  VAL34       0.0019
     53  N         13.4680   18.2900   -7.2060 N.3    37  TRP37      -0.1227
     54  CA        13.3680   17.1620   -6.2800 C.3    37  TRP37       0.1737
     55  C         12.3680   16.1140   -6.7620 C.2    37  TRP37       0.2595
     56  O         12.6380   14.9130   -6.6880 O.2    37  TRP37      -0.2718
     57  CB        12.9850   17.6570   -4.8820 C.3    37  TRP37       0.0564
     58  CG        12.9980   16.5920   -3.8230 C.ar   37  TRP37       0.0003
     59  CD1       11.9120   16.0280   -3.2150 C.ar   37  TRP37       0.0946
     60  CD2       14.1510   15.9710   -3.2410 C.ar   37  TRP37       0.0152
     61  NE1       12.3170   15.0950   -2.2910 N.ar   37  TRP37      -0.2442
     62  CE2       13.6860   15.0390   -2.2860 C.ar   37  TRP37       0.0810
     63  CE3       15.5330   16.1110   -3.4330 C.ar   37  TRP37       0.0012
     64  CZ2       14.5530   14.2510   -1.5230 C.ar   37  TRP37       0.0191
     65  CZ3       16.3950   15.3230   -2.6760 C.ar   37  TRP37       0.0001
     66  CH2       15.8990   14.4070   -1.7290 C.ar   37  TRP37       0.0015
     67  N         11.2230   16.5750   -7.2660 N.am   38  GLN38      -0.1979
     68  CA        10.1660   15.6810   -7.7460 C.3    38  GLN38       0.1601
     69  C         10.5460   14.9250   -9.0230 C.2    38  GLN38       0.2287
     70  O          9.9150   13.9210   -9.3650 O.2    38  GLN38      -0.2864
     71  CB         8.8480   16.4410   -7.9250 C.3    38  GLN38       0.0394
     72  CG         8.1180   16.6980   -6.6100 C.3    38  GLN38       0.0908
     73  CD         6.9550   17.6670   -6.7390 C.2    38  GLN38       0.2608
     74  OE1        6.9050   18.4900   -7.6570 O.2    38  GLN38      -0.2717
     75  NE2        6.0130   17.5780   -5.8070 N.am   38  GLN38      -0.0878
     76  N         16.7700   11.7450    1.3870 N.3    50  GLN50      -0.1245
     77  CA        16.3890   13.0300    1.9730 C.3    50  GLN50       0.1566
     78  C         17.5210   14.0590    2.0010 C.2    50  GLN50       0.2260
     79  O         18.6990   13.7210    1.8300 O.2    50  GLN50      -0.2867
     80  CB        15.8180   12.8290    3.3860 C.3    50  GLN50       0.0367
     81  CG        14.4780   12.0930    3.4130 C.3    50  GLN50       0.0905
     82  CD        13.7520   12.2110    4.7350 C.2    50  GLN50       0.2608
     83  OE1       14.3110   11.9290    5.7950 O.2    50  GLN50      -0.2717
     84  NE2       12.4840   12.6070    4.6770 N.am   50  GLN50      -0.0878
     85  N         12.0070   19.2460   18.0800 N.3    99  ARG99      -0.1245
     86  CA        11.9690   19.5790   16.6480 C.3    99  ARG99       0.1563
     87  C         11.0840   18.6010   15.8720 C.2    99  ARG99       0.2260
     88  O         10.3350   19.0100   14.9850 O.2    99  ARG99      -0.2867
     89  CB        13.3730   19.6180   16.0310 C.3    99  ARG99       0.0307
     90  CG        13.3790   20.1430   14.5880 C.3    99  ARG99       0.0489
     91  CD        14.7840   20.2860   14.0080 C.3    99  ARG99       0.2205
     92  NE        15.5870   21.3010   14.6910 N.pl3  99  ARG99      -0.0865
     93  CZ        15.4970   22.6120   14.4800 C.cat  99  ARG99       0.5346
     94  NH1       14.6220   23.1020   13.6070 N.pl3  99  ARG99       0.1354
     95  NH2       16.2790   23.4420   15.1550 N.pl3  99  ARG99       0.1354
     96  N          7.8630   19.6380   13.8010 N.3   103  ALA103     -0.1245
     97  CA         7.7120   19.2640   12.3930 C.3   103  ALA103      0.1562
     98  C          6.4300   18.4650   12.1470 C.2   103  ALA103      0.2260
     99  O          5.7360   18.6860   11.1520 O.2   103  ALA103     -0.2867
    100  CB         8.9390   18.4930   11.9050 C.3   103  ALA103      0.0290
    101  N          3.6450   19.9140    9.5390 N.3   107  TYR107     -0.1241
    102  CA         3.4230   19.2210    8.2690 C.3   107  TYR107      0.1605
    103  C          2.2400   18.2530    8.2370 C.2   107  TYR107      0.2264
    104  O          1.7730   17.8940    7.1540 O.2   107  TYR107     -0.2867
    105  CB         4.7070   18.5190    7.8070 C.3   107  TYR107      0.0534
    106  CG         5.8200   19.4760    7.4430 C.ar  107  TYR107     -0.0201
    107  CD1        5.8030   20.1670    6.2310 C.ar  107  TYR107     -0.0009
    108  CD2        6.8900   19.6950    8.3120 C.ar  107  TYR107     -0.0009
    109  CE1        6.8200   21.0490    5.8900 C.ar  107  TYR107      0.0417
    110  CE2        7.9130   20.5800    7.9840 C.ar  107  TYR107      0.0417
    111  CZ         7.8730   21.2510    6.7710 C.ar  107  TYR107      0.1957
    112  OH         8.8820   22.1230    6.4350 O.3   107  TYR107     -0.2866
    113  N          9.5020   26.9100    7.1820 N.3   203  ASN203     -0.1225
    114  CA         9.1010   25.5750    6.7530 C.3   203  ASN203      0.1785
    115  C          8.7160   25.5250    5.2730 C.2   203  ASN203      0.2597
    116  O          8.6620   26.5600    4.6110 O.2   203  ASN203     -0.2718
    117  CB         7.9670   25.0700    7.6470 C.3   203  ASN203      0.1169
    118  CG         8.3490   25.0750    9.1170 C.2   203  ASN203      0.2627
    119  OD1        9.3230   24.4350    9.5200 O.2   203  ASN203     -0.2716
    120  ND2        7.5950   25.8140    9.9220 N.am  203  ASN203     -0.0877
    121  N          8.4620   24.3240    4.7600 N.am  204  GLY204     -0.1957
    122  CA         8.2180   24.1230    3.3290 C.3   204  GLY204      0.1869
    123  C          6.7770   24.2370    2.8640 C.2   204  GLY204      0.2309
    124  O          6.5060   24.1690    1.6610 O.2   204  GLY204     -0.2863
@<TRIPOS>BOND
     1    70    69    2
     2    69    68    1
     3    71    68    1
     4    71    72    1
     5    68    67    1
     6    74    73    2
     7    67    55   am
     8    53    54    1
     9    55    56    2
    10    55    54    1
    11    73    72    1
    12    73    75   am
    13    49    48    2
    14    48    47    1
    15    54    57    1
    16    46    47    1
    17    47    50    1
    18    57    58    1
    19    50    51    1
    20    50    52    1
    21    58    60   ar
    22    58    59   ar
    23    63    60   ar
    24    63    65   ar
    25    60    62   ar
    26    59    61   ar
    27    65    66   ar
    28    61    62   ar
    29    62    64   ar
    30    66    64   ar
    31    21    19   ar
    32    21    23   ar
    33    19    18   ar
    34     4     3    2
    35    23    22   ar
    36    14    15    1
    37    14    17    1
    38    14    13    1
    39     3    13   am
    40     3     2    1
    41     1     2    1
    42    18    17    1
    43    18    20   ar
    44    15    16    2
    45     2     5    1
    46    22    20   ar
    47    76    77    1
    48   124   123    2
    49    79    78    2
    50     5     6    1
    51    77    78    1
    52    77    80    1
    53    24    25    1
    54    29    28    1
    55   123   122    1
    56     6     7   ar
    57     6     8   ar
    58     7     9   ar
    59   122   121    1
    60    80    81    1
    61    81    82    1
    62    25    28    1
    63    25    26    1
    64    30    28    1
    65     8    10   ar
    66     9    11   ar
    67    27    26    2
    68   116   115    2
    69    10    11   ar
    70    84    82   am
    71    82    83    2
    72   121   115   am
    73    11    12    1
    74   115   114    1
    75   109   107   ar
    76   109   111   ar
    77   107   106   ar
    78   112   111    1
    79   114   113    1
    80   114   117    1
    81   111   110   ar
    82   104   103    2
    83   106   105    1
    84   106   108   ar
    85   117   118    1
    86   105   102    1
    87    31    32    1
    88   110   108   ar
    89   103   102    1
    90   102   101    1
    91    32    33    1
    92    35    33   am
    93    35    36    1
    94    37    36    1
    95    37    38    2
    96    39    36    1
    97    39    40    1
    98    33    34    2
    99   118   119    2
   100   118   120   am
   101    41    40    1
   102    41    42    1
   103    42    43    2
   104    99    98    2
   105   100    97    1
   106    43    44    1
   107    43    45    1
   108    98    97    1
   109    97    96    1
   110    94    93    1
   111    91    90    1
   112    91    92    1
   113    93    92    2
   114    93    95    1
   115    90    89    1
   116    88    87    2
   117    87    86    1
   118    89    86    1
   119    86    85    1
