@<TRIPOS>MOLECULE
tmp/3ie5B01.pdb
 174 163 0 0 0
SMALL
GASTEIGER

@<TRIPOS>ATOM
      1  N         -5.1270  -13.9820   36.7050 N.3    36  LEU36      -0.1245
      2  CA        -6.4120  -14.0550   36.0120 C.3    36  LEU36       0.1561
      3  C         -7.4760  -14.7540   36.8600 C.2    36  LEU36       0.2260
      4  O         -8.6560  -14.3770   36.8600 O.2    36  LEU36      -0.2867
      5  CB        -6.2740  -14.8720   34.7130 C.3    36  LEU36       0.0270
      6  CG        -5.9610  -14.0610   33.4750 C.3    36  LEU36       0.0019
      7  CD1       -5.5050  -14.9870   32.3540 C.3    36  LEU36       0.0001
      8  CD2       -7.2270  -13.1950   33.1020 C.3    36  LEU36       0.0001
      9  N        -10.8450  -12.9620   38.0660 N.3    40  GLN40      -0.1245
     10  CA       -12.1170  -13.4100   37.4550 C.3    40  GLN40       0.1566
     11  C        -12.4780  -14.8340   37.8610 C.2    40  GLN40       0.2260
     12  O        -12.4960  -15.7530   37.0540 O.2    40  GLN40      -0.2867
     13  CB       -12.0170  -13.2950   35.9430 C.3    40  GLN40       0.0367
     14  CG       -11.7960  -11.8660   35.5480 C.3    40  GLN40       0.0905
     15  CD       -11.7530  -11.6770   34.0690 C.2    40  GLN40       0.2608
     16  OE1      -12.2080  -12.5330   33.2990 O.2    40  GLN40      -0.2717
     17  NE2      -11.1990  -10.5450   33.6450 N.am   40  GLN40      -0.0878
     18  N        -15.0010  -16.9000   36.1390 N.3    43  VAL43      -0.1231
     19  CA       -14.6540  -17.4010   34.8270 C.3    43  VAL43       0.1692
     20  C        -13.6230  -18.5350   34.8790 C.2    43  VAL43       0.2592
     21  O        -13.7650  -19.5420   34.1690 O.2    43  VAL43      -0.2718
     22  CB       -14.1340  -16.2610   33.9460 C.3    43  VAL43       0.0266
     23  CG1      -13.6850  -16.7830   32.6140 C.3    43  VAL43       0.0020
     24  CG2      -15.2490  -15.2080   33.7810 C.3    43  VAL43       0.0020
     25  N        -12.5820  -18.3630   35.6870 N.am   44  PHE44      -0.1976
     26  CA       -11.4690  -19.3000   35.7040 C.3    44  PHE44       0.1639
     27  C        -11.3410  -19.9930   37.0390 C.2    44  PHE44       0.2290
     28  O        -11.4780  -19.3470   38.0640 O.2    44  PHE44      -0.2864
     29  CB       -10.1820  -18.5380   35.4760 C.3    44  PHE44       0.0560
     30  CG       -10.1670  -17.8430   34.1550 C.ar   44  PHE44      -0.0200
     31  CD1      -10.1270  -18.5930   32.9740 C.ar   44  PHE44      -0.0042
     32  CD2      -10.2620  -16.4740   34.0950 C.ar   44  PHE44      -0.0042
     33  CE1      -10.1270  -17.9480   31.7540 C.ar   44  PHE44      -0.0003
     34  CE2      -10.2870  -15.8130   32.8480 C.ar   44  PHE44      -0.0003
     35  CZ       -10.2060  -16.5590   31.6990 C.ar   44  PHE44      -0.0000
     36  N        -11.1590  -23.0650   32.8250 N.3    64  PHE64      -0.1241
     37  CA       -12.3610  -22.2860   33.0920 C.3    64  PHE64       0.1605
     38  C        -13.1900  -23.0190   34.1310 C.2    64  PHE64       0.2264
     39  O        -13.0290  -24.2300   34.3030 O.2    64  PHE64      -0.2867
     40  CB       -13.2290  -22.1760   31.8320 C.3    64  PHE64       0.0534
     41  CG       -12.7050  -21.2090   30.8040 C.ar   64  PHE64      -0.0203
     42  CD1      -13.3050  -19.9550   30.6510 C.ar   64  PHE64      -0.0042
     43  CD2      -11.6260  -21.5390   29.9970 C.ar   64  PHE64      -0.0042
     44  CE1      -12.8550  -19.0520   29.6820 C.ar   64  PHE64      -0.0003
     45  CE2      -11.1600  -20.6270   29.0310 C.ar   64  PHE64      -0.0003
     46  CZ       -11.7780  -19.3860   28.8760 C.ar   64  PHE64      -0.0000
     47  N        -18.8620  -23.3120   32.5410 N.3    68  HIS68      -0.1241
     48  CA       -18.5200  -22.3610   31.4880 C.3    68  HIS68       0.1621
     49  C        -18.5290  -23.1530   30.2020 C.2    68  HIS68       0.2264
     50  O        -18.1270  -24.3220   30.2070 O.2    68  HIS68      -0.2867
     51  CB       -17.1410  -21.7050   31.7260 C.3    68  HIS68       0.0745
     52  CG       -16.9200  -20.4660   30.9070 C.ar   68  HIS68       0.0817
     53  ND1      -16.6680  -20.5080   29.5530 N.ar   68  HIS68      -0.2268
     54  CD2      -16.9090  -19.1540   31.2500 C.ar   68  HIS68       0.1154
     55  CE1      -16.5240  -19.2770   29.0920 C.ar   68  HIS68       0.1986
     56  NE2      -16.6520  -18.4360   30.1030 N.ar   68  HIS68      -0.2212
     57  N        -16.6200  -22.6940   27.6530 N.3    70  LEU70      -0.1245
     58  CA       -15.2250  -22.9240   27.2680 C.3    70  LEU70       0.1561
     59  C        -14.5410  -23.7810   28.3510 C.2    70  LEU70       0.2260
     60  O        -15.0790  -23.9470   29.4540 O.2    70  LEU70      -0.2867
     61  CB       -14.4890  -21.5850   27.0880 C.3    70  LEU70       0.0270
     62  CG       -15.0040  -20.6730   25.9510 C.3    70  LEU70       0.0019
     63  CD1      -14.3240  -19.3320   25.9950 C.3    70  LEU70       0.0001
     64  CD2      -14.8170  -21.3230   24.5830 C.3    70  LEU70       0.0001
     65  N         -7.1650  -22.9790   28.0780 N.3    73  MET73      -0.1245
     66  CA        -6.2490  -22.2650   27.1990 C.3    73  MET73       0.1570
     67  C         -4.8270  -22.6860   27.5430 C.2    73  MET73       0.2261
     68  O         -4.4720  -22.7740   28.7310 O.2    73  MET73      -0.2867
     69  CB        -6.3410  -20.7510   27.4530 C.3    73  MET73       0.0387
     70  CG        -7.6760  -20.1550   27.1660 C.3    73  MET73       0.0595
     71  SD        -7.5080  -18.3820   27.4130 S.3    73  MET73      -0.1393
     72  CE        -7.4600  -18.2530   29.1800 C.3    73  MET73       0.0692
     73  N         -0.8700  -21.3500   26.9070 N.3    75  HIS75      -0.1241
     74  CA         0.0170  -20.2990   26.4440 C.3    75  HIS75       0.1621
     75  C          1.4410  -20.7680   26.5740 C.2    75  HIS75       0.2264
     76  O          1.7700  -21.4980   27.4980 O.2    75  HIS75      -0.2867
     77  CB        -0.1510  -19.0560   27.3260 C.3    75  HIS75       0.0745
     78  CG        -1.4520  -18.3420   27.1300 C.ar   75  HIS75       0.0817
     79  ND1       -2.5980  -18.6820   27.8160 N.ar   75  HIS75      -0.2268
     80  CD2       -1.7690  -17.2490   26.3780 C.ar   75  HIS75       0.1154
     81  CE1       -3.5780  -17.8650   27.4590 C.ar   75  HIS75       0.1986
     82  NE2       -3.1020  -16.9950   26.5780 N.ar   75  HIS75      -0.2212
     83  N         -0.8430  -17.7500   22.7240 N.3    91  LEU91      -0.1245
     84  CA        -1.9830  -18.6230   22.9740 C.3    91  LEU91       0.1561
     85  C         -2.0810  -19.5960   21.8220 C.2    91  LEU91       0.2260
     86  O         -2.4770  -19.2110   20.7240 O.2    91  LEU91      -0.2867
     87  CB        -3.2610  -17.8040   23.0740 C.3    91  LEU91       0.0270
     88  CG        -4.5960  -18.5700   23.0920 C.3    91  LEU91       0.0019
     89  CD1       -4.7270  -19.5210   24.2340 C.3    91  LEU91       0.0001
     90  CD2       -5.8180  -17.5970   23.1130 C.3    91  LEU91       0.0001
     91  N        -11.1590  -21.4510   23.1470 N.3    96  VAL96      -0.1231
     92  CA       -11.4780  -20.0440   22.9160 C.3    96  VAL96       0.1692
     93  C        -11.0490  -19.6880   21.4830 C.2    96  VAL96       0.2591
     94  O        -11.5380  -18.7070   20.9180 O.2    96  VAL96      -0.2718
     95  CB       -10.7690  -19.1350   23.9550 C.3    96  VAL96       0.0266
     96  CG1       -9.2580  -19.2290   23.7900 C.3    96  VAL96       0.0020
     97  CG2      -11.2580  -17.6750   23.8440 C.3    96  VAL96       0.0020
     98  N        -10.1730  -20.5060   20.8820 N.am   97  LEU97      -0.1980
     99  CA        -9.7090  -20.2500   19.4910 C.3    97  LEU97       0.1596
    100  C        -10.7290  -20.7290   18.4610 C.2    97  LEU97       0.2287
    101  O        -10.6110  -20.4300   17.2540 O.2    97  LEU97      -0.2864
    102  CB        -8.3890  -20.9680   19.1930 C.3    97  LEU97       0.0297
    103  CG        -7.2250  -20.4960   20.0800 C.3    97  LEU97       0.0022
    104  CD1       -5.9780  -21.2360   19.7490 C.3    97  LEU97       0.0001
    105  CD2       -6.9560  -18.9700   19.9690 C.3    97  LEU97       0.0001
    106  N         -9.1120  -19.7230   14.4470 N.3   101  ILE101     -0.1245
    107  CA        -7.8550  -19.0780   14.8640 C.3   101  ILE101      0.1561
    108  C         -6.7910  -20.1010   15.1130 C.2   101  ILE101      0.2260
    109  O         -7.0140  -21.0690   15.8840 O.2   101  ILE101     -0.2867
    110  CB        -8.0330  -18.2200   16.1330 C.3   101  ILE101      0.0252
    111  CG1       -9.1850  -17.2250   15.9290 C.3   101  ILE101      0.0019
    112  CG2       -6.7220  -17.4650   16.4660 C.3   101  ILE101      0.0019
    113  CD1       -9.1340  -16.5300   14.6070 C.3   101  ILE101      0.0001
    114  N         -2.7940  -16.8620   18.8940 N.3   104  VAL104     -0.1245
    115  CA        -2.7340  -15.4100   19.1190 C.3   104  VAL104      0.1561
    116  C         -1.4020  -15.1170   19.7810 C.2   104  VAL104      0.2260
    117  O         -1.0500  -15.7360   20.7910 O.2   104  VAL104     -0.2867
    118  CB        -3.9100  -14.9090   20.0060 C.3   104  VAL104      0.0252
    119  CG1       -3.9020  -13.3460   20.1460 C.3   104  VAL104      0.0019
    120  CG2       -5.2450  -15.3790   19.4510 C.3   104  VAL104      0.0019
    121  N          1.2020  -12.4840   21.6110 N.3   106  TYR106     -0.1241
    122  CA         1.2000  -11.2910   22.4460 C.3   106  TYR106      0.1605
    123  C          2.6320  -10.8630   22.6870 C.2   106  TYR106      0.2264
    124  O          3.4390  -11.6470   23.1930 O.2   106  TYR106     -0.2867
    125  CB         0.5680  -11.6130   23.8320 C.3   106  TYR106      0.0534
    126  CG        -0.8630  -12.0820   23.7430 C.ar  106  TYR106     -0.0201
    127  CD1       -1.1400  -13.4460   23.5720 C.ar  106  TYR106     -0.0009
    128  CD2       -1.9370  -11.2010   23.8300 C.ar  106  TYR106     -0.0009
    129  CE1       -2.4460  -13.9210   23.4650 C.ar  106  TYR106      0.0417
    130  CE2       -3.2540  -11.6710   23.6940 C.ar  106  TYR106      0.0417
    131  CZ        -3.5010  -13.0230   23.5410 C.ar  106  TYR106      0.1957
    132  OH        -4.7820  -13.5270   23.4640 O.3   106  TYR106     -0.2866
    133  N         -3.6350  -11.8120   15.8730 N.3   125  TYR125     -0.1241
    134  CA        -4.4270  -13.0040   15.6330 C.3   125  TYR125      0.1605
    135  C         -4.0090  -13.6180   14.3030 C.2   125  TYR125      0.2264
    136  O         -3.9880  -12.9240   13.2840 O.2   125  TYR125     -0.2867
    137  CB        -5.8920  -12.5970   15.5360 C.3   125  TYR125      0.0534
    138  CG        -6.4980  -12.1820   16.8550 C.ar  125  TYR125     -0.0201
    139  CD1       -7.3900  -13.0300   17.5080 C.ar  125  TYR125     -0.0009
    140  CD2       -6.1870  -10.9540   17.4530 C.ar  125  TYR125     -0.0009
    141  CE1       -7.9560  -12.6670   18.7400 C.ar  125  TYR125      0.0417
    142  CE2       -6.7540  -10.5840   18.6760 C.ar  125  TYR125      0.0417
    143  CZ        -7.6320  -11.4550   19.3050 C.ar  125  TYR125      0.1957
    144  OH        -8.2120  -11.1110   20.5130 O.3   125  TYR125     -0.2866
    145  N        -14.3870   -9.9930   16.4950 N.3   137  GLU137     -0.1245
    146  CA       -13.6830  -10.9010   17.3910 C.3   137  GLU137      0.1567
    147  C        -12.5410  -10.1750   18.0310 C.2   137  GLU137      0.2260
    148  O        -12.2770  -10.3140   19.2250 O.2   137  GLU137     -0.2867
    149  CB       -13.0850  -12.0820   16.5960 C.3   137  GLU137      0.0388
    150  CG       -14.0760  -12.8840   15.7780 C.3   137  GLU137      0.1160
    151  CD       -13.3910  -13.9030   14.8630 C.2   137  GLU137      0.3649
    152  OE1      -12.6620  -14.7730   15.3860 O.co2 137  GLU137     -0.2457
    153  OE2      -13.5830  -13.8230   13.6280 O.co2 137  GLU137     -0.2457
    154  N        -13.7170   -7.6620   20.6730 N.3   140  ILE140     -0.1231
    155  CA       -14.0260   -8.3550   21.9150 C.3   140  ILE140      0.1692
    156  C        -12.7420   -8.7080   22.6600 C.2   140  ILE140      0.2592
    157  O        -12.6890   -8.5610   23.8780 O.2   140  ILE140     -0.2718
    158  CB       -14.8720   -9.6250   21.6830 C.3   140  ILE140      0.0266
    159  CG1      -16.2890   -9.2490   21.2600 C.3   140  ILE140      0.0019
    160  CG2      -14.9440  -10.4770   22.9730 C.3   140  ILE140      0.0020
    161  CD1      -17.0770  -10.4230   20.6870 C.3   140  ILE140      0.0001
    162  N        -11.7030   -9.1840   21.9760 N.am  141  GLY141     -0.1957
    163  CA       -10.4510   -9.4930   22.6890 C.3   141  GLY141      0.1869
    164  C         -9.8160   -8.2470   23.3070 C.2   141  GLY141      0.2309
    165  O         -9.3030   -8.2600   24.4340 O.2   141  GLY141     -0.2863
    166  N        -11.8540   -7.2540   26.5650 N.3   144  LYS144     -0.1245
    167  CA       -11.5440   -8.1910   27.6460 C.3   144  LYS144      0.1561
    168  C        -10.1870   -7.8510   28.2180 C.2   144  LYS144      0.2260
    169  O        -10.0280   -7.7440   29.4420 O.2   144  LYS144     -0.2867
    170  CB       -11.5230   -9.6620   27.1590 C.3   144  LYS144      0.0271
    171  CG       -12.8780  -10.2320   26.7010 C.3   144  LYS144      0.0035
    172  CD       -12.8280  -11.7760   26.4600 C.3   144  LYS144      0.0206
    173  CE       -11.7950  -12.2000   25.3920 C.3   144  LYS144      0.1093
    174  NZ       -12.1650  -13.4580   24.6260 N.3   144  LYS144     -0.1314
@<TRIPOS>BOND
     1   136   135    2
     2   153   151   ar
     3   135   134    1
     4   106   107    1
     5   113   111    1
     6   151   152   ar
     7   151   150    1
     8   107   108    1
     9   107   110    1
    10   108   109    2
    11   137   134    1
    12   137   138    1
    13   134   133    1
    14   150   149    1
    15   111   110    1
    16   110   112    1
    17   145   146    1
    18   149   146    1
    19   138   140   ar
    20   138   139   ar
    21   101   100    2
    22   146   147    1
    23   140   142   ar
    24   139   141   ar
    25   147   148    2
    26   100    99    1
    27   142   143   ar
    28   141   143   ar
    29   114   115    1
    30   115   116    1
    31   115   118    1
    32   102    99    1
    33   102   103    1
    34   143   144    1
    35   120   118    1
    36    99    98    1
    37   104   103    1
    38   116   117    2
    39   105   103    1
    40   118   119    1
    41   154   155    1
    42   161   159    1
    43    86    85    2
    44    98    93   am
    45    94    93    2
    46   159   158    1
    47    93    92    1
    48   121   122    1
    49   158   155    1
    50   158   160    1
    51    85    84    1
    52   155   156    1
    53   162   156   am
    54   162   163    1
    55   122   123    1
    56   122   125    1
    57   156   157    2
    58   123   124    2
    59   163   164    1
    60    83    84    1
    61    92    91    1
    62    92    95    1
    63    84    87    1
    64    87    88    1
    65    88    90    1
    66    88    89    1
    67   164   165    2
    68   132   131    1
    69   129   131   ar
    70   129   127   ar
    71   131   130   ar
    72   127   126   ar
    73   130   128   ar
    74   126   128   ar
    75   126   125    1
    76    96    95    1
    77    97    95    1
    78    64    62    1
    79   174   173    1
    80   173   172    1
    81    62    63    1
    82    62    61    1
    83    80    82   ar
    84    80    78   ar
    85    74    75    1
    86    74    73    1
    87    74    77    1
    88   172   171    1
    89   166   167    1
    90    75    76    2
    91    82    81   ar
    92   171   170    1
    93    61    58    1
    94    78    77    1
    95    78    79   ar
    96   170   167    1
    97    70    71    1
    98    70    69    1
    99    66    69    1
   100    66    67    1
   101    66    65    1
   102    58    57    1
   103    58    59    1
   104    71    72    1
   105    81    79   ar
   106    67    68    2
   107   167   168    1
   108   168   169    2
   109    59    60    2
   110    46    45   ar
   111    46    44   ar
   112    45    43   ar
   113    55    53   ar
   114    55    56   ar
   115    53    52   ar
   116    44    42   ar
   117    43    41   ar
   118    56    54   ar
   119    49    50    2
   120    49    48    1
   121    42    41   ar
   122    41    40    1
   123    52    54   ar
   124    52    51    1
   125    48    51    1
   126    48    47    1
   127    35    33   ar
   128    35    34   ar
   129    33    31   ar
   130    40    37    1
   131     7     6    1
   132    23    22    1
   133    36    37    1
   134    34    32   ar
   135    31    30   ar
   136    37    38    1
   137     8     6    1
   138    16    15    2
   139     6     5    1
   140    17    15   am
   141    24    22    1
   142    22    19    1
   143    15    14    1
   144    32    30   ar
   145    38    39    2
   146    30    29    1
   147    21    20    2
   148     5     2    1
   149    19    20    1
   150    19    18    1
   151    20    25   am
   152    29    26    1
   153    14    13    1
   154    25    26    1
   155    26    27    1
   156    13    10    1
   157     2     1    1
   158     2     3    1
   159     4     3    2
   160    27    28    2
   161    12    11    2
   162    10    11    1
   163    10     9    1
