@<TRIPOS>MOLECULE
tmp/3ie5B00.pdb
 177 168 0 0 0
SMALL
GASTEIGER

@<TRIPOS>ATOM
      1  N         -1.7060   -1.5410   21.4500 N.3    13  LYS13      -0.1245
      2  CA        -2.2540   -0.6980   22.5110 C.3    13  LYS13       0.1561
      3  C         -1.1550   -0.2290   23.4190 C.2    13  LYS13       0.2260
      4  O         -0.2700   -0.9720   23.7240 O.2    13  LYS13      -0.2867
      5  CB        -3.2610   -1.4630   23.3500 C.3    13  LYS13       0.0271
      6  CG        -4.4630   -1.9760   22.5800 C.3    13  LYS13       0.0035
      7  CD        -5.4490   -0.8610   22.3480 C.3    13  LYS13       0.0206
      8  CE        -6.2620   -0.5400   23.6020 C.3    13  LYS13       0.1093
      9  NZ        -5.6420    0.5190   24.4530 N.3    13  LYS13      -0.1314
     10  N         -0.4190    2.2380   27.0810 N.3    15  GLU15      -0.1245
     11  CA        -1.0100    2.9690   28.1830 C.3    15  GLU15       0.1567
     12  C          0.0950    3.4540   29.1290 C.2    15  GLU15       0.2260
     13  O          1.1200    2.8120   29.2810 O.2    15  GLU15      -0.2867
     14  CB        -1.9580    2.0530   28.9920 C.3    15  GLU15       0.0388
     15  CG        -3.2990    1.6540   28.2980 C.3    15  GLU15       0.1160
     16  CD        -4.2670    2.8100   28.0880 C.2    15  GLU15       0.3649
     17  OE1       -4.1250    3.8320   28.7660 O.co2  15  GLU15      -0.2457
     18  OE2       -5.1830    2.6900   27.2440 O.co2  15  GLU15      -0.2457
     19  N          3.7800   -4.5140   37.2470 N.3    24  LEU24      -0.1245
     20  CA         2.8530   -4.8450   36.1620 C.3    24  LEU24       0.1561
     21  C          3.3230   -6.0910   35.4300 C.2    24  LEU24       0.2260
     22  O          2.5270   -6.9010   35.0430 O.2    24  LEU24      -0.2867
     23  CB         2.7670   -3.6930   35.1470 C.3    24  LEU24       0.0270
     24  CG         2.0270   -2.4700   35.7070 C.3    24  LEU24       0.0019
     25  CD1        2.1480   -1.3160   34.7210 C.3    24  LEU24       0.0001
     26  CD2        0.5340   -2.8210   35.8900 C.3    24  LEU24       0.0001
     27  N          1.0310   -9.2640   35.0660 N.3    28  LEU28      -0.1231
     28  CA         0.3550   -9.4140   33.7840 C.3    28  LEU28       0.1693
     29  C          1.0840  -10.3400   32.8170 C.2    28  LEU28       0.2591
     30  O          0.5350  -10.6690   31.7210 O.2    28  LEU28      -0.2718
     31  CB         0.1990   -8.0330   33.1160 C.3    28  LEU28       0.0284
     32  CG        -0.7810   -7.0960   33.8590 C.3    28  LEU28       0.0019
     33  CD1       -0.6220   -5.6820   33.3080 C.3    28  LEU28       0.0001
     34  CD2       -2.2480   -7.6060   33.7520 C.3    28  LEU28       0.0001
     35  N          2.2950  -10.7700   33.1960 N.am   29  VAL29      -0.1980
     36  CA         3.0560  -11.6980   32.3570 C.3    29  VAL29       0.1595
     37  C          3.5210  -12.9100   33.1720 C.2    29  VAL29       0.2287
     38  O          3.0380  -14.0210   32.9610 O.2    29  VAL29      -0.2864
     39  CB         4.2750  -11.0060   31.7250 C.3    29  VAL29       0.0276
     40  CG1        5.1690  -12.0380   30.9410 C.3    29  VAL29       0.0022
     41  CG2        3.8160   -9.8980   30.7950 C.3    29  VAL29       0.0022
     42  N          0.5500  -14.1590   35.2560 N.3    32  ARG32      -0.1245
     43  CA        -0.7530  -13.9190   34.6710 C.3    32  ARG32       0.1563
     44  C         -1.7000  -15.0980   34.8740 C.2    32  ARG32       0.2260
     45  O         -2.9050  -14.9100   35.0910 O.2    32  ARG32      -0.2867
     46  CB        -0.5920  -13.6360   33.1730 C.3    32  ARG32       0.0307
     47  CG        -1.8840  -13.3450   32.4790 C.3    32  ARG32       0.0489
     48  CD        -1.6570  -13.1470   30.9870 C.3    32  ARG32       0.2205
     49  NE        -1.1830  -14.3590   30.3390 N.pl3  32  ARG32      -0.0865
     50  CZ        -1.9690  -15.3410   29.9200 C.cat  32  ARG32       0.5346
     51  NH1       -3.2930  -15.2580   30.0570 N.pl3  32  ARG32       0.1354
     52  NH2       -1.4290  -16.4090   29.3620 N.pl3  32  ARG32       0.1354
     53  N         -5.1270  -13.9820   36.7050 N.3    36  LEU36      -0.1245
     54  CA        -6.4120  -14.0550   36.0120 C.3    36  LEU36       0.1561
     55  C         -7.4760  -14.7540   36.8600 C.2    36  LEU36       0.2260
     56  O         -8.6560  -14.3770   36.8600 O.2    36  LEU36      -0.2867
     57  CB        -6.2740  -14.8720   34.7130 C.3    36  LEU36       0.0270
     58  CG        -5.9610  -14.0610   33.4750 C.3    36  LEU36       0.0019
     59  CD1       -5.5050  -14.9870   32.3540 C.3    36  LEU36       0.0001
     60  CD2       -7.2270  -13.1950   33.1020 C.3    36  LEU36       0.0001
     61  N         -0.8700  -21.3500   26.9070 N.3    75  HIS75      -0.1241
     62  CA         0.0170  -20.2990   26.4440 C.3    75  HIS75       0.1621
     63  C          1.4410  -20.7680   26.5740 C.2    75  HIS75       0.2264
     64  O          1.7700  -21.4980   27.4980 O.2    75  HIS75      -0.2867
     65  CB        -0.1510  -19.0560   27.3260 C.3    75  HIS75       0.0745
     66  CG        -1.4520  -18.3420   27.1300 C.ar   75  HIS75       0.0817
     67  ND1       -2.5980  -18.6820   27.8160 N.ar   75  HIS75      -0.2268
     68  CD2       -1.7690  -17.2490   26.3780 C.ar   75  HIS75       0.1154
     69  CE1       -3.5780  -17.8650   27.4590 C.ar   75  HIS75       0.1986
     70  NE2       -3.1020  -16.9950   26.5780 N.ar   75  HIS75      -0.2212
     71  N          4.5670  -14.0870   24.1630 N.3    89  TYR89      -0.1241
     72  CA         3.9770  -15.3500   24.5150 C.3    89  TYR89       0.1605
     73  C          2.7910  -15.5990   23.6070 C.2    89  TYR89       0.2264
     74  O          2.2150  -14.6600   23.0630 O.2    89  TYR89      -0.2867
     75  CB         3.5800  -15.3440   26.0330 C.3    89  TYR89       0.0534
     76  CG         2.5080  -14.3680   26.4370 C.ar   89  TYR89      -0.0201
     77  CD1        1.1460  -14.7360   26.4410 C.ar   89  TYR89      -0.0009
     78  CD2        2.8340  -13.0630   26.8310 C.ar   89  TYR89      -0.0009
     79  CE1        0.1680  -13.8370   26.8300 C.ar   89  TYR89       0.0417
     80  CE2        1.8530  -12.1810   27.2100 C.ar   89  TYR89       0.0417
     81  CZ         0.5360  -12.5620   27.2070 C.ar   89  TYR89       0.1957
     82  OH        -0.4200  -11.6310   27.5640 O.3    89  TYR89      -0.2866
     83  N          1.2020  -12.4840   21.6110 N.3   106  TYR106     -0.1241
     84  CA         1.2000  -11.2910   22.4460 C.3   106  TYR106      0.1605
     85  C          2.6320  -10.8630   22.6870 C.2   106  TYR106      0.2264
     86  O          3.4390  -11.6470   23.1930 O.2   106  TYR106     -0.2867
     87  CB         0.5680  -11.6130   23.8320 C.3   106  TYR106      0.0534
     88  CG        -0.8630  -12.0820   23.7430 C.ar  106  TYR106     -0.0201
     89  CD1       -1.1400  -13.4460   23.5720 C.ar  106  TYR106     -0.0009
     90  CD2       -1.9370  -11.2010   23.8300 C.ar  106  TYR106     -0.0009
     91  CE1       -2.4460  -13.9210   23.4650 C.ar  106  TYR106      0.0417
     92  CE2       -3.2540  -11.6710   23.6940 C.ar  106  TYR106      0.0417
     93  CZ        -3.5010  -13.0230   23.5410 C.ar  106  TYR106      0.1957
     94  OH        -4.7820  -13.5270   23.4640 O.3   106  TYR106     -0.2866
     95  N          4.6880   -8.0160   24.7520 N.3   108  VAL108     -0.1245
     96  CA         4.5550   -6.9950   25.7920 C.3   108  VAL108      0.1561
     97  C          5.9160   -6.3260   26.0420 C.2   108  VAL108      0.2260
     98  O          6.9430   -6.9810   26.1690 O.2   108  VAL108     -0.2867
     99  CB         4.0710   -7.6810   27.1030 C.3   108  VAL108      0.0252
    100  CG1        4.1240   -6.6590   28.2840 C.3   108  VAL108      0.0019
    101  CG2        2.6510   -8.1930   26.9550 C.3   108  VAL108      0.0019
    102  N          7.3490   -3.0530   28.6050 N.3   110  LEU110     -0.1245
    103  CA         7.1440   -1.8960   29.4670 C.3   110  LEU110      0.1561
    104  C          8.4530   -1.1180   29.6180 C.2   110  LEU110      0.2260
    105  O          9.5290   -1.6580   29.4280 O.2   110  LEU110     -0.2867
    106  CB         6.6510   -2.3640   30.8410 C.3   110  LEU110      0.0270
    107  CG         5.2010   -2.8720   30.8840 C.3   110  LEU110      0.0019
    108  CD1        4.7350   -3.4020   29.5410 C.3   110  LEU110      0.0001
    109  CD2        5.0350   -3.9460   31.9450 C.3   110  LEU110      0.0001
    110  N          3.4890    1.1850   28.9340 N.3   119  GLY119     -0.1210
    111  CA         3.4290   -0.1980   28.4910 C.3   119  GLY119      0.1956
    112  C          2.8600   -0.2590   27.1060 C.2   119  GLY119      0.2612
    113  O          2.0390    0.5480   26.7580 O.2   119  GLY119     -0.2717
    114  N          3.3180   -1.2230   26.3250 N.am  120  LYS120     -0.1965
    115  CA         2.7940   -1.4450   24.9910 C.3   120  LYS120      0.1728
    116  C          2.5410   -2.9250   24.8630 C.2   120  LYS120      0.2616
    117  O          3.3160   -3.7620   25.3930 O.2   120  LYS120     -0.2715
    118  CB         3.8380   -1.0430   23.9780 C.3   120  LYS120      0.0311
    119  CG         3.3920   -1.2220   22.5400 C.3   120  LYS120      0.0038
    120  CD         4.4120   -0.5620   21.6480 C.3   120  LYS120      0.0206
    121  CE         4.2060   -0.9000   20.1700 C.3   120  LYS120      0.1093
    122  NZ         5.2020   -0.1870   19.3160 N.3   120  LYS120     -0.1314
    123  N          1.4260   -3.2750   24.2320 N.am  121  ILE121     -0.1977
    124  CA         1.2360   -4.6570   23.8580 C.3   121  ILE121      0.1596
    125  C          0.8100   -4.6960   22.3880 C.2   121  ILE121      0.2287
    126  O          0.0580   -3.8420   21.9250 O.2   121  ILE121     -0.2864
    127  CB         0.2020   -5.3390   24.7670 C.3   121  ILE121      0.0276
    128  CG1        0.1720   -6.8260   24.4840 C.3   121  ILE121      0.0022
    129  CG2       -1.1750   -4.6490   24.6150 C.3   121  ILE121      0.0022
    130  CD1       -0.7610   -7.6010   25.4680 C.3   121  ILE121      0.0001
    131  N         -0.8610   -7.4000   19.8120 N.3   123  VAL123     -0.1245
    132  CA        -1.6130   -8.6320   19.8230 C.3   123  VAL123      0.1561
    133  C         -1.8990   -9.0400   18.3880 C.2   123  VAL123      0.2260
    134  O         -2.5350   -8.2790   17.6480 O.2   123  VAL123     -0.2867
    135  CB        -2.9530   -8.4580   20.5050 C.3   123  VAL123      0.0252
    136  CG1       -3.6910   -9.7970   20.5670 C.3   123  VAL123      0.0019
    137  CG2       -2.7370   -7.8920   21.9700 C.3   123  VAL123      0.0019
    138  N         -9.1880   -7.7250   27.3430 N.3   145  ALA145     -0.1231
    139  CA        -7.8130   -7.4930   27.7970 C.3   145  ALA145      0.1694
    140  C         -7.7580   -6.1860   28.6040 C.2   145  ALA145      0.2592
    141  O         -7.0890   -6.0850   29.6570 O.2   145  ALA145     -0.2718
    142  CB        -6.8550   -7.4280   26.6170 C.3   145  ALA145      0.0304
    143  N         -8.4070   -5.1540   28.0820 N.am  146  TYR146     -0.1976
    144  CA        -8.3250   -3.8600   28.7330 C.3   146  TYR146      0.1639
    145  C         -8.9680   -3.9190   30.1170 C.2   146  TYR146      0.2290
    146  O         -8.4590   -3.3370   31.0700 O.2   146  TYR146     -0.2864
    147  CB        -8.9740   -2.7950   27.8570 C.3   146  TYR146      0.0560
    148  CG        -8.9700   -1.4340   28.4980 C.ar  146  TYR146     -0.0198
    149  CD1       -7.8170   -0.6430   28.4780 C.ar  146  TYR146     -0.0009
    150  CD2      -10.1070   -0.9400   29.1300 C.ar  146  TYR146     -0.0009
    151  CE1       -7.8010    0.6220   29.0640 C.ar  146  TYR146      0.0417
    152  CE2      -10.0960    0.3380   29.7360 C.ar  146  TYR146      0.0417
    153  CZ        -8.9260    1.1020   29.6850 C.ar  146  TYR146      0.1957
    154  OH        -8.8650    2.3480   30.2570 O.3   146  TYR146     -0.2866
    155  N         -9.2750   -6.4690   32.1310 N.3   148  PHE148     -0.1227
    156  CA        -8.3890   -7.2280   33.0390 C.3   148  PHE148      0.1736
    157  C         -7.1970   -6.3550   33.4580 C.2   148  PHE148      0.2595
    158  O         -6.8390   -6.2710   34.6460 O.2   148  PHE148     -0.2718
    159  CB        -7.9240   -8.4810   32.3190 C.3   148  PHE148      0.0547
    160  CG        -6.8540   -9.2480   33.0530 C.ar  148  PHE148     -0.0202
    161  CD1       -7.0530   -9.6740   34.3560 C.ar  148  PHE148     -0.0042
    162  CD2       -5.6700   -9.5410   32.4170 C.ar  148  PHE148     -0.0042
    163  CE1       -6.0400  -10.3760   35.0500 C.ar  148  PHE148     -0.0003
    164  CE2       -4.6620  -10.2420   33.0480 C.ar  148  PHE148     -0.0003
    165  CZ        -4.8510  -10.6830   34.3890 C.ar  148  PHE148     -0.0000
    166  N         -6.6200   -5.6400   32.4980 N.am  149  TYR149     -0.1976
    167  CA        -5.4860   -4.7680   32.7630 C.3   149  TYR149      0.1639
    168  C         -5.8690   -3.7250   33.7990 C.2   149  TYR149      0.2290
    169  O         -5.1390   -3.4840   34.7550 O.2   149  TYR149     -0.2864
    170  CB        -5.0450   -4.0870   31.4660 C.3   149  TYR149      0.0560
    171  CG        -4.1360   -2.9170   31.6690 C.ar  149  TYR149     -0.0198
    172  CD1       -2.8210   -3.1070   32.0670 C.ar  149  TYR149     -0.0009
    173  CD2       -4.6000   -1.6120   31.4790 C.ar  149  TYR149     -0.0009
    174  CE1       -1.9780   -2.0430   32.2560 C.ar  149  TYR149      0.0417
    175  CE2       -3.7500   -0.5170   31.6810 C.ar  149  TYR149      0.0417
    176  CZ        -2.4490   -0.7510   32.0710 C.ar  149  TYR149      0.1957
    177  OH        -1.5610    0.2620   32.2830 O.3   149  TYR149     -0.2866
@<TRIPOS>BOND
     1   134   133    2
     2   133   132    1
     3   122   121    1
     4   131   132    1
     5   132   135    1
     6   121   120    1
     7   135   136    1
     8   135   137    1
     9     1     2    1
    10    83    84    1
    11   120   119    1
    12   126   125    2
    13     7     6    1
    14     7     8    1
    15   125   124    1
    16    84    85    1
    17    84    87    1
    18     2     5    1
    19     2     3    1
    20   119   118    1
    21     6     5    1
    22    85    86    2
    23    74    73    2
    24     3     4    2
    25    94    93    1
    26    91    93   ar
    27    91    89   ar
    28    93    92   ar
    29    89    88   ar
    30     8     9    1
    31    73    72    1
    32    92    90   ar
    33    88    90   ar
    34    88    87    1
    35   124   123    1
    36   124   127    1
    37   118   115    1
    38    71    72    1
    39   123   116   am
    40   128   127    1
    41   128   130    1
    42    72    75    1
    43   129   127    1
    44    95    96    1
    45   116   115    1
    46   116   117    2
    47   115   114    1
    48    96    97    1
    49    96    99    1
    50    75    76    1
    51    97    98    2
    52   114   112   am
    53    68    70   ar
    54    68    66   ar
    55    76    77   ar
    56    76    78   ar
    57    77    79   ar
    58    62    63    1
    59    62    61    1
    60    62    65    1
    61    63    64    2
    62    70    69   ar
    63   142   139    1
    64   113   112    2
    65    79    81   ar
    66    78    80   ar
    67   101    99    1
    68    10    11    1
    69    99   100    1
    70   112   111    1
    71    66    65    1
    72    66    67   ar
    73    81    80   ar
    74    81    82    1
    75    18    16   ar
    76   138   139    1
    77    69    67   ar
    78   139   140    1
    79   147   148    1
    80   147   144    1
    81   143   140   am
    82   143   144    1
    83    16    15    1
    84    16    17   ar
    85    11    14    1
    86    11    12    1
    87    15    14    1
    88   149   148   ar
    89   149   151   ar
    90   111   110    1
    91   148   150   ar
    92   140   141    2
    93   102   103    1
    94   144   145    1
    95   151   153   ar
    96    12    13    2
    97   150   152   ar
    98    52    50    1
    99   105   104    2
   100   103   104    1
   101   103   106    1
   102   108   107    1
   103   153   152   ar
   104   153   154    1
   105    50    51    1
   106    50    49    2
   107   145   146    2
   108    49    48    1
   109    41    39    1
   110   106   107    1
   111   107   109    1
   112    40    39    1
   113    48    47    1
   114   170   171    1
   115   170   167    1
   116   173   171   ar
   117   173   175   ar
   118   171   172   ar
   119   175   176   ar
   120    30    29    2
   121    39    36    1
   122   172   174   ar
   123   176   174   ar
   124   176   177    1
   125   155   156    1
   126   159   156    1
   127   159   160    1
   128    59    58    1
   129    36    37    1
   130    36    35    1
   131   162   164   ar
   132   162   160   ar
   133    47    46    1
   134   166   167    1
   135   166   157   am
   136   167   168    1
   137    29    35   am
   138    29    28    1
   139    38    37    2
   140   156   157    1
   141   164   165   ar
   142   160   161   ar
   143    60    58    1
   144    31    28    1
   145    31    32    1
   146    46    43    1
   147    33    32    1
   148   157   158    2
   149    58    57    1
   150    34    32    1
   151    28    27    1
   152   168   169    2
   153   161   163   ar
   154   165   163   ar
   155    43    44    1
   156    43    42    1
   157    57    54    1
   158    25    24    1
   159    44    45    2
   160    22    21    2
   161    23    24    1
   162    23    20    1
   163    21    20    1
   164    24    26    1
   165    54    53    1
   166    54    55    1
   167    20    19    1
   168    55    56    2
