@<TRIPOS>MOLECULE
tmp/3ie5B02.pdb
 98 93 0 0 0
SMALL
GASTEIGER

@<TRIPOS>ATOM
      1  N          0.5500  -14.1590   35.2560 N.3    32  ARG32      -0.1245
      2  CA        -0.7530  -13.9190   34.6710 C.3    32  ARG32       0.1563
      3  C         -1.7000  -15.0980   34.8740 C.2    32  ARG32       0.2260
      4  O         -2.9050  -14.9100   35.0910 O.2    32  ARG32      -0.2867
      5  CB        -0.5920  -13.6360   33.1730 C.3    32  ARG32       0.0307
      6  CG        -1.8840  -13.3450   32.4790 C.3    32  ARG32       0.0489
      7  CD        -1.6570  -13.1470   30.9870 C.3    32  ARG32       0.2205
      8  NE        -1.1830  -14.3590   30.3390 N.pl3  32  ARG32      -0.0865
      9  CZ        -1.9690  -15.3410   29.9200 C.cat  32  ARG32       0.5346
     10  NH1       -3.2930  -15.2580   30.0570 N.pl3  32  ARG32       0.1354
     11  NH2       -1.4290  -16.4090   29.3620 N.pl3  32  ARG32       0.1354
     12  N         -5.1270  -13.9820   36.7050 N.3    36  LEU36      -0.1245
     13  CA        -6.4120  -14.0550   36.0120 C.3    36  LEU36       0.1561
     14  C         -7.4760  -14.7540   36.8600 C.2    36  LEU36       0.2260
     15  O         -8.6560  -14.3770   36.8600 O.2    36  LEU36      -0.2867
     16  CB        -6.2740  -14.8720   34.7130 C.3    36  LEU36       0.0270
     17  CG        -5.9610  -14.0610   33.4750 C.3    36  LEU36       0.0019
     18  CD1       -5.5050  -14.9870   32.3540 C.3    36  LEU36       0.0001
     19  CD2       -7.2270  -13.1950   33.1020 C.3    36  LEU36       0.0001
     20  N        -10.8450  -12.9620   38.0660 N.3    40  GLN40      -0.1245
     21  CA       -12.1170  -13.4100   37.4550 C.3    40  GLN40       0.1566
     22  C        -12.4780  -14.8340   37.8610 C.2    40  GLN40       0.2260
     23  O        -12.4960  -15.7530   37.0540 O.2    40  GLN40      -0.2867
     24  CB       -12.0170  -13.2950   35.9430 C.3    40  GLN40       0.0367
     25  CG       -11.7960  -11.8660   35.5480 C.3    40  GLN40       0.0905
     26  CD       -11.7530  -11.6770   34.0690 C.2    40  GLN40       0.2608
     27  OE1      -12.2080  -12.5330   33.2990 O.2    40  GLN40      -0.2717
     28  NE2      -11.1990  -10.5450   33.6450 N.am   40  GLN40      -0.0878
     29  N        -15.0010  -16.9000   36.1390 N.3    43  VAL43      -0.1231
     30  CA       -14.6540  -17.4010   34.8270 C.3    43  VAL43       0.1692
     31  C        -13.6230  -18.5350   34.8790 C.2    43  VAL43       0.2592
     32  O        -13.7650  -19.5420   34.1690 O.2    43  VAL43      -0.2718
     33  CB       -14.1340  -16.2610   33.9460 C.3    43  VAL43       0.0266
     34  CG1      -13.6850  -16.7830   32.6140 C.3    43  VAL43       0.0020
     35  CG2      -15.2490  -15.2080   33.7810 C.3    43  VAL43       0.0020
     36  N        -12.5820  -18.3630   35.6870 N.am   44  PHE44      -0.1976
     37  CA       -11.4690  -19.3000   35.7040 C.3    44  PHE44       0.1639
     38  C        -11.3410  -19.9930   37.0390 C.2    44  PHE44       0.2290
     39  O        -11.4780  -19.3470   38.0640 O.2    44  PHE44      -0.2864
     40  CB       -10.1820  -18.5380   35.4760 C.3    44  PHE44       0.0560
     41  CG       -10.1670  -17.8430   34.1550 C.ar   44  PHE44      -0.0200
     42  CD1      -10.1270  -18.5930   32.9740 C.ar   44  PHE44      -0.0042
     43  CD2      -10.2620  -16.4740   34.0950 C.ar   44  PHE44      -0.0042
     44  CE1      -10.1270  -17.9480   31.7540 C.ar   44  PHE44      -0.0003
     45  CE2      -10.2870  -15.8130   32.8480 C.ar   44  PHE44      -0.0003
     46  CZ       -10.2060  -16.5590   31.6990 C.ar   44  PHE44      -0.0000
     47  N        -11.1590  -23.0650   32.8250 N.3    64  PHE64      -0.1241
     48  CA       -12.3610  -22.2860   33.0920 C.3    64  PHE64       0.1605
     49  C        -13.1900  -23.0190   34.1310 C.2    64  PHE64       0.2264
     50  O        -13.0290  -24.2300   34.3030 O.2    64  PHE64      -0.2867
     51  CB       -13.2290  -22.1760   31.8320 C.3    64  PHE64       0.0534
     52  CG       -12.7050  -21.2090   30.8040 C.ar   64  PHE64      -0.0203
     53  CD1      -13.3050  -19.9550   30.6510 C.ar   64  PHE64      -0.0042
     54  CD2      -11.6260  -21.5390   29.9970 C.ar   64  PHE64      -0.0042
     55  CE1      -12.8550  -19.0520   29.6820 C.ar   64  PHE64      -0.0003
     56  CE2      -11.1600  -20.6270   29.0310 C.ar   64  PHE64      -0.0003
     57  CZ       -11.7780  -19.3860   28.8760 C.ar   64  PHE64      -0.0000
     58  N          1.2020  -12.4840   21.6110 N.3   106  TYR106     -0.1241
     59  CA         1.2000  -11.2910   22.4460 C.3   106  TYR106      0.1605
     60  C          2.6320  -10.8630   22.6870 C.2   106  TYR106      0.2264
     61  O          3.4390  -11.6470   23.1930 O.2   106  TYR106     -0.2867
     62  CB         0.5680  -11.6130   23.8320 C.3   106  TYR106      0.0534
     63  CG        -0.8630  -12.0820   23.7430 C.ar  106  TYR106     -0.0201
     64  CD1       -1.1400  -13.4460   23.5720 C.ar  106  TYR106     -0.0009
     65  CD2       -1.9370  -11.2010   23.8300 C.ar  106  TYR106     -0.0009
     66  CE1       -2.4460  -13.9210   23.4650 C.ar  106  TYR106      0.0417
     67  CE2       -3.2540  -11.6710   23.6940 C.ar  106  TYR106      0.0417
     68  CZ        -3.5010  -13.0230   23.5410 C.ar  106  TYR106      0.1957
     69  OH        -4.7820  -13.5270   23.4640 O.3   106  TYR106     -0.2866
     70  N        -11.7030   -9.1840   21.9760 N.3   141  GLY141     -0.1225
     71  CA       -10.4510   -9.4930   22.6890 C.3   141  GLY141      0.1811
     72  C         -9.8160   -8.2470   23.3070 C.2   141  GLY141      0.2280
     73  O         -9.3030   -8.2600   24.4340 O.2   141  GLY141     -0.2866
     74  N        -11.8540   -7.2540   26.5650 N.3   144  LYS144     -0.1231
     75  CA       -11.5440   -8.1910   27.6460 C.3   144  LYS144      0.1693
     76  C        -10.1870   -7.8510   28.2180 C.2   144  LYS144      0.2591
     77  O        -10.0280   -7.7440   29.4420 O.2   144  LYS144     -0.2718
     78  CB       -11.5230   -9.6620   27.1590 C.3   144  LYS144      0.0285
     79  CG       -12.8780  -10.2320   26.7010 C.3   144  LYS144      0.0035
     80  CD       -12.8280  -11.7760   26.4600 C.3   144  LYS144      0.0206
     81  CE       -11.7950  -12.2000   25.3920 C.3   144  LYS144      0.1093
     82  NZ       -12.1650  -13.4580   24.6260 N.3   144  LYS144     -0.1314
     83  N         -9.1880   -7.7250   27.3430 N.am  145  ALA145     -0.1980
     84  CA        -7.8130   -7.4930   27.7970 C.3   145  ALA145      0.1597
     85  C         -7.7580   -6.1860   28.6040 C.2   145  ALA145      0.2287
     86  O         -7.0890   -6.0850   29.6570 O.2   145  ALA145     -0.2864
     87  CB        -6.8550   -7.4280   26.6170 C.3   145  ALA145      0.0319
     88  N         -9.2750   -6.4690   32.1310 N.3   148  PHE148     -0.1241
     89  CA        -8.3890   -7.2280   33.0390 C.3   148  PHE148      0.1605
     90  C         -7.1970   -6.3550   33.4580 C.2   148  PHE148      0.2264
     91  O         -6.8390   -6.2710   34.6460 O.2   148  PHE148     -0.2867
     92  CB        -7.9240   -8.4810   32.3190 C.3   148  PHE148      0.0534
     93  CG        -6.8540   -9.2480   33.0530 C.ar  148  PHE148     -0.0203
     94  CD1       -7.0530   -9.6740   34.3560 C.ar  148  PHE148     -0.0042
     95  CD2       -5.6700   -9.5410   32.4170 C.ar  148  PHE148     -0.0042
     96  CE1       -6.0400  -10.3760   35.0500 C.ar  148  PHE148     -0.0003
     97  CE2       -4.6620  -10.2420   33.0480 C.ar  148  PHE148     -0.0003
     98  CZ        -4.8510  -10.6830   34.3890 C.ar  148  PHE148     -0.0000
@<TRIPOS>BOND
     1    58    59    1
     2    70    71    1
     3    59    60    1
     4    59    62    1
     5    60    61    2
     6    71    72    1
     7    72    73    2
     8    69    68    1
     9    66    68   ar
    10    66    64   ar
    11    68    67   ar
    12    64    63   ar
    13    67    65   ar
    14    63    65   ar
    15    63    62    1
    16    82    81    1
    17    81    80    1
    18    80    79    1
    19    74    75    1
    20    87    84    1
    21    79    78    1
    22    78    75    1
    23    83    84    1
    24    83    76   am
    25    75    76    1
    26    84    85    1
    27    76    77    2
    28    85    86    2
    29    57    56   ar
    30    57    55   ar
    31    56    54   ar
    32    11     9    1
    33    55    53   ar
    34     9    10    1
    35     9     8    2
    36    54    52   ar
    37     8     7    1
    38    53    52   ar
    39    52    51    1
    40     7     6    1
    41    46    44   ar
    42    46    45   ar
    43    44    42   ar
    44    51    48    1
    45    88    89    1
    46    92    89    1
    47    92    93    1
    48    18    17    1
    49    95    97   ar
    50    95    93   ar
    51     6     5    1
    52    34    33    1
    53    47    48    1
    54    45    43   ar
    55    42    41   ar
    56    89    90    1
    57    97    98   ar
    58    93    94   ar
    59    48    49    1
    60    19    17    1
    61     5     2    1
    62    27    26    2
    63    90    91    2
    64    17    16    1
    65    28    26   am
    66    35    33    1
    67    33    30    1
    68    26    25    1
    69    43    41   ar
    70    49    50    2
    71    41    40    1
    72    32    31    2
    73    94    96   ar
    74    98    96   ar
    75     2     3    1
    76     2     1    1
    77    16    13    1
    78    30    31    1
    79    30    29    1
    80     3     4    2
    81    31    36   am
    82    40    37    1
    83    25    24    1
    84    36    37    1
    85    37    38    1
    86    24    21    1
    87    13    12    1
    88    13    14    1
    89    15    14    2
    90    38    39    2
    91    23    22    2
    92    21    22    1
    93    21    20    1
