@<TRIPOS>MOLECULE
tmp/3ie5B03.pdb
 107 102 0 0 0
SMALL
GASTEIGER

@<TRIPOS>ATOM
      1  N          5.1420   -8.5670   36.5580 N.3    26  LYS26      -0.1231
      2  CA         4.9390   -9.7930   37.3240 C.3    26  LYS26       0.1693
      3  C          3.4400  -10.1900   37.2950 C.2    26  LYS26       0.2591
      4  O          3.0780  -11.3500   37.1460 O.2    26  LYS26      -0.2718
      5  CB         5.4130   -9.5900   38.7670 C.3    26  LYS26       0.0285
      6  CG         5.1020  -10.8570   39.5860 C.3    26  LYS26       0.0035
      7  CD         6.2400  -11.2160   40.4680 C.3    26  LYS26       0.0206
      8  CE         6.0170  -12.5850   41.0690 C.3    26  LYS26       0.1093
      9  NZ         6.5150  -12.6340   42.4600 N.3    26  LYS26      -0.1314
     10  N          2.5490   -9.2150   37.4470 N.am   27  ALA27      -0.1980
     11  CA         1.1120   -9.5060   37.5100 C.3    27  ALA27       0.1597
     12  C          0.5760   -9.9200   36.1560 C.2    27  ALA27       0.2287
     13  O         -0.2570  -10.8340   36.0820 O.2    27  ALA27      -0.2864
     14  CB         0.3430   -8.2670   37.9830 C.3    27  ALA27       0.0319
     15  N          3.0620  -14.0270   36.2230 N.3    31  GLU31      -0.1245
     16  CA         2.0720  -14.7420   37.0170 C.3    31  GLU31       0.1567
     17  C          0.6870  -14.5320   36.5190 C.2    31  GLU31       0.2260
     18  O         -0.2420  -14.7400   37.2720 O.2    31  GLU31      -0.2867
     19  CB         2.1180  -14.3480   38.4860 C.3    31  GLU31       0.0388
     20  CG         3.4600  -14.7070   39.1480 C.3    31  GLU31       0.1160
     21  CD         3.7170  -16.1990   39.2750 C.2    31  GLU31       0.3649
     22  OE1        2.7670  -16.9960   39.2340 O.co2  31  GLU31      -0.2457
     23  OE2        4.8820  -16.5800   39.4460 O.co2  31  GLU31      -0.2457
     24  N         -2.0970  -17.1120   37.3600 N.3    34  GLN34      -0.1231
     25  CA        -2.7130  -17.0730   38.7030 C.3    34  GLN34       0.1698
     26  C         -3.5190  -15.7830   38.8860 C.2    34  GLN34       0.2592
     27  O         -4.5780  -15.7960   39.4280 O.2    34  GLN34      -0.2718
     28  CB        -1.6150  -17.1430   39.7950 C.3    34  GLN34       0.0381
     29  CG        -0.8410  -18.4220   39.6890 C.3    34  GLN34       0.0905
     30  CD        -0.1810  -18.7880   40.9880 C.2    34  GLN34       0.2608
     31  OE1       -0.8770  -19.1810   41.9540 O.2    34  GLN34      -0.2717
     32  NE2        1.1780  -18.6910   41.0280 N.am   34  GLN34      -0.0878
     33  N         -2.9870  -14.6610   38.3940 N.am   35  VAL35      -0.1980
     34  CA        -3.6460  -13.3530   38.5840 C.3    35  VAL35       0.1595
     35  C         -5.0120  -13.3330   37.8670 C.2    35  VAL35       0.2287
     36  O         -5.9760  -12.7910   38.4010 O.2    35  VAL35      -0.2864
     37  CB        -2.6930  -12.2220   38.1070 C.3    35  VAL35       0.0276
     38  CG1       -3.3880  -10.8340   38.0170 C.3    35  VAL35       0.0022
     39  CG2       -1.4280  -12.1820   39.0590 C.3    35  VAL35       0.0022
     40  N         -7.5140  -14.9470   40.1630 N.3    38  LYS38      -0.1231
     41  CA        -7.8780  -14.0350   41.2590 C.3    38  LYS38       0.1693
     42  C         -8.8030  -12.9390   40.7700 C.2    38  LYS38       0.2591
     43  O         -9.7660  -12.5310   41.4670 O.2    38  LYS38      -0.2718
     44  CB        -6.6390  -13.4090   41.8860 C.3    38  LYS38       0.0285
     45  CG        -7.0300  -12.6440   43.1430 C.3    38  LYS38       0.0035
     46  CD        -5.8430  -12.1470   43.9090 C.3    38  LYS38       0.0206
     47  CE        -6.2750  -11.5250   45.2490 C.3    38  LYS38       0.1093
     48  NZ        -7.5600  -10.7580   45.1620 N.3    38  LYS38      -0.1314
     49  N         -8.5110  -12.4450   39.5650 N.am   39  ALA39      -0.1980
     50  CA        -9.2780  -11.3410   38.9860 C.3    39  ALA39       0.1597
     51  C        -10.7030  -11.7480   38.5970 C.2    39  ALA39       0.2287
     52  O        -11.6440  -10.9480   38.7370 O.2    39  ALA39      -0.2864
     53  CB        -8.5480  -10.7590   37.7470 C.3    39  ALA39       0.0319
     54  N         -8.3100   -3.9050   35.9660 N.3   151  GLN151     -0.1231
     55  CA        -8.5910   -4.5680   37.2540 C.3   151  GLN151      0.1698
     56  C         -7.2990   -4.7160   38.0570 C.2   151  GLN151      0.2592
     57  O         -7.2400   -4.4560   39.2750 O.2   151  GLN151     -0.2718
     58  CB        -9.0860   -5.9760   37.0210 C.3   151  GLN151      0.0381
     59  CG       -10.5340   -6.1020   36.5860 C.3   151  GLN151      0.0905
     60  CD       -10.9270   -7.5430   36.6220 C.2   151  GLN151      0.2608
     61  OE1      -10.7830   -8.2480   35.6280 O.2   151  GLN151     -0.2717
     62  NE2      -11.3460   -8.0200   37.8040 N.am  151  GLN151     -0.0878
     63  N         -6.2710   -5.1740   37.3500 N.am  152  VAL152     -0.1980
     64  CA        -4.9900   -5.4440   37.9690 C.3   152  VAL152      0.1595
     65  C         -4.3320   -4.1440   38.3840 C.2   152  VAL152      0.2287
     66  O         -3.7990   -4.0300   39.4770 O.2   152  VAL152     -0.2864
     67  CB        -4.0820   -6.2140   37.0020 C.3   152  VAL152      0.0276
     68  CG1       -2.5970   -6.2810   37.5650 C.3   152  VAL152      0.0022
     69  CG2       -4.6910   -7.5810   36.7370 C.3   152  VAL152      0.0022
     70  N         -5.9130   -2.8520   41.5230 N.3   155  TYR155     -0.1227
     71  CA        -5.6330   -3.6650   42.6940 C.3   155  TYR155      0.1736
     72  C         -4.2210   -3.3760   43.1730 C.2   155  TYR155      0.2595
     73  O         -3.9650   -3.2930   44.3950 O.2   155  TYR155     -0.2718
     74  CB        -5.8040   -5.1670   42.3480 C.3   155  TYR155      0.0548
     75  CG        -5.6360   -6.0560   43.5560 C.ar  155  TYR155     -0.0200
     76  CD1       -6.7190   -6.3920   44.3500 C.ar  155  TYR155     -0.0009
     77  CD2       -4.3860   -6.5390   43.9060 C.ar  155  TYR155     -0.0009
     78  CE1       -6.5580   -7.2160   45.4730 C.ar  155  TYR155      0.0417
     79  CE2       -4.2120   -7.3630   44.9900 C.ar  155  TYR155      0.0417
     80  CZ        -5.3070   -7.6900   45.7820 C.ar  155  TYR155      0.1957
     81  OH        -5.1430   -8.5030   46.8840 O.3   155  TYR155     -0.2866
     82  N         -3.2890   -3.1930   42.2330 N.am  156  LEU156     -0.1980
     83  CA        -1.8860   -2.9260   42.6120 C.3   156  LEU156      0.1596
     84  C         -1.7390   -1.5350   43.2340 C.2   156  LEU156      0.2287
     85  O         -0.9470   -1.3210   44.1630 O.2   156  LEU156     -0.2864
     86  CB        -0.9600   -3.0900   41.4040 C.3   156  LEU156      0.0297
     87  CG        -0.9280   -4.5380   40.9050 C.3   156  LEU156      0.0022
     88  CD1       -0.0520   -4.5760   39.6440 C.3   156  LEU156      0.0001
     89  CD2       -0.3380   -5.5130   41.9230 C.3   156  LEU156      0.0001
     90  N          1.8300   -5.5820   47.1740 N.3   162  VAL162     -0.1231
     91  CA         1.7030   -6.7540   46.2910 C.3   162  VAL162      0.1692
     92  C          2.7260   -6.6690   45.1530 C.2   162  VAL162      0.2592
     93  O          2.7180   -5.7240   44.3830 O.2   162  VAL162     -0.2718
     94  CB         0.2820   -6.8650   45.7810 C.3   162  VAL162      0.0266
     95  CG1        0.1710   -8.0110   44.7640 C.3   162  VAL162      0.0020
     96  CG2       -0.7070   -7.1000   46.9670 C.3   162  VAL162      0.0020
     97  N          3.5830   -7.6820   45.0430 N.am  163  PHE163     -0.1976
     98  CA         4.6720   -7.7210   44.0670 C.3   163  PHE163      0.1639
     99  C          5.6430   -6.5570   44.2040 C.2   163  PHE163      0.2290
    100  O          6.3980   -6.2390   43.2700 O.2   163  PHE163     -0.2864
    101  CB         4.1560   -7.7800   42.6080 C.3   163  PHE163      0.0560
    102  CG         3.2430   -8.9330   42.3390 C.ar  163  PHE163     -0.0200
    103  CD1        3.4040  -10.1440   42.9890 C.ar  163  PHE163     -0.0042
    104  CD2        2.1870   -8.7860   41.4430 C.ar  163  PHE163     -0.0042
    105  CE1        2.5530  -11.1950   42.7430 C.ar  163  PHE163     -0.0003
    106  CE2        1.3140   -9.8710   41.1900 C.ar  163  PHE163     -0.0003
    107  CZ         1.5150  -11.0690   41.8310 C.ar  163  PHE163     -0.0000
@<TRIPOS>BOND
     1    61    60    2
     2    54    55    1
     3    13    12    2
     4    12    11    1
     5    15    16    1
     6    17    16    1
     7    17    18    2
     8     1     2    1
     9    59    60    1
    10    59    58    1
    11    60    62   am
    12    69    67    1
    13    67    68    1
    14    67    64    1
    15    16    19    1
    16    58    55    1
    17     4     3    2
    18    55    56    1
    19     3     2    1
    20     3    10   am
    21     2     5    1
    22    63    64    1
    23    63    56   am
    24    24    25    1
    25    10    11    1
    26    11    14    1
    27    53    50    1
    28    35    36    2
    29    35    34    1
    30    64    65    1
    31    38    37    1
    32    56    57    2
    33    37    34    1
    34    37    39    1
    35    65    66    2
    36    33    34    1
    37    33    26   am
    38    19    20    1
    39    51    52    2
    40    51    50    1
    41    25    26    1
    42    25    28    1
    43     5     6    1
    44    26    27    2
    45    50    49    1
    46    20    21    1
    47    22    21   ar
    48    21    23   ar
    49    49    42   am
    50     6     7    1
    51    88    87    1
    52    29    28    1
    53    29    30    1
    54    40    41    1
    55     7     8    1
    56    42    41    1
    57    42    43    2
    58    87    86    1
    59    87    89    1
    60    30    32   am
    61    30    31    2
    62     8     9    1
    63   106   104   ar
    64   106   107   ar
    65    41    44    1
    66    86    83    1
    67   104   102   ar
    68    70    71    1
    69   107   105   ar
    70    44    45    1
    71    82    83    1
    72    82    72   am
    73   102   101    1
    74   102   103   ar
    75    74    71    1
    76    74    75    1
    77   101    98    1
    78    83    84    1
    79    71    72    1
    80   105   103   ar
    81    45    46    1
    82    72    73    2
    83    84    85    2
    84   100    99    2
    85    75    77   ar
    86    75    76   ar
    87    77    79   ar
    88    46    47    1
    89    98    99    1
    90    98    97    1
    91    76    78   ar
    92    93    92    2
    93    95    94    1
    94    79    80   ar
    95    97    92   am
    96    92    91    1
    97    48    47    1
    98    78    80   ar
    99    94    91    1
   100    94    96    1
   101    80    81    1
   102    91    90    1
