@<TRIPOS>MOLECULE
tmp/3ie7A00.pdb
 179 167 0 0 0
SMALL
GASTEIGER

@<TRIPOS>ATOM
      1  N         15.8560   -1.2640    8.8730 N.3    40  LYS40      -0.1245
      2  CA        17.2260   -0.7930    8.7240 C.3    40  LYS40       0.1561
      3  C         18.2870   -1.8780    8.6520 C.2    40  LYS40       0.2260
      4  O         19.2010   -1.8040    7.8290 O.2    40  LYS40      -0.2867
      5  CB        17.5490    0.1760    9.8560 C.3    40  LYS40       0.0271
      6  CG        16.6680    1.4200    9.8430 C.3    40  LYS40       0.0035
      7  CD        17.0690    2.3750   10.9490 C.3    40  LYS40       0.0206
      8  CE        18.5470    2.7150   10.8560 C.3    40  LYS40       0.1093
      9  NZ        19.0170    3.4490   12.0420 N.3    40  LYS40      -0.1314
     10  N         22.7370    1.5370   15.1770 N.3   166  ASP166     -0.1239
     11  CA        22.2550    2.7280   14.4880 C.3   166  ASP166      0.1674
     12  C         20.8100    2.8440   14.9480 C.2   166  ASP166      0.2266
     13  O         19.8860    2.3780   14.2780 O.2   166  ASP166     -0.2867
     14  CB        22.3110    2.5900   12.9660 C.3   166  ASP166      0.1410
     15  CG        21.9500    3.8960   12.2590 C.2   166  ASP166      0.3668
     16  OD1       21.5570    4.8530   12.9620 O.co2 166  ASP166     -0.2456
     17  OD2       22.0560    3.9710   11.0170 O.co2 166  ASP166     -0.2456
     18  N         26.0230    5.8050   14.8880 N.3   183  LYS183     -0.1245
     19  CA        26.0230    6.8280   13.8480 C.3   183  LYS183      0.1561
     20  C         24.7760    7.6850   13.9250 C.2   183  LYS183      0.2260
     21  O         23.8960    7.6050   13.0710 O.2   183  LYS183     -0.2867
     22  CB        26.0920    6.2350   12.4360 C.3   183  LYS183      0.0271
     23  CG        26.2490    7.3380   11.3660 C.3   183  LYS183      0.0035
     24  CD        25.6580    6.9660   10.0140 C.3   183  LYS183      0.0206
     25  CE        24.1340    6.8630   10.0620 C.3   183  LYS183      0.1093
     26  NZ        23.4830    8.1650   10.4410 N.3   183  LYS183     -0.1314
     27  N         22.4780   10.8110   13.3410 N.3   185  ASN185     -0.1240
     28  CA        22.5470   11.8950   12.3730 C.3   185  ASN185      0.1653
     29  C         22.4960   13.1980   13.1670 C.2   185  ASN185      0.2266
     30  O         22.4800   13.1750   14.4010 O.2   185  ASN185     -0.2867
     31  CB        21.4150   11.8280   11.3310 C.3   185  ASN185      0.1155
     32  CG        20.0320   11.9760   11.9330 C.2   185  ASN185      0.2627
     33  OD1       19.8450   12.6220   12.9620 O.2   185  ASN185     -0.2716
     34  ND2       19.0410   11.3930   11.2620 N.am  185  ASN185     -0.0877
     35  N         19.3700   13.1640   15.5970 N.3   188  GLU188     -0.1245
     36  CA        19.4050   12.0700   16.5660 C.3   188  GLU188      0.1567
     37  C         20.4630   12.2370   17.6480 C.2   188  GLU188      0.2260
     38  O         20.2600   11.8230   18.7880 O.2   188  GLU188     -0.2867
     39  CB        19.6440   10.7410   15.8460 C.3   188  GLU188      0.0388
     40  CG        18.6560   10.4550   14.7240 C.3   188  GLU188      0.1160
     41  CD        19.0060    9.2000   13.9530 C.2   188  GLU188      0.3649
     42  OE1       20.2000    9.0180   13.6290 O.co2 188  GLU188     -0.2457
     43  OE2       18.0900    8.4040   13.6600 O.co2 188  GLU188     -0.2457
     44  N         26.6260   11.8830   11.6470 N.3   217  SER217     -0.1217
     45  CA        26.4330   12.2210   10.2410 C.3   217  SER217      0.1889
     46  C         25.6880   13.5420   10.1020 C.2   217  SER217      0.2288
     47  O         24.7670   13.8350   10.8650 O.2   217  SER217     -0.2866
     48  CB        25.7330   11.0810    9.4760 C.3   217  SER217      0.2089
     49  OG        24.4060   10.8510    9.9000 O.3   217  SER217     -0.2183
     50  N         24.3550   14.8360    6.9570 N.3   219  GLY219     -0.1210
     51  CA        23.7420   14.9510    5.6430 C.3   219  GLY219      0.1956
     52  C         24.6970   15.3790    4.5460 C.2   219  GLY219      0.2611
     53  O         25.7750   14.8130    4.3890 O.2   219  GLY219     -0.2717
     54  N         24.2990   16.3930    3.7850 N.am  220  ALA220     -0.1979
     55  CA        25.1130   16.8960    2.6870 C.3   220  ALA220      0.1597
     56  C         26.4560   17.4600    3.1360 C.2   220  ALA220      0.2287
     57  O         27.3750   17.6050    2.3290 O.2   220  ALA220     -0.2864
     58  CB        24.3360   17.9590    1.9150 C.3   220  ALA220      0.0319
     59  N         28.4020   15.9840    5.1380 N.3   222  GLY222     -0.1210
     60  CA        29.3190   14.8820    5.3570 C.3   222  GLY222      0.1956
     61  C         29.1480   14.3210    6.7530 C.2   222  GLY222      0.2612
     62  O         28.0390   13.9650    7.1450 O.2   222  GLY222     -0.2717
     63  N         30.2410   14.2440    7.5070 N.am  223  SER223     -0.1952
     64  CA        30.1770   13.7150    8.8610 C.3   223  SER223      0.1924
     65  C         31.4190   14.1010    9.6550 C.2   223  SER223      0.2314
     66  O         32.3660   14.6760    9.1160 O.2   223  SER223     -0.2863
     67  CB        30.0650   12.1830    8.8070 C.3   223  SER223      0.2116
     68  OG        31.1830   11.6050    8.1390 O.3   223  SER223     -0.2180
     69  N         31.9070   15.1980    1.5820 N.3   236  PRO236     -0.2103
     70  CA        31.6730   14.4970    0.3210 C.3   236  PRO236      0.1489
     71  C         31.7460   15.4220   -0.8800 C.2   236  PRO236      0.2418
     72  O         31.6710   16.6400   -0.7400 O.2   236  PRO236     -0.2734
     73  CB        30.2590   13.9690    0.4910 C.3   236  PRO236      0.0282
     74  CG        29.5950   15.1120    1.1880 C.3   236  PRO236      0.0208
     75  CD        30.6280   15.5350    2.2380 C.3   236  PRO236      0.0893
     76  N         31.9200   14.8490   -2.0740 N.am  237  PRO237     -0.2718
     77  CA        31.9650   15.6880   -3.2700 C.3   237  PRO237      0.1535
     78  C         30.5040   16.0930   -3.4640 C.2   237  PRO237      0.2598
     79  O         29.6080   15.4510   -2.9110 O.2   237  PRO237     -0.2715
     80  CB        32.4410   14.7220   -4.3510 C.3   237  PRO237      0.0310
     81  CG        31.9060   13.3870   -3.8640 C.3   237  PRO237      0.0237
     82  CD        32.2560   13.4520   -2.4000 C.3   237  PRO237      0.0939
     83  N         30.2560   17.1500   -4.2220 N.am  238  LYS238     -0.1964
     84  CA        28.8840   17.5890   -4.4550 C.3   238  LYS238      0.1728
     85  C         28.2290   16.7160   -5.5100 C.2   238  LYS238      0.2616
     86  O         28.7850   16.5120   -6.5860 O.2   238  LYS238     -0.2715
     87  CB        28.8620   19.0430   -4.9270 C.3   238  LYS238      0.0311
     88  CG        29.6080   19.9730   -4.0110 C.3   238  LYS238      0.0038
     89  CD        29.2750   21.4090   -4.3080 C.3   238  LYS238      0.0206
     90  CE        29.9080   22.3040   -3.2710 C.3   238  LYS238      0.1093
     91  NZ        29.0040   23.4250   -2.9020 N.3   238  LYS238     -0.1314
     92  N         27.0480   16.1940   -5.1950 N.am  239  VAL239     -0.1977
     93  CA        26.3200   15.3560   -6.1390 C.3   239  VAL239      0.1596
     94  C         24.8910   15.8590   -6.2830 C.2   239  VAL239      0.2287
     95  O         24.3780   16.5680   -5.4150 O.2   239  VAL239     -0.2864
     96  CB        26.2770   13.8700   -5.6920 C.3   239  VAL239      0.0276
     97  CG1       27.6840   13.2910   -5.6720 C.3   239  VAL239      0.0022
     98  CG2       25.6270   13.7530   -4.3160 C.3   239  VAL239      0.0022
     99  N         21.4240   15.5280   -5.7790 N.3   241  GLU241     -0.1245
    100  CA        20.5550   14.7670   -4.8940 C.3   241  GLU241      0.1567
    101  C         19.1960   14.4900   -5.5270 C.2   241  GLU241      0.2260
    102  O         18.6160   15.3550   -6.1840 O.2   241  GLU241     -0.2867
    103  CB        20.3670   15.5190   -3.5680 C.3   241  GLU241      0.0388
    104  CG        19.3310   14.9010   -2.6360 C.3   241  GLU241      0.1160
    105  CD        19.3230   15.5320   -1.2510 C.2   241  GLU241      0.3649
    106  OE1       20.3180   15.3700   -0.5100 O.co2 241  GLU241     -0.2457
    107  OE2       18.3200   16.1900   -0.9010 O.co2 241  GLU241     -0.2457
    108  N         17.6190   11.3830   -0.5360 N.3   244  ASP244     -0.1225
    109  CA        18.6020   11.0850    0.4950 C.3   244  ASP244      0.1805
    110  C         18.1170   10.0920    1.5420 C.2   244  ASP244      0.2598
    111  O         18.7900    9.8670    2.5470 O.2   244  ASP244     -0.2718
    112  CB        19.0780   12.3750    1.1750 C.3   244  ASP244      0.1424
    113  CG        17.9450   13.1750    1.7840 C.2   244  ASP244      0.3668
    114  OD1       18.2070   14.3200    2.2130 O.co2 244  ASP244     -0.2456
    115  OD2       16.8020   12.6690    1.8430 O.co2 244  ASP244     -0.2456
    116  N         16.9510    9.4980    1.3110 N.am  245  THR245     -0.1939
    117  CA        16.4280    8.5110    2.2440 C.3   245  THR245      0.2028
    118  C         17.3040    7.2750    2.1060 C.2   245  THR245      0.2643
    119  O         17.5700    6.8180    0.9960 O.2   245  THR245     -0.2714
    120  CB        14.9830    8.1090    1.9040 C.3   245  THR245      0.1808
    121  OG1       14.1570    9.2780    1.8760 O.3   245  THR245     -0.2208
    122  CG2       14.4440    7.1360    2.9490 C.3   245  THR245      0.0379
    123  N         17.7570    6.7360    3.2310 N.am  246  GLY246     -0.1939
    124  CA        18.5970    5.5550    3.1810 C.3   246  GLY246      0.2014
    125  C         20.0820    5.8520    3.0740 C.2   246  GLY246      0.2639
    126  O         20.8890    4.9250    3.0760 O.2   246  GLY246     -0.2714
    127  N         20.4550    7.1270    2.9680 N.am  247  ALA247     -0.1963
    128  CA        21.8690    7.4790    2.8670 C.3   247  ALA247      0.1728
    129  C         22.6130    6.9700    4.0980 C.2   247  ALA247      0.2617
    130  O         23.7430    6.5020    3.9980 O.2   247  ALA247     -0.2715
    131  CB        22.0410    8.9900    2.7440 C.3   247  ALA247      0.0334
    132  N         21.9650    7.0670    5.2550 N.am  248  GLY248     -0.1940
    133  CA        22.5740    6.6140    6.4930 C.3   248  GLY248      0.2014
    134  C         22.7720    5.1100    6.5410 C.2   248  GLY248      0.2638
    135  O         23.8020    4.6430    7.0190 O.2   248  GLY248     -0.2714
    136  N         21.7960    4.3490    6.0540 N.am  249  ASP249     -0.1971
    137  CA        21.9040    2.8930    6.0490 C.3   249  ASP249      0.1709
    138  C         23.0510    2.4450    5.1460 C.2   249  ASP249      0.2293
    139  O         23.7780    1.5050    5.4660 O.2   249  ASP249     -0.2864
    140  CB        20.5930    2.2540    5.5810 C.3   249  ASP249      0.1436
    141  CG        19.4070    2.6690    6.4330 C.2   249  ASP249      0.3671
    142  OD1       19.6090    2.9460    7.6330 O.co2 249  ASP249     -0.2456
    143  OD2       18.2740    2.7090    5.9070 O.co2 249  ASP249     -0.2456
    144  N         25.6620    4.3000    4.4090 N.3   251  PHE251     -0.1241
    145  CA        26.8910    4.7100    5.0840 C.3   251  PHE251      0.1605
    146  C         27.2910    3.6350    6.1010 C.2   251  PHE251      0.2264
    147  O         28.4390    3.1930    6.1310 O.2   251  PHE251     -0.2867
    148  CB        26.6870    6.0390    5.8220 C.3   251  PHE251      0.0534
    149  CG        27.9400    6.5820    6.4580 C.ar  251  PHE251     -0.0203
    150  CD1       28.6970    7.5510    5.8080 C.ar  251  PHE251     -0.0042
    151  CD2       28.3720    6.1170    7.6970 C.ar  251  PHE251     -0.0042
    152  CE1       29.8660    8.0510    6.3840 C.ar  251  PHE251     -0.0003
    153  CE2       29.5400    6.6090    8.2810 C.ar  251  PHE251     -0.0003
    154  CZ        30.2890    7.5790    7.6210 C.ar  251  PHE251     -0.0000
    155  N         31.4320    7.3370    2.6800 N.3   271  THR271     -0.1218
    156  CA        30.9530    8.5890    2.1300 C.3   271  THR271      0.1862
    157  C         30.6830    8.4590    0.6290 C.2   271  THR271      0.2287
    158  O         29.6860    8.9780    0.1290 O.2   271  THR271     -0.2866
    159  CB        31.9690    9.7050    2.4320 C.3   271  THR271      0.1770
    160  OG1       32.1140    9.8150    3.8550 O.3   271  THR271     -0.2211
    161  CG2       31.4920   11.0420    1.8780 C.3   271  THR271      0.0375
    162  N         27.3760    6.3900    0.2040 N.3   274  SER274     -0.1202
    163  CA        26.1910    7.1460    0.5750 C.3   274  SER274      0.2020
    164  C         25.9460    8.2940   -0.4070 C.2   274  SER274      0.2618
    165  O         24.8030    8.6530   -0.6680 O.2   274  SER274     -0.2717
    166  CB        26.3070    7.6540    2.0200 C.3   274  SER274      0.2103
    167  OG        27.4760    8.4250    2.2180 O.3   274  SER274     -0.2182
    168  N         27.0100    8.8650   -0.9660 N.am  275  ALA275     -0.1979
    169  CA        26.8290    9.9380   -1.9410 C.3   275  ALA275      0.1597
    170  C         26.1410    9.3470   -3.1760 C.2   275  ALA275      0.2287
    171  O         25.2500    9.9660   -3.7590 O.2   275  ALA275     -0.2864
    172  CB        28.1830   10.5550   -2.3190 C.3   275  ALA275      0.0319
    173  N         22.3190    8.8830   -2.5710 N.3   278  VAL278     -0.1245
    174  CA        21.5210   10.1000   -2.6560 C.3   278  VAL278      0.1561
    175  C         21.1980   10.4850   -4.0980 C.2   278  VAL278      0.2260
    176  O         20.2620   11.2410   -4.3550 O.2   278  VAL278     -0.2867
    177  CB        22.2440   11.2640   -1.9340 C.3   278  VAL278      0.0252
    178  CG1       21.4370   12.5390   -2.0410 C.3   278  VAL278      0.0019
    179  CG2       22.4460   10.9050   -0.4590 C.3   278  VAL278      0.0019
@<TRIPOS>BOND
     1    86    85    2
     2    94    93    1
     3    94    95    2
     4   102   101    2
     5    93    96    1
     6    93    92    1
     7    99   100    1
     8    96    97    1
     9    96    98    1
    10   101   100    1
    11    85    92   am
    12    85    84    1
    13    87    84    1
    14    87    88    1
    15   100   103    1
    16    84    83    1
    17   176   175    2
    18    80    81    1
    19    80    77    1
    20    89    88    1
    21    89    90    1
    22    83    78   am
    23   175   174    1
    24    81    82    1
    25   171   170    2
    26   103   104    1
    27    78    77    1
    28    78    79    2
    29    90    91    1
    30    77    76    1
    31   170   169    1
    32   174   173    1
    33   174   177    1
    34   104   105    1
    35    82    76    1
    36   172   169    1
    37    76    71   am
    38   178   177    1
    39   169   168    1
    40   177   179    1
    41   105   107   ar
    42   105   106   ar
    43   168   164   am
    44    71    72    2
    45    71    70    1
    46   165   164    2
    47   108   109    1
    48   164   163    1
    49   158   157    2
    50   162   163    1
    51    70    73    1
    52    70    69    1
    53    73    74    1
    54   109   112    1
    55   109   110    1
    56   163   166    1
    57   157   156    1
    58   119   118    2
    59   112   113    1
    60    74    75    1
    61   116   110   am
    62   116   117    1
    63   110   111    2
    64    69    75    1
    65   113   115   ar
    66   113   114   ar
    67   121   120    1
    68   161   159    1
    69   120   117    1
    70   120   122    1
    71    58    55    1
    72   166   167    1
    73   118   117    1
    74   118   123   am
    75   156   159    1
    76   156   155    1
    77    57    56    2
    78   159   160    1
    79    55    56    1
    80    55    54    1
    81   131   128    1
    82   128   127    1
    83   128   129    1
    84   127   125   am
    85   125   126    2
    86   125   124    1
    87   124   123    1
    88    54    52   am
    89   130   129    2
    90   129   132   am
    91    53    52    2
    92   144   145    1
    93    52    51    1
    94   145   148    1
    95   145   146    1
    96    59    60    1
    97   138   139    2
    98   138   137    1
    99   132   133    1
   100    60    61    1
   101   140   137    1
   102   140   141    1
   103    51    50    1
   104   150   152   ar
   105   150   149   ar
   106   148   149    1
   107   143   141   ar
   108   137   136    1
   109   136   134   am
   110   146   147    2
   111   152   154   ar
   112   141   142   ar
   113   149   151   ar
   114   133   134    1
   115   134   135    2
   116    61    62    2
   117    61    63   am
   118    63    64    1
   119   154   153   ar
   120   151   153   ar
   121     4     3    2
   122    68    67    1
   123     3     2    1
   124     2     1    1
   125     2     5    1
   126    67    64    1
   127    64    65    1
   128    66    65    2
   129    48    49    1
   130    48    45    1
   131     6     5    1
   132     6     7    1
   133    24    25    1
   134    24    23    1
   135    25    26    1
   136    46    45    1
   137    46    47    2
   138    45    44    1
   139     8     7    1
   140     8     9    1
   141    17    15   ar
   142    34    32   am
   143    31    32    1
   144    31    28    1
   145    23    22    1
   146    32    33    2
   147    15    16   ar
   148    15    14    1
   149    28    29    1
   150    28    27    1
   151    22    19    1
   152    14    11    1
   153    21    20    2
   154    29    30    2
   155    42    41   ar
   156    43    41   ar
   157    19    20    1
   158    19    18    1
   159    41    40    1
   160    13    12    2
   161    11    12    1
   162    11    10    1
   163    40    39    1
   164    35    36    1
   165    39    36    1
   166    36    37    1
   167    37    38    2
