@<TRIPOS>MOLECULE
tmp/3iedA00.pdb
 168 159 0 0 0
SMALL
GASTEIGER

@<TRIPOS>ATOM
      1  N         26.6230   28.3960   19.0320 N.3    41  GLU41      -0.1231
      2  CA        27.2220   29.6540   18.6480 C.3    41  GLU41       0.1699
      3  C         26.1410   30.6530   18.2240 C.2    41  GLU41       0.2592
      4  O         26.1840   31.8220   18.6030 O.2    41  GLU41      -0.2718
      5  CB        28.2500   29.4340   17.5340 C.3    41  GLU41       0.0402
      6  CG        29.4630   28.5860   17.9570 C.3    41  GLU41       0.1161
      7  CD        30.1430   29.1400   19.1880 C.2    41  GLU41       0.3649
      8  OE1       30.6330   30.2790   19.1280 O.co2  41  GLU41      -0.2457
      9  OE2       30.1720   28.4500   20.2230 O.co2  41  GLU41      -0.2457
     10  N         25.1650   30.2000   17.4460 N.am   42  LEU42      -0.1980
     11  CA        24.1280   31.1160   16.9620 C.3    42  LEU42       0.1596
     12  C         23.2000   31.5670   18.0880 C.2    42  LEU42       0.2287
     13  O         22.7270   32.7060   18.1000 O.2    42  LEU42      -0.2864
     14  CB        23.3080   30.4660   15.8470 C.3    42  LEU42       0.0297
     15  CG        24.0850   30.0390   14.6010 C.3    42  LEU42       0.0022
     16  CD1       23.1550   29.4470   13.5600 C.3    42  LEU42       0.0001
     17  CD2       24.8750   31.2070   14.0140 C.3    42  LEU42       0.0001
     18  N         24.9740   34.2390   19.9900 N.3    45  ASN45      -0.1225
     19  CA        24.9110   35.5300   19.3090 C.3    45  ASN45       0.1785
     20  C         23.5220   36.1620   19.4170 C.2    45  ASN45       0.2597
     21  O         23.3750   37.3790   19.5040 O.2    45  ASN45      -0.2718
     22  CB        25.2780   35.3850   17.8350 C.3    45  ASN45       0.1169
     23  CG        26.7650   35.1490   17.6190 C.2    45  ASN45       0.2627
     24  OD1       27.5620   35.2250   18.5610 O.2    45  ASN45      -0.2716
     25  ND2       27.1450   34.8390   16.3790 N.am   45  ASN45      -0.0877
     26  N         22.4990   35.3270   19.4110 N.am   46  ALA46      -0.1979
     27  CA        21.1330   35.8260   19.4890 C.3    46  ALA46       0.1597
     28  C         20.8820   36.4120   20.8820 C.2    46  ALA46       0.2287
     29  O         20.2330   37.4440   21.0370 O.2    46  ALA46      -0.2864
     30  CB        20.1750   34.7190   19.1920 C.3    46  ALA46       0.0319
     31  N         23.2680   37.6440   22.9710 N.3    48  ASP48      -0.1225
     32  CA        24.0010   38.9030   23.0060 C.3    48  ASP48       0.1805
     33  C         23.2140   40.0030   22.3080 C.2    48  ASP48       0.2597
     34  O         23.1400   41.1260   22.8040 O.2    48  ASP48      -0.2718
     35  CB        25.3640   38.7740   22.3230 C.3    48  ASP48       0.1424
     36  CG        26.2840   37.8040   23.0260 C.2    48  ASP48       0.3668
     37  OD1       26.0700   37.5150   24.2200 O.co2  48  ASP48      -0.2456
     38  OD2       27.2320   37.3270   22.3690 O.co2  48  ASP48      -0.2456
     39  N         22.6400   39.6820   21.1520 N.am   49  ALA49      -0.1979
     40  CA        21.8740   40.6660   20.3870 C.3    49  ALA49       0.1597
     41  C         20.6650   41.1770   21.1640 C.2    49  ALA49       0.2287
     42  O         20.3010   42.3410   21.0280 O.2    49  ALA49      -0.2864
     43  CB        21.4310   40.0910   19.0440 C.3    49  ALA49       0.0319
     44  N         22.0530   43.4540   24.0340 N.3    52  LYS52      -0.1245
     45  CA        22.4040   44.7500   23.4910 C.3    52  LYS52       0.1561
     46  C         21.1540   45.6000   23.2960 C.2    52  LYS52       0.2260
     47  O         21.1280   46.7770   23.6630 O.2    52  LYS52      -0.2867
     48  CB        23.1490   44.5740   22.1770 C.3    52  LYS52       0.0271
     49  CG        23.6140   45.8640   21.5630 C.3    52  LYS52       0.0035
     50  CD        24.5780   45.6050   20.4290 C.3    52  LYS52       0.0206
     51  CE        24.9870   46.9190   19.7790 C.3    52  LYS52       0.1093
     52  NZ        25.8040   46.6810   18.5700 N.3    52  LYS52      -0.1314
     53  N         16.1010   36.1110   16.1270 N.3    91  ASP91      -0.1239
     54  CA        15.9880   36.8750   17.3460 C.3    91  ASP91       0.1674
     55  C         15.3180   38.2060   17.0320 C.2    91  ASP91       0.2266
     56  O         15.3100   38.6590   15.8840 O.2    91  ASP91      -0.2867
     57  CB        17.3640   37.0830   17.9850 C.3    91  ASP91       0.1410
     58  CG        18.2580   37.9950   17.1700 C.2    91  ASP91       0.3668
     59  OD1       17.9470   39.1950   17.0750 O.co2  91  ASP91      -0.2456
     60  OD2       19.2880   37.5150   16.6390 O.co2  91  ASP91      -0.2456
     61  N         18.9770   43.3650   18.6210 N.3    94  ILE94      -0.1231
     62  CA        19.3920   44.6650   18.1230 C.3    94  ILE94       0.1692
     63  C         19.3500   44.7530   16.6030 C.2    94  ILE94       0.2593
     64  O         19.0510   45.8070   16.0540 O.2    94  ILE94      -0.2718
     65  CB        20.8140   45.0110   18.6230 C.3    94  ILE94       0.0266
     66  CG1       21.1890   46.4470   18.2470 C.3    94  ILE94       0.0019
     67  CG2       21.8210   44.0170   18.0680 C.3    94  ILE94       0.0020
     68  CD1       20.3200   47.5080   18.9000 C.3    94  ILE94       0.0001
     69  N         19.6410   43.6500   15.9230 N.am   95  GLY95      -0.1942
     70  CA        19.7830   43.6700   14.4690 C.3    95  GLY95       0.2014
     71  C         21.0750   44.3400   14.0100 C.2    95  GLY95       0.2638
     72  O         21.8620   44.8180   14.8360 O.2    95  GLY95      -0.2714
     73  N         21.2940   44.3730   12.6930 N.am   96  MET96      -0.1976
     74  CA        22.4530   45.0520   12.1070 C.3    96  MET96       0.1605
     75  C         22.0490   45.9070   10.9020 C.2    96  MET96       0.2287
     76  O         21.1540   45.5320   10.1450 O.2    96  MET96      -0.2864
     77  CB        23.4860   44.0310   11.6370 C.3    96  MET96       0.0413
     78  CG        24.1590   43.2450   12.7390 C.3    96  MET96       0.0598
     79  SD        25.1070   41.8800   12.0580 S.3    96  MET96      -0.1393
     80  CE        23.8450   40.6390   11.7760 C.3    96  MET96       0.0692
     81  N         30.9560   43.5080   10.1050 N.3   104  ASN104     -0.1225
     82  CA        30.8870   42.4950   11.1620 C.3   104  ASN104      0.1785
     83  C         30.9030   41.0650   10.6280 C.2   104  ASN104      0.2597
     84  O         31.7590   40.2640   11.0030 O.2   104  ASN104     -0.2718
     85  CB        29.6340   42.6900   12.0130 C.3   104  ASN104      0.1169
     86  CG        29.6950   43.9410   12.8580 C.2   104  ASN104      0.2627
     87  OD1       30.7070   44.6560   12.8630 O.2   104  ASN104     -0.2716
     88  ND2       28.6090   44.2200   13.5820 N.am  104  ASN104     -0.0877
     89  N         29.9470   40.7430    9.7660 N.am  105  LEU105     -0.1980
     90  CA        29.8510   39.3980    9.2110 C.3   105  LEU105      0.1596
     91  C         30.7840   39.1990    8.0330 C.2   105  LEU105      0.2287
     92  O         31.0920   38.0680    7.6710 O.2   105  LEU105     -0.2864
     93  CB        28.4280   39.1160    8.7480 C.3   105  LEU105      0.0297
     94  CG        27.4630   38.5490    9.7750 C.3   105  LEU105      0.0022
     95  CD1       26.3860   37.8130    9.0250 C.3   105  LEU105      0.0001
     96  CD2       28.1730   37.6240   10.7410 C.3   105  LEU105      0.0001
     97  N         37.4320   36.3900   12.9250 N.3   110  GLN110     -0.1231
     98  CA        36.9010   37.0590   14.1090 C.3   110  GLN110      0.1698
     99  C         37.8840   36.8740   15.2460 C.2   110  GLN110      0.2593
    100  O         39.0610   36.6130   15.0180 O.2   110  GLN110     -0.2718
    101  CB        35.5410   36.4820   14.5150 C.3   110  GLN110      0.0381
    102  CG        34.3840   36.9530   13.6470 C.3   110  GLN110      0.0905
    103  CD        34.3270   38.4680   13.5110 C.2   110  GLN110      0.2608
    104  OE1       34.3300   39.1940   14.5100 O.2   110  GLN110     -0.2717
    105  NE2       34.2630   38.9530   12.2710 N.am  110  GLN110     -0.0878
    106  N         37.3950   37.0010   16.4740 N.am  111  SER111     -0.1938
    107  CA        38.2410   36.8380   17.6380 C.3   111  SER111      0.2055
    108  C         38.5510   35.3550   17.8630 C.2   111  SER111      0.2643
    109  O         39.7160   34.9550   17.9190 O.2   111  SER111     -0.2714
    110  CB        37.5600   37.4500   18.8650 C.3   111  SER111      0.2130
    111  OG        38.1420   36.9750   20.0660 O.3   111  SER111     -0.2179
    112  N         37.5030   34.5440   17.9780 N.am  112  GLY112     -0.1954
    113  CA        37.6600   33.1180   18.2520 C.3   112  GLY112      0.1869
    114  C         38.2480   32.3450   17.0850 C.2   112  GLY112      0.2309
    115  O         39.0930   31.4700   17.2700 O.2   112  GLY112     -0.2863
    116  N         35.1770   29.2340   20.3640 N.3   134  GLY134     -0.1210
    117  CA        33.9030   29.9170   20.1570 C.3   134  GLY134      0.1956
    118  C         34.0270   30.7220   18.8890 C.2   134  GLY134      0.2612
    119  O         34.2870   31.9210   18.9310 O.2   134  GLY134     -0.2717
    120  N         33.8810   30.0580   17.7530 N.am  135  VAL135     -0.1965
    121  CA        34.1830   30.6960   16.4890 C.3   135  VAL135      0.1727
    122  C         33.0050   31.5450   15.9990 C.2   135  VAL135      0.2617
    123  O         33.1450   32.3570   15.0930 O.2   135  VAL135     -0.2715
    124  CB        34.6040   29.6600   15.4440 C.3   135  VAL135      0.0290
    125  CG1       35.8070   28.8830   15.9530 C.3   135  VAL135      0.0023
    126  CG2       33.4610   28.7300   15.1390 C.3   135  VAL135      0.0023
    127  N         31.8480   31.3690   16.6220 N.am  136  GLY136     -0.1940
    128  CA        30.6950   32.1980   16.3040 C.3   136  GLY136      0.2014
    129  C         29.9730   31.8340   15.0190 C.2   136  GLY136      0.2639
    130  O         29.9060   30.6720   14.6320 O.2   136  GLY136     -0.2714
    131  N         29.4450   32.8650   14.3690 N.am  137  PHE137     -0.1959
    132  CA        28.5510   32.7430   13.2240 C.3   137  PHE137      0.1771
    133  C         29.0080   31.7690   12.1450 C.2   137  PHE137      0.2619
    134  O         28.2270   30.9300   11.6860 O.2   137  PHE137     -0.2715
    135  CB        28.3440   34.1270   12.6040 C.3   137  PHE137      0.0574
    136  CG        27.6450   34.0930   11.2850 C.ar  137  PHE137     -0.0200
    137  CD1       26.2770   33.8790   11.2210 C.ar  137  PHE137     -0.0042
    138  CD2       28.3480   34.2590   10.1100 C.ar  137  PHE137     -0.0042
    139  CE1       25.6250   33.8350   10.0100 C.ar  137  PHE137     -0.0003
    140  CE2       27.7000   34.2150    8.8940 C.ar  137  PHE137     -0.0003
    141  CZ        26.3400   34.0100    8.8410 C.ar  137  PHE137     -0.0000
    142  N         30.2600   31.8690   11.7310 N.am  138  TYR138     -0.1974
    143  CA        30.7260   31.0610   10.6100 C.3   138  TYR138      0.1639
    144  C         30.7060   29.5580   10.8950 C.2   138  TYR138      0.2290
    145  O         30.8520   28.7560    9.9720 O.2   138  TYR138     -0.2864
    146  CB        32.1030   31.5430   10.1140 C.3   138  TYR138      0.0560
    147  CG        31.9700   32.7620    9.2140 C.ar  138  TYR138     -0.0198
    148  CD1       32.0170   34.0460    9.7390 C.ar  138  TYR138     -0.0009
    149  CD2       31.7440   32.6250    7.8460 C.ar  138  TYR138     -0.0009
    150  CE1       31.8750   35.1670    8.9220 C.ar  138  TYR138      0.0417
    151  CE2       31.6010   33.7380    7.0220 C.ar  138  TYR138      0.0417
    152  CZ        31.6660   35.0070    7.5700 C.ar  138  TYR138      0.1957
    153  OH        31.5250   36.1160    6.7650 O.3   138  TYR138     -0.2866
    154  N         17.1360   39.6420   13.7550 N.3   186  THR186     -0.1218
    155  CA        17.9820   38.9660   12.7970 C.3   186  THR186      0.1862
    156  C         17.4750   37.5490   12.5810 C.2   186  THR186      0.2287
    157  O         17.2300   36.8170   13.5370 O.2   186  THR186     -0.2866
    158  CB        19.4240   38.9580   13.2850 C.3   186  THR186      0.1770
    159  OG1       19.8780   40.3100   13.4140 O.3   186  THR186     -0.2211
    160  CG2       20.3130   38.2120   12.3300 C.3   186  THR186      0.0375
    161  N         18.3430   34.0420   10.6520 N.3   188  ILE188     -0.1245
    162  CA        19.4140   33.2840   10.0150 C.3   188  ILE188      0.1561
    163  C         18.8980   31.9770    9.4350 C.2   188  ILE188      0.2260
    164  O         18.4370   31.1010   10.1600 O.2   188  ILE188     -0.2867
    165  CB        20.5380   32.9940   11.0070 C.3   188  ILE188      0.0252
    166  CG1       21.1420   34.3190   11.4750 C.3   188  ILE188      0.0019
    167  CG2       21.6010   32.1070   10.3600 C.3   188  ILE188      0.0019
    168  CD1       22.1900   34.1840   12.5260 C.3   188  ILE188      0.0001
@<TRIPOS>BOND
     1   153   152    1
     2   151   152   ar
     3   151   149   ar
     4   152   150   ar
     5    92    91    2
     6   149   147   ar
     7    91    90    1
     8    93    90    1
     9    93    94    1
    10   141   140   ar
    11   141   139   ar
    12   140   138   ar
    13   150   148   ar
    14    95    94    1
    15    90    89    1
    16   147   148   ar
    17   147   146    1
    18   163   162    1
    19   163   164    2
    20    89    83   am
    21    94    96    1
    22   145   144    2
    23   139   137   ar
    24   162   161    1
    25   162   165    1
    26    81    82    1
    27   138   136   ar
    28   146   143    1
    29    76    75    2
    30   167   165    1
    31   143   144    1
    32   143   142    1
    33    83    84    2
    34    83    82    1
    35    75    74    1
    36   165   166    1
    37    82    85    1
    38   137   136   ar
    39   136   135    1
    40   166   168    1
    41    77    74    1
    42    77    78    1
    43   134   133    2
    44   142   133   am
    45    80    79    1
    46    85    86    1
    47    79    78    1
    48    74    73    1
    49   133   132    1
    50   105   103   am
    51   160   158    1
    52   156   155    1
    53   156   157    2
    54   135   132    1
    55    73    71   am
    56   155   158    1
    57   155   154    1
    58    86    87    2
    59    86    88   am
    60    97    98    1
    61   132   131    1
    62   158   159    1
    63   103   102    1
    64   103   104    2
    65    16    15    1
    66   102   101    1
    67    71    70    1
    68    71    72    2
    69    17    15    1
    70    98   101    1
    71    98    99    1
    72   131   129   am
    73    70    69    1
    74    15    14    1
    75   130   129    2
    76   100    99    2
    77   129   128    1
    78   123   122    2
    79   126   124    1
    80    99   106   am
    81   124   125    1
    82   124   121    1
    83    14    11    1
    84    56    55    2
    85    69    63   am
    86   122   121    1
    87   122   127   am
    88    64    63    2
    89    53    54    1
    90   128   127    1
    91    25    23   am
    92   106   107    1
    93   121   120    1
    94    63    62    1
    95    60    58   ar
    96    11    10    1
    97    11    12    1
    98    55    54    1
    99    59    58   ar
   100   114   115    2
   101   114   113    1
   102    58    57    1
   103    54    57    1
   104    10     3   am
   105     5     6    1
   106     5     2    1
   107    23    22    1
   108    23    24    2
   109   107   108    1
   110   107   110    1
   111   120   118   am
   112    22    19    1
   113   108   109    2
   114   108   112   am
   115     6     7    1
   116   112   113    1
   117    67    65    1
   118    12    13    2
   119    62    61    1
   120    62    65    1
   121     3     4    2
   122     3     2    1
   123    66    65    1
   124    66    68    1
   125    52    51    1
   126     2     1    1
   127   110   111    1
   128   118   119    2
   129   118   117    1
   130    43    40    1
   131     8     7   ar
   132     7     9   ar
   133    30    27    1
   134    19    20    1
   135    19    18    1
   136    26    20   am
   137    26    27    1
   138    20    21    2
   139    27    28    1
   140    51    50    1
   141   117   116    1
   142    40    39    1
   143    40    41    1
   144    50    49    1
   145    28    29    2
   146    42    41    2
   147    39    33   am
   148    49    48    1
   149    48    45    1
   150    33    34    2
   151    33    32    1
   152    35    32    1
   153    35    36    1
   154    38    36   ar
   155    31    32    1
   156    36    37   ar
   157    46    45    1
   158    46    47    2
   159    45    44    1
