@<TRIPOS>MOLECULE
tmp/3iehA03.pdb
 88 89 0 0 0
SMALL
GASTEIGER

@<TRIPOS>ATOM
      1  N         -1.3630   41.5650   10.3460 N.3     6  SER6       -0.1202
      2  CA        -0.9020   40.2440   10.0700 C.3     6  SER6        0.2020
      3  C         -1.0240   39.9280    8.5770 C.2     6  SER6        0.2619
      4  O         -2.0970   40.0940    7.9750 O.2     6  SER6       -0.2717
      5  CB        -1.7270   39.2680   10.9120 C.3     6  SER6        0.2103
      6  OG        -1.3140   37.9410   10.6740 O.3     6  SER6       -0.2182
      7  N          0.0880   39.4760    7.9960 N.am    7  PHE7       -0.1961
      8  CA         0.1770   39.0960    6.5910 C.3     7  PHE7        0.1771
      9  C          0.5640   37.6380    6.4850 C.2     7  PHE7        0.2619
     10  O          1.5380   37.1920    7.0900 O.2     7  PHE7       -0.2715
     11  CB         1.2350   39.9180    5.8800 C.3     7  PHE7        0.0574
     12  CG         0.9110   41.3860    5.7800 C.ar    7  PHE7       -0.0200
     13  CD1        1.2160   42.2590    6.8180 C.ar    7  PHE7       -0.0042
     14  CD2        0.3300   41.9000    4.6330 C.ar    7  PHE7       -0.0042
     15  CE1        0.9200   43.6020    6.7180 C.ar    7  PHE7       -0.0003
     16  CE2        0.0290   43.2580    4.5280 C.ar    7  PHE7       -0.0003
     17  CZ         0.3290   44.1040    5.5650 C.ar    7  PHE7       -0.0000
     18  N         -0.1770   36.8970    5.6780 N.am    8  GLN8       -0.1963
     19  CA         0.0580   35.4930    5.5290 C.3     8  GLN8        0.1733
     20  C         -0.1510   35.1120    4.0800 C.2     8  GLN8        0.2616
     21  O         -1.1170   35.5680    3.4840 O.2     8  GLN8       -0.2715
     22  CB        -0.9230   34.7460    6.4200 C.3     8  GLN8        0.0408
     23  CG        -0.8500   33.2490    6.2390 C.3     8  GLN8        0.0908
     24  CD        -1.7790   32.5340    7.1480 C.2     8  GLN8        0.2608
     25  OE1       -1.4710   32.2980    8.3180 O.2     8  GLN8       -0.2717
     26  NE2       -2.9220   32.1510    6.6130 N.am    8  GLN8       -0.0878
     27  N          0.7400   34.2800    3.5290 N.am    9  TRP9       -0.1974
     28  CA         0.6620   33.8240    2.1250 C.3     9  TRP9        0.1640
     29  C          0.7870   32.3150    2.0430 C.2     9  TRP9        0.2290
     30  O          1.3640   31.6860    2.9270 O.2     9  TRP9       -0.2864
     31  CB         1.8070   34.4300    1.2920 C.3     9  TRP9        0.0576
     32  CG         1.7750   35.9300    1.1820 C.ar    9  TRP9        0.0006
     33  CD1        1.1250   36.6560    0.2340 C.ar    9  TRP9        0.0946
     34  CD2        2.4230   36.8860    2.0530 C.ar    9  TRP9        0.0152
     35  NE1        1.3170   38.0050    0.4550 N.ar    9  TRP9       -0.2442
     36  CE2        2.1050   38.1750    1.5650 C.ar    9  TRP9        0.0810
     37  CE3        3.2280   36.7720    3.1990 C.ar    9  TRP9        0.0012
     38  CZ2        2.5750   39.3640    2.1770 C.ar    9  TRP9        0.0191
     39  CZ3        3.6840   37.9540    3.8350 C.ar    9  TRP9        0.0001
     40  CH2        3.3720   39.2290    3.3060 C.ar    9  TRP9        0.0015
     41  N          5.9560   45.5480    2.2800 N.3   167  VAL167     -0.1245
     42  CA         4.5180   45.2340    2.1000 C.3   167  VAL167      0.1561
     43  C          3.7240   46.3760    1.4350 C.2   167  VAL167      0.2260
     44  O          2.6230   46.1690    0.9640 O.2   167  VAL167     -0.2867
     45  CB         3.8300   44.8130    3.4480 C.3   167  VAL167      0.0252
     46  CG1        3.7780   45.9750    4.4740 C.3   167  VAL167      0.0019
     47  CG2        2.4480   44.3160    3.1940 C.3   167  VAL167      0.0019
     48  N          6.3460   42.9410   -1.3160 N.3   243  ALA243     -0.1231
     49  CA         5.4550   41.9560   -0.7010 C.3   243  ALA243      0.1694
     50  C          4.0200   42.0090   -1.2360 C.2   243  ALA243      0.2592
     51  O          3.1520   41.2690   -0.7550 O.2   243  ALA243     -0.2718
     52  CB         5.4810   42.0770    0.8350 C.3   243  ALA243      0.0304
     53  N          3.7750   42.8900   -2.2120 N.am  244  LEU244     -0.1966
     54  CA         2.4910   42.9280   -2.9690 C.3   244  LEU244      0.1728
     55  C          2.5340   41.9680   -4.1670 C.2   244  LEU244      0.2616
     56  O          1.5390   41.7690   -4.8300 O.2   244  LEU244     -0.2715
     57  CB         2.1380   44.3540   -3.4590 C.3   244  LEU244      0.0311
     58  CG         1.8200   45.4220   -2.4010 C.3   244  LEU244      0.0022
     59  CD1        1.5860   46.8230   -3.0580 C.3   244  LEU244      0.0001
     60  CD2        0.6080   44.9860   -1.5280 C.3   244  LEU244      0.0001
     61  N          3.6930   41.3960   -4.4530 N.am  245  GLN245     -0.1963
     62  CA         3.8310   40.4070   -5.5090 C.3   245  GLN245      0.1733
     63  C          3.6620   39.0050   -4.9190 C.2   245  GLN245      0.2616
     64  O          3.5990   38.8050   -3.6960 O.2   245  GLN245     -0.2715
     65  CB         5.2260   40.5150   -6.1710 C.3   245  GLN245      0.0408
     66  CG         5.5620   41.8630   -6.8420 C.3   245  GLN245      0.0908
     67  CD         4.6730   42.2150   -8.0300 C.2   245  GLN245      0.2608
     68  OE1        3.9090   41.3750   -8.4870 O.2   245  GLN245     -0.2717
     69  NE2        4.7710   43.4690   -8.5360 N.am  245  GLN245     -0.0878
     70  N          3.6360   38.0350   -5.8150 N.am  246  ASN246     -0.1958
     71  CA         3.5250   36.6250   -5.5020 C.3   246  ASN246      0.1819
     72  C          4.6050   36.1130   -4.5310 C.2   246  ASN246      0.2621
     73  O          5.8080   36.3060   -4.7230 O.2   246  ASN246     -0.2715
     74  CB         3.5440   35.8060   -6.7950 C.3   246  ASN246      0.1195
     75  CG         3.4850   34.3190   -6.5390 C.2   246  ASN246      0.2630
     76  OD1        4.4820   33.6890   -6.1420 O.2   246  ASN246     -0.2716
     77  ND2        2.3110   33.7360   -6.7700 N.am  246  ASN246     -0.0877
     78  N          4.1370   35.4170   -3.5030 N.am  247  PHE247     -0.1974
     79  CA         5.0000   34.9740   -2.4340 C.3   247  PHE247      0.1639
     80  C          6.1760   34.0840   -2.9300 C.2   247  PHE247      0.2290
     81  O          7.3330   34.3830   -2.6030 O.2   247  PHE247     -0.2864
     82  CB         4.1890   34.3090   -1.3200 C.3   247  PHE247      0.0560
     83  CG         5.0280   33.9210   -0.1450 C.ar  247  PHE247     -0.0200
     84  CD1        5.3730   34.8630    0.7980 C.ar  247  PHE247     -0.0042
     85  CD2        5.5220   32.6190   -0.0100 C.ar  247  PHE247     -0.0042
     86  CE1        6.1720   34.5240    1.8890 C.ar  247  PHE247     -0.0003
     87  CE2        6.3310   32.2740    1.0700 C.ar  247  PHE247     -0.0003
     88  CZ         6.6510   33.2370    2.0310 C.ar  247  PHE247     -0.0000
@<TRIPOS>BOND
     1    69    67   am
     2    68    67    2
     3    67    66    1
     4    66    65    1
     5    74    75    1
     6    74    71    1
     7    77    75   am
     8    75    76    2
     9    65    62    1
    10    70    71    1
    11    70    63   am
    12    62    63    1
    13    62    61    1
    14    71    72    1
    15    63    64    2
    16    56    55    2
    17    73    72    2
    18    72    78   am
    19    61    55   am
    20    55    54    1
    21    78    79    1
    22    57    54    1
    23    57    58    1
    24    59    58    1
    25    54    53    1
    26    80    81    2
    27    80    79    1
    28    79    82    1
    29    58    60    1
    30    53    50   am
    31    82    83    1
    32    48    49    1
    33    50    51    2
    34    50    49    1
    35    49    52    1
    36    83    85   ar
    37    83    84   ar
    38    85    87   ar
    39    33    35   ar
    40    33    32   ar
    41    35    36   ar
    42    84    86   ar
    43    44    43    2
    44    87    88   ar
    45    32    31    1
    46    32    34   ar
    47    31    28    1
    48    43    42    1
    49    36    34   ar
    50    36    38   ar
    51    86    88   ar
    52    29    28    1
    53    29    30    2
    54    34    37   ar
    55    42    41    1
    56    42    45    1
    57    28    27    1
    58    38    40   ar
    59    47    45    1
    60    37    39   ar
    61    40    39   ar
    62    45    46    1
    63    21    20    2
    64    27    20   am
    65    20    19    1
    66    16    14   ar
    67    16    17   ar
    68    14    12   ar
    69    19    18    1
    70    19    22    1
    71    17    15   ar
    72    18     9   am
    73    12    11    1
    74    12    13   ar
    75    11     8    1
    76    23    22    1
    77    23    24    1
    78     9     8    1
    79     9    10    2
    80     8     7    1
    81    26    24   am
    82    15    13   ar
    83    24    25    2
    84     4     3    2
    85     7     3   am
    86     3     2    1
    87     2     1    1
    88     2     5    1
    89     6     5    1
