@<TRIPOS>MOLECULE
tmp/3ieiF00.pdb
 194 184 0 0 0
SMALL
GASTEIGER

@<TRIPOS>ATOM
      1  N        -58.9170   22.4880   -8.7070 N.3     2  VAL2       -0.1231
      2  CA       -57.5190   22.0710   -8.8750 C.3     2  VAL2        0.1692
      3  C        -56.5050   23.1490   -8.4670 C.2     2  VAL2        0.2591
      4  O        -55.4430   22.8330   -7.9270 O.2     2  VAL2       -0.2718
      5  CB       -57.2570   21.5910  -10.3330 C.3     2  VAL2        0.0266
      6  CG1      -55.7700   21.5600  -10.6630 C.3     2  VAL2        0.0020
      7  CG2      -57.8830   20.2220  -10.5600 C.3     2  VAL2        0.0020
      8  N        -56.8220   24.4170   -8.7140 N.am    3  ARG3       -0.1980
      9  CA       -55.8770   25.4930   -8.3910 C.3     3  ARG3        0.1597
     10  C        -55.6020   25.6450   -6.8800 C.2     3  ARG3        0.2287
     11  O        -54.4740   25.9790   -6.4900 O.2     3  ARG3       -0.2864
     12  CB       -56.2760   26.8200   -9.0550 C.3     3  ARG3        0.0334
     13  CG       -55.9650   26.8490  -10.5550 C.3     3  ARG3        0.0492
     14  CD       -55.9730   28.2610  -11.1190 C.3     3  ARG3        0.2205
     15  NE       -56.0410   28.2670  -12.5800 N.pl3   3  ARG3       -0.0865
     16  CZ       -57.1700   28.2060  -13.2830 C.cat   3  ARG3        0.5346
     17  NH1      -58.3490   28.1430  -12.6670 N.pl3   3  ARG3        0.1354
     18  NH2      -57.1200   28.2140  -14.6090 N.pl3   3  ARG3        0.1354
     19  N        -54.9750   23.4330   -4.8900 N.3     5  THR5       -0.1203
     20  CA       -54.0570   22.3740   -4.4630 C.3     5  THR5        0.1994
     21  C        -52.6420   22.8860   -4.2350 C.2     5  THR5        0.2618
     22  O        -51.9390   22.3810   -3.3620 O.2     5  THR5       -0.2717
     23  CB       -54.0230   21.1910   -5.4480 C.3     5  THR5        0.1784
     24  OG1      -53.6750   21.6690   -6.7500 O.3     5  THR5       -0.2211
     25  CG2      -55.3840   20.5140   -5.5030 C.3     5  THR5        0.0376
     26  N        -52.2270   23.8740   -5.0300 N.am    6  CYS6       -0.1969
     27  CA       -50.9330   24.5250   -4.8250 C.3     6  CYS6        0.1712
     28  C        -50.8170   25.0450   -3.3920 C.2     6  CYS6        0.2296
     29  O        -49.8560   24.7310   -2.6900 O.2     6  CYS6       -0.2864
     30  CB       -50.7150   25.6560   -5.8290 C.3     6  CYS6        0.0983
     31  SG       -49.2250   26.6220   -5.5240 S.3     6  CYS6       -0.0798
     32  N        -50.6560   22.1250   -0.7090 N.3     9  ALA9       -0.1245
     33  CA       -49.3240   21.5170   -0.7380 C.3     9  ALA9        0.1562
     34  C        -48.3080   22.3970   -0.0300 C.2     9  ALA9        0.2260
     35  O        -47.5310   21.9050    0.7850 O.2     9  ALA9       -0.2867
     36  CB       -48.8750   21.2500   -2.1720 C.3     9  ALA9        0.0290
     37  N        -46.2840   21.6810    3.4610 N.3    13  LYS13      -0.1245
     38  CA       -44.8290   21.6300    3.4390 C.3    13  LYS13       0.1561
     39  C        -44.1980   22.6070    4.4260 C.2    13  LYS13       0.2260
     40  O        -43.3140   22.2250    5.1920 O.2    13  LYS13      -0.2867
     41  CB       -44.3080   21.8210    2.0130 C.3    13  LYS13       0.0271
     42  CG       -44.4580   20.5300    1.2050 C.3    13  LYS13       0.0035
     43  CD       -43.9840   20.6560   -0.2290 C.3    13  LYS13       0.0206
     44  CE       -44.1370   19.2830   -0.9150 C.3    13  LYS13       0.1093
     45  NZ       -43.5920   19.3050   -2.3000 N.3    13  LYS13      -0.1314
     46  N        -42.3730   11.6450    1.1770 N.3    49  ARG49      -0.1245
     47  CA       -42.6020   12.1590   -0.1740 C.3    49  ARG49       0.1563
     48  C        -41.4170   13.0200   -0.6280 C.2    49  ARG49       0.2260
     49  O        -40.8060   12.7670   -1.6850 O.2    49  ARG49      -0.2867
     50  CB       -43.9030   12.9840   -0.1690 C.3    49  ARG49       0.0307
     51  CG       -44.1630   13.9060   -1.3750 C.3    49  ARG49       0.0489
     52  CD       -45.5410   14.5860   -1.1780 C.3    49  ARG49       0.2205
     53  NE       -45.8080   15.7100   -2.0750 N.pl3  49  ARG49      -0.0865
     54  CZ       -47.0030   16.2800   -2.2280 C.cat  49  ARG49       0.5346
     55  NH1      -48.0590   15.8170   -1.5640 N.pl3  49  ARG49       0.1354
     56  NH2      -47.1460   17.3080   -3.0570 N.pl3  49  ARG49       0.1354
     57  N        -39.8650   20.5830  -13.7370 N.3    72  ASN72      -0.1240
     58  CA       -40.8590   20.2620  -12.7150 C.3    72  ASN72       0.1653
     59  C        -42.2550   20.7010  -13.1670 C.2    72  ASN72       0.2266
     60  O        -42.5680   21.8910  -13.2100 O.2    72  ASN72      -0.2867
     61  CB       -40.4740   20.8530  -11.3460 C.3    72  ASN72       0.1155
     62  CG       -41.2920   20.2610  -10.2060 C.2    72  ASN72       0.2627
     63  OD1      -42.2350   19.5160  -10.4300 O.2    72  ASN72      -0.2716
     64  ND2      -40.9360   20.6060   -8.9760 N.am   72  ASN72      -0.0877
     65  N        -46.2120   21.1540  -12.9590 N.3    74  GLY74      -0.1210
     66  CA       -47.0940   21.4550  -11.8210 C.3    74  GLY74       0.1956
     67  C        -46.2890   21.7310  -10.5530 C.2    74  GLY74       0.2612
     68  O        -46.5890   21.1930   -9.4770 O.2    74  GLY74      -0.2717
     69  N        -45.2830   22.6000  -10.6710 N.am   75  ALA75      -0.1965
     70  CA       -44.3060   22.8110   -9.5990 C.3    75  ALA75       0.1728
     71  C        -44.8510   23.5130   -8.3490 C.2    75  ALA75       0.2617
     72  O        -44.2560   23.4010   -7.2810 O.2    75  ALA75      -0.2715
     73  CB       -43.0860   23.5660  -10.1320 C.3    75  ALA75       0.0334
     74  N        -45.9650   24.2370   -8.4770 N.am   76  GLY76      -0.1940
     75  CA       -46.5100   24.9940   -7.3500 C.3    76  GLY76       0.2014
     76  C        -45.4610   25.9350   -6.7790 C.2    76  GLY76       0.2639
     77  O        -44.7090   26.5550   -7.5300 O.2    76  GLY76      -0.2714
     78  N        -45.3890   26.0010   -5.4540 N.am   77  MET77      -0.1963
     79  CA       -44.4320   26.8580   -4.7520 C.3    77  MET77       0.1736
     80  C        -43.1890   26.0760   -4.3300 C.2    77  MET77       0.2616
     81  O        -42.5840   26.3790   -3.3080 O.2    77  MET77      -0.2715
     82  CB       -45.0790   27.5060   -3.5150 C.3    77  MET77       0.0427
     83  CG       -46.3080   28.3540   -3.8180 C.3    77  MET77       0.0599
     84  SD       -45.8850   29.7110   -4.9290 S.3    77  MET77      -0.1393
     85  CE       -47.4360   29.9140   -5.7880 C.3    77  MET77       0.0692
     86  N        -42.8250   25.0670   -5.1160 N.am   78  ASP78      -0.1971
     87  CA       -41.6370   24.2450   -4.8450 C.3    78  ASP78       0.1709
     88  C        -40.3690   25.1150   -4.7740 C.2    78  ASP78       0.2293
     89  O        -40.2130   26.0700   -5.5370 O.2    78  ASP78      -0.2864
     90  CB       -41.4940   23.1890   -5.9460 C.3    78  ASP78       0.1436
     91  CG       -40.4670   22.1270   -5.6180 C.2    78  ASP78       0.3671
     92  OD1      -40.7990   21.1740   -4.8850 O.co2  78  ASP78      -0.2456
     93  OD2      -39.3270   22.2410   -6.1170 O.co2  78  ASP78      -0.2456
     94  N        -46.4750   25.6930  -14.2730 N.3    98  ASP98      -0.1225
     95  CA       -47.7550   25.6210  -13.5650 C.3    98  ASP98       0.1805
     96  C        -48.7670   26.5080  -14.2870 C.2    98  ASP98       0.2597
     97  O        -48.4220   27.1290  -15.2920 O.2    98  ASP98      -0.2718
     98  CB       -47.6080   26.0500  -12.1000 C.3    98  ASP98       0.1424
     99  CG       -48.5550   25.2820  -11.1690 C.2    98  ASP98       0.3668
    100  OD1      -48.0640   24.4790  -10.3440 O.co2  98  ASP98      -0.2456
    101  OD2      -49.7880   25.4510  -11.2800 O.co2  98  ASP98      -0.2456
    102  N        -50.0040   26.5530  -13.7970 N.am   99  PHE99      -0.1976
    103  CA       -51.0080   27.4520  -14.3720 C.3    99  PHE99       0.1639
    104  C        -50.5440   28.9140  -14.2630 C.2    99  PHE99       0.2290
    105  O        -49.8950   29.2840  -13.2870 O.2    99  PHE99      -0.2864
    106  CB       -52.3470   27.3290  -13.6490 C.3    99  PHE99       0.0560
    107  CG       -53.1470   26.1190  -14.0100 C.ar   99  PHE99      -0.0200
    108  CD1      -53.4510   25.1700  -13.0350 C.ar   99  PHE99      -0.0042
    109  CD2      -53.6620   25.9530  -15.2920 C.ar   99  PHE99      -0.0042
    110  CE1      -54.2340   24.0570  -13.3350 C.ar   99  PHE99      -0.0003
    111  CE2      -54.4380   24.8350  -15.6090 C.ar   99  PHE99      -0.0003
    112  CZ       -54.7240   23.8880  -14.6340 C.ar   99  PHE99      -0.0000
    113  N        -50.9120   30.6260  -10.7770 N.3   102  ILE102     -0.1245
    114  CA       -49.9240   30.1480   -9.8150 C.3   102  ILE102      0.1561
    115  C        -48.5610   30.7740  -10.0830 C.2   102  ILE102      0.2260
    116  O        -47.8820   31.2220   -9.1600 O.2   102  ILE102     -0.2867
    117  CB       -49.7880   28.6010   -9.8830 C.3   102  ILE102      0.0252
    118  CG1      -51.1450   27.9000   -9.6600 C.3   102  ILE102      0.0019
    119  CG2      -48.6760   28.1050   -8.9470 C.3   102  ILE102      0.0019
    120  CD1      -51.8470   28.2160   -8.3560 C.3   102  ILE102      0.0001
    121  N        -48.2130   27.7290  -18.1040 N.3   146  ALA146     -0.1231
    122  CA       -48.7230   26.9280  -19.2030 C.3   146  ALA146      0.1694
    123  C        -49.6150   25.8030  -18.6850 C.2   146  ALA146      0.2592
    124  O        -49.3380   25.2170  -17.6370 O.2   146  ALA146     -0.2718
    125  CB       -47.5810   26.3600  -20.0020 C.3   146  ALA146      0.0304
    126  N        -50.6720   25.4970  -19.4320 N.am  147  ASP147     -0.1960
    127  CA       -51.5710   24.4030  -19.0780 C.3   147  ASP147      0.1840
    128  C        -50.9970   23.0860  -19.6000 C.2   147  ASP147      0.2622
    129  O        -50.7620   22.9230  -20.8090 O.2   147  ASP147     -0.2715
    130  CB       -52.9820   24.6830  -19.6310 C.3   147  ASP147      0.1450
    131  CG       -54.0420   23.7400  -19.0830 C.2   147  ASP147      0.3671
    132  OD1      -53.7270   22.5750  -18.7600 O.co2 147  ASP147     -0.2456
    133  OD2      -55.2190   24.1710  -18.9970 O.co2 147  ASP147     -0.2456
    134  N        -50.7740   22.1450  -18.6760 N.am  148  LEU148     -0.1963
    135  CA       -50.1910   20.8400  -19.0020 C.3   148  LEU148      0.1728
    136  C        -51.0610   20.0060  -19.9440 C.2   148  LEU148      0.2616
    137  O        -50.5930   19.0370  -20.5370 O.2   148  LEU148     -0.2715
    138  CB       -49.8790   20.0390  -17.7240 C.3   148  LEU148      0.0311
    139  CG       -48.7660   20.5800  -16.8220 C.3   148  LEU148      0.0022
    140  CD1      -48.7710   19.8720  -15.4710 C.3   148  LEU148      0.0001
    141  CD2      -47.4140   20.4310  -17.5140 C.3   148  LEU148      0.0001
    142  N        -52.3190   20.4000  -20.0850 N.am  149  ARG149     -0.1977
    143  CA       -53.2310   19.7400  -21.0180 C.3   149  ARG149      0.1597
    144  C        -53.1280   20.3080  -22.4420 C.2   149  ARG149      0.2287
    145  O        -53.7110   19.7520  -23.3720 O.2   149  ARG149     -0.2864
    146  CB       -54.6630   19.8290  -20.4960 C.3   149  ARG149      0.0334
    147  CG       -54.8330   19.1860  -19.1230 C.3   149  ARG149      0.0492
    148  CD       -56.1510   19.5830  -18.4640 C.3   149  ARG149      0.2205
    149  NE       -56.2370   21.0130  -18.1840 N.pl3 149  ARG149     -0.0865
    150  CZ       -57.2160   21.5760  -17.4800 C.cat 149  ARG149      0.5346
    151  NH1      -58.1850   20.8300  -16.9680 N.pl3 149  ARG149      0.1354
    152  NH2      -57.2220   22.8860  -17.2730 N.pl3 149  ARG149      0.1354
    153  N        -45.0870   15.8640   -9.1390 N.3   174  GLU174     -0.1231
    154  CA       -45.3290   15.5420   -7.7400 C.3   174  GLU174      0.1699
    155  C        -46.7540   15.9650   -7.3790 C.2   174  GLU174      0.2592
    156  O        -47.0280   17.1620   -7.2220 O.2   174  GLU174     -0.2718
    157  CB       -44.2980   16.2330   -6.8430 C.3   174  GLU174      0.0402
    158  CG       -44.3650   15.8270   -5.3610 C.3   174  GLU174      0.1161
    159  CD       -43.3920   16.5910   -4.4870 C.2   174  GLU174      0.3649
    160  OE1      -42.3740   17.1060   -5.0040 O.co2 174  GLU174     -0.2457
    161  OE2      -43.6610   16.6980   -3.2720 O.co2 174  GLU174     -0.2457
    162  N        -47.6440   14.9740   -7.2740 N.am  175  CYS175     -0.1956
    163  CA       -49.0690   15.1990   -6.9790 C.3   175  CYS175      0.1843
    164  C        -49.7280   16.1190   -8.0060 C.2   175  CYS175      0.2625
    165  O        -50.3110   17.1490   -7.6490 O.2   175  CYS175     -0.2714
    166  CB       -49.2480   15.7680   -5.5650 C.3   175  CYS175      0.0997
    167  SG       -49.7200   14.5380   -4.3680 S.3   175  CYS175     -0.0797
    168  N        -49.6250   15.7320   -9.2780 N.am  176  VAL176     -0.1977
    169  CA       -50.0680   16.5620  -10.4040 C.3   176  VAL176      0.1596
    170  C        -50.9500   15.7810  -11.4000 C.2   176  VAL176      0.2287
    171  O        -52.0320   16.2450  -11.7800 O.2   176  VAL176     -0.2864
    172  CB       -48.8520   17.1970  -11.1350 C.3   176  VAL176      0.0276
    173  CG1      -49.2700   17.8930  -12.4320 C.3   176  VAL176      0.0022
    174  CG2      -48.1670   18.2070  -10.2350 C.3   176  VAL176      0.0022
    175  N        -54.7560   15.1730  -11.2890 N.3   179  TYR179     -0.1227
    176  CA       -55.6740   16.2760  -11.5760 C.3   179  TYR179      0.1736
    177  C        -56.0470   16.4400  -13.0450 C.2   179  TYR179      0.2595
    178  O        -56.7450   17.3930  -13.4030 O.2   179  TYR179     -0.2718
    179  CB       -55.1370   17.6010  -11.0130 C.3   179  TYR179      0.0548
    180  CG       -54.9250   17.5270   -9.5250 C.ar  179  TYR179     -0.0200
    181  CD1      -53.6490   17.6540   -8.9820 C.ar  179  TYR179     -0.0009
    182  CD2      -55.9960   17.2830   -8.6600 C.ar  179  TYR179     -0.0009
    183  CE1      -53.4440   17.5710   -7.6240 C.ar  179  TYR179      0.0417
    184  CE2      -55.7980   17.1870   -7.2850 C.ar  179  TYR179      0.0417
    185  CZ       -54.5100   17.3370   -6.7790 C.ar  179  TYR179      0.1957
    186  OH       -54.2820   17.2570   -5.4300 O.3   179  TYR179     -0.2866
    187  N        -55.5920   15.5260  -13.8890 N.am  180  MET180     -0.1979
    188  CA       -56.0310   15.5140  -15.2790 C.3   180  MET180      0.1605
    189  C        -56.6180   14.1600  -15.6550 C.2   180  MET180      0.2287
    190  O        -56.4880   13.1880  -14.8990 O.2   180  MET180     -0.2864
    191  CB       -54.9110   15.9550  -16.2300 C.3   180  MET180      0.0413
    192  CG       -53.6830   15.0700  -16.2360 C.3   180  MET180      0.0598
    193  SD       -52.3280   15.7950  -17.1860 S.3   180  MET180     -0.1393
    194  CE       -51.5970   16.8860  -15.9700 C.3   180  MET180      0.0692
@<TRIPOS>BOND
     1   145   144    2
     2   144   143    1
     3   143   146    1
     4   143   142    1
     5   129   128    2
     6   137   136    2
     7   146   147    1
     8   142   136   am
     9   125   122    1
    10   136   135    1
    11   130   131    1
    12   130   127    1
    13   128   127    1
    14   128   134   am
    15   126   127    1
    16   126   123   am
    17   122   123    1
    18   122   121    1
    19   147   148    1
    20   131   133   ar
    21   131   132   ar
    22   135   134    1
    23   135   138    1
    24   123   124    2
    25   148   149    1
    26   149   150    2
    27   138   139    1
    28   141   139    1
    29   150   152    1
    30   150   151    1
    31   193   192    1
    32   193   194    1
    33   139   140    1
    34   192   191    1
    35   191   188    1
    36   189   188    1
    37   189   190    2
    38   111   109   ar
    39   111   112   ar
    40    97    96    2
    41   109   107   ar
    42   188   187    1
    43   112   110   ar
    44    18    16    1
    45   103   104    1
    46   103   102    1
    47   103   106    1
    48    96   102   am
    49    96    95    1
    50    94    95    1
    51   104   105    2
    52   107   106    1
    53   107   108   ar
    54   187   177   am
    55    57    58    1
    56    95    98    1
    57   178   177    2
    58   110   108   ar
    59    16    17    1
    60    16    15    2
    61    60    59    2
    62    59    58    1
    63   177   176    1
    64    65    66    1
    65    58    61    1
    66    15    14    1
    67   173   172    1
    68    98    99    1
    69    66    67    1
    70   171   170    2
    71   176   175    1
    72   176   179    1
    73   170   169    1
    74    61    62    1
    75   101    99   ar
    76    99   100   ar
    77   172   169    1
    78   172   174    1
    79    14    13    1
    80   179   180    1
    81   113   114    1
    82    69    67   am
    83    69    70    1
    84     6     5    1
    85     7     5    1
    86    13    12    1
    87    67    68    2
    88    63    62    2
    89   169   168    1
    90     5     2    1
    91    62    64   am
    92    73    70    1
    93   115   114    1
    94   115   116    2
    95   117   114    1
    96   117   118    1
    97   117   119    1
    98   118   120    1
    99    70    71    1
   100   180   181   ar
   101   180   182   ar
   102   168   164   am
   103   153   154    1
   104    12     9    1
   105   181   183   ar
   106     2     1    1
   107     2     3    1
   108     8     3   am
   109     8     9    1
   110   182   184   ar
   111    74    71   am
   112    74    75    1
   113     3     4    2
   114     9    10    1
   115    71    72    2
   116   164   165    2
   117   164   163    1
   118   154   155    1
   119   154   157    1
   120   183   185   ar
   121    77    76    2
   122   155   162   am
   123   155   156    2
   124    75    76    1
   125   184   185   ar
   126   162   163    1
   127   163   166    1
   128    10    11    2
   129   157   158    1
   130   185   186    1
   131    76    78   am
   132    24    23    1
   133    93    91   ar
   134    90    91    1
   135    90    87    1
   136    30    31    1
   137    30    27    1
   138    85    84    1
   139    91    92   ar
   140   166   167    1
   141    89    88    2
   142    25    23    1
   143    78    79    1
   144    23    20    1
   145   158   159    1
   146    86    87    1
   147    86    80   am
   148    26    27    1
   149    26    21   am
   150   160   159   ar
   151    84    83    1
   152    19    20    1
   153    87    88    1
   154    27    28    1
   155    79    80    1
   156    79    82    1
   157   159   161   ar
   158    20    21    1
   159    80    81    2
   160    21    22    2
   161    83    82    1
   162    28    29    2
   163    56    54    1
   164    45    44    1
   165    54    53    2
   166    54    55    1
   167    36    33    1
   168    53    52    1
   169    49    48    2
   170    51    52    1
   171    51    50    1
   172    44    43    1
   173    33    32    1
   174    33    34    1
   175    48    47    1
   176    43    42    1
   177    47    50    1
   178    47    46    1
   179    34    35    2
   180    42    41    1
   181    41    38    1
   182    38    37    1
   183    38    39    1
   184    39    40    2
