@<TRIPOS>MOLECULE
tmp/3iejA00.pdb
 188 185 0 0 0
SMALL
GASTEIGER

@<TRIPOS>ATOM
      1  N          4.1130  -29.9650   20.7970 N.3    25  GLY25      -0.1225
      2  CA         4.3130  -29.5350   19.4180 C.3    25  GLY25       0.1811
      3  C          4.0150  -28.0570   19.3010 C.2    25  GLY25       0.2280
      4  O          3.0280  -27.6450   18.6750 O.2    25  GLY25      -0.2866
      5  N          6.3020  -25.6900   18.1590 N.3    27  SER27      -0.1202
      6  CA         7.2430  -25.0590   17.2290 C.3    27  SER27       0.2020
      7  C          6.6730  -23.7980   16.5310 C.2    27  SER27       0.2618
      8  O          7.3850  -22.8280   16.2370 O.2    27  SER27      -0.2717
      9  CB         7.6780  -26.0900   16.1580 C.3    27  SER27       0.2103
     10  OG         6.5920  -26.5330   15.3200 O.3    27  SER27      -0.2182
     11  N          5.3850  -23.8600   16.2290 N.am   28  TRP28      -0.1975
     12  CA         4.6200  -22.7330   15.7130 C.3    28  TRP28       0.1640
     13  C          4.5750  -21.5460   16.7000 C.2    28  TRP28       0.2290
     14  O          4.6360  -20.4110   16.2900 O.2    28  TRP28      -0.2864
     15  CB         3.2090  -23.1960   15.3470 C.3    28  TRP28       0.0576
     16  CG         2.4070  -23.7040   16.4830 C.ar   28  TRP28       0.0006
     17  CD1        2.4130  -24.9680   16.9800 C.ar   28  TRP28       0.0946
     18  CD2        1.4570  -22.9680   17.2750 C.ar   28  TRP28       0.0152
     19  NE1        1.5400  -25.0660   18.0310 N.ar   28  TRP28      -0.2442
     20  CE2        0.9390  -23.8510   18.2310 C.ar   28  TRP28       0.0810
     21  CE3        0.9990  -21.6500   17.2660 C.ar   28  TRP28       0.0012
     22  CZ2       -0.0190  -23.4600   19.1660 C.ar   28  TRP28       0.0191
     23  CZ3        0.0800  -21.2640   18.2000 C.ar   28  TRP28       0.0001
     24  CH2       -0.4310  -22.1690   19.1410 C.ar   28  TRP28       0.0015
     25  N         -8.7110  -19.3750   16.8230 N.3    63  TYR63      -0.1227
     26  CA        -7.6420  -19.0820   15.8730 C.3    63  TYR63       0.1736
     27  C         -7.2020  -20.3120   15.1010 C.2    63  TYR63       0.2596
     28  O         -6.1990  -20.2680   14.3980 O.2    63  TYR63      -0.2718
     29  CB        -6.4540  -18.4690   16.6340 C.3    63  TYR63       0.0548
     30  CG        -6.8440  -17.2040   17.3680 C.ar   63  TYR63      -0.0200
     31  CD1       -7.3350  -17.2490   18.6810 C.ar   63  TYR63      -0.0009
     32  CD2       -6.8040  -15.9770   16.7210 C.ar   63  TYR63      -0.0009
     33  CE1       -7.7410  -16.1050   19.3190 C.ar   63  TYR63       0.0417
     34  CE2       -7.1960  -14.8320   17.3510 C.ar   63  TYR63       0.0417
     35  CZ        -7.6620  -14.8940   18.6480 C.ar   63  TYR63       0.1957
     36  OH        -8.0310  -13.7190   19.2570 O.3    63  TYR63      -0.2866
     37  N         -7.9430  -21.4090   15.2230 N.am   64  GLY64      -0.1957
     38  CA        -7.6480  -22.6310   14.4750 C.3    64  GLY64       0.1869
     39  C         -6.4230  -23.4060   14.9420 C.2    64  GLY64       0.2309
     40  O         -5.9060  -24.2350   14.2090 O.2    64  GLY64      -0.2863
     41  N         -0.3990  -27.8570   21.9470 N.3    68  CYS68      -0.1221
     42  CA         0.6600  -28.8490   21.7680 C.3    68  CYS68       0.1808
     43  C          0.4120  -29.8040   20.6000 C.2    68  CYS68       0.2601
     44  O          1.3240  -30.4950   20.1740 O.2    68  CYS68      -0.2717
     45  CB         0.8420  -29.6710   23.0520 C.3    68  CYS68       0.0970
     46  SG         1.5310  -28.7360   24.4550 S.3    68  CYS68      -0.0800
     47  N         -0.8170  -29.8430   20.0950 N.am   69  ASN69      -0.1960
     48  CA        -1.1220  -30.5440   18.8490 C.3    69  ASN69       0.1819
     49  C         -1.0190  -29.6800   17.5880 C.2    69  ASN69       0.2622
     50  O         -1.4480  -30.0960   16.5180 O.2    69  ASN69      -0.2715
     51  CB        -2.5040  -31.1880   18.9260 C.3    69  ASN69       0.1195
     52  CG        -2.5020  -32.4350   19.7830 C.2    69  ASN69       0.2630
     53  OD1       -2.3010  -32.3640   20.9930 O.2    69  ASN69      -0.2716
     54  ND2       -2.7080  -33.5950   19.1500 N.am   69  ASN69      -0.0877
     55  N         -0.4630  -28.4780   17.7120 N.am   70  GLY70      -0.1940
     56  CA        -0.1230  -27.6800   16.5360 C.3    70  GLY70       0.2014
     57  C         -0.9810  -26.4480   16.3780 C.2    70  GLY70       0.2639
     58  O         -1.9540  -26.2360   17.0950 O.2    70  GLY70      -0.2714
     59  N         -0.5960  -25.6340   15.4200 N.am   71  GLY71      -0.1939
     60  CA        -1.2490  -24.3680   15.1480 C.3    71  GLY71       0.2014
     61  C         -0.4330  -23.6040   14.1190 C.2    71  GLY71       0.2639
     62  O          0.4890  -24.1370   13.5220 O.2    71  GLY71      -0.2714
     63  N         -0.7570  -22.3380   13.9410 N.am   72  PHE72      -0.1959
     64  CA        -0.1690  -21.5080   12.8990 C.3    72  PHE72       0.1771
     65  C          0.3510  -20.2060   13.5030 C.2    72  PHE72       0.2619
     66  O         -0.2520  -19.6580   14.4110 O.2    72  PHE72      -0.2715
     67  CB        -1.2430  -21.1870   11.8250 C.3    72  PHE72       0.0574
     68  CG        -1.9530  -22.4150   11.2640 C.ar   72  PHE72      -0.0200
     69  CD1       -3.1240  -22.8800   11.8400 C.ar   72  PHE72      -0.0042
     70  CD2       -1.4270  -23.1130   10.1820 C.ar   72  PHE72      -0.0042
     71  CE1       -3.7700  -24.0110   11.3280 C.ar   72  PHE72      -0.0003
     72  CE2       -2.0780  -24.2370    9.6640 C.ar   72  PHE72      -0.0003
     73  CZ        -3.2420  -24.6840   10.2390 C.ar   72  PHE72      -0.0000
     74  N          1.4430  -19.7060   12.9440 N.am   73  MET73      -0.1963
     75  CA         2.0130  -18.4160   13.3150 C.3    73  MET73       0.1736
     76  C          1.1470  -17.2330   12.8920 C.2    73  MET73       0.2617
     77  O          1.0370  -16.2600   13.6380 O.2    73  MET73      -0.2715
     78  CB         3.4190  -18.2670   12.7170 C.3    73  MET73       0.0427
     79  CG         4.4260  -19.3160   13.2180 C.3    73  MET73       0.0599
     80  SD         4.5390  -20.8960   12.3080 S.3    73  MET73      -0.1393
     81  CE         5.4740  -20.3670   10.8620 C.3    73  MET73       0.0692
     82  N          0.5230  -17.3000   11.7160 N.am   74  THR74      -0.1937
     83  CA        -0.3230  -16.1960   11.2680 C.3    74  THR74       0.2028
     84  C         -1.4720  -15.9040   12.2440 C.2    74  THR74       0.2642
     85  O         -1.8180  -14.7470   12.4870 O.2    74  THR74      -0.2714
     86  CB        -0.9730  -16.4730    9.8830 C.3    74  THR74       0.1808
     87  OG1       -1.6750  -17.7080    9.9470 O.3    74  THR74      -0.2208
     88  CG2        0.0470  -16.5180    8.7750 C.3    74  THR74       0.0379
     89  N         -2.1010  -16.9540   12.7600 N.am   75  THR75      -0.1950
     90  CA        -3.1980  -16.7830   13.7080 C.3    75  THR75       0.1897
     91  C         -2.6810  -16.5770   15.1250 C.2    75  THR75       0.2313
     92  O         -3.4270  -16.0590   15.9690 O.2    75  THR75      -0.2863
     93  CB        -4.1420  -17.9850   13.6990 C.3    75  THR75       0.1794
     94  OG1       -3.3800  -19.1560   13.8740 O.3    75  THR75      -0.2208
     95  CG2       -4.9320  -18.1040   12.3660 C.3    75  THR75       0.0378
     96  N          1.8620  -12.0520    5.2130 N.3   117  GLU117     -0.1245
     97  CA         2.2020  -13.3780    4.7170 C.3   117  GLU117      0.1567
     98  C          2.8620  -13.1960    3.3760 C.2   117  GLU117      0.2260
     99  O          2.5150  -12.2840    2.6200 O.2   117  GLU117     -0.2867
    100  CB         0.9660  -14.2570    4.5520 C.3   117  GLU117      0.0388
    101  CG         0.0500  -14.2900    5.7520 C.3   117  GLU117      0.1160
    102  CD        -1.1050  -15.2760    5.6030 C.2   117  GLU117      0.3649
    103  OE1       -0.9190  -16.3770    5.0050 O.co2 117  GLU117     -0.2457
    104  OE2       -2.2180  -14.9400    6.0910 O.co2 117  GLU117     -0.2457
    105  N          3.5850  -18.1420   -1.7160 N.3   120  TYR120     -0.1241
    106  CA         4.1080  -19.4920   -1.5460 C.3   120  TYR120      0.1605
    107  C          5.2420  -19.7410   -2.5100 C.2   120  TYR120      0.2264
    108  O          5.1470  -19.3790   -3.6920 O.2   120  TYR120     -0.2867
    109  CB         2.9750  -20.4810   -1.7640 C.3   120  TYR120      0.0534
    110  CG         3.2790  -21.9670   -1.6400 C.ar  120  TYR120     -0.0201
    111  CD1        4.2190  -22.6000   -2.4630 C.ar  120  TYR120     -0.0009
    112  CD2        2.5500  -22.7560   -0.7690 C.ar  120  TYR120     -0.0009
    113  CE1        4.4420  -23.9730   -2.3830 C.ar  120  TYR120      0.0417
    114  CE2        2.7820  -24.1160   -0.6770 C.ar  120  TYR120      0.0417
    115  CZ         3.7060  -24.7150   -1.4860 C.ar  120  TYR120      0.1957
    116  OH         3.9080  -26.0800   -1.3790 O.3   120  TYR120     -0.2866
    117  N          7.2480  -22.4120    8.0450 N.3   139  GLY139     -0.1225
    118  CA         7.1160  -23.8440    8.2620 C.3   139  GLY139      0.1811
    119  C          8.1570  -24.5160    7.3970 C.2   139  GLY139      0.2280
    120  O          8.5970  -23.9580    6.3840 O.2   139  GLY139     -0.2866
    121  N          9.8470  -33.9130    8.8630 N.3   143  ARG143     -0.1245
    122  CA         9.5740  -35.3430    9.0910 C.3   143  ARG143      0.1563
    123  C         10.5580  -36.2260    8.3700 C.2   143  ARG143      0.2260
    124  O         10.1890  -36.9450    7.4330 O.2   143  ARG143     -0.2867
    125  CB         8.1730  -35.6950    8.6310 C.3   143  ARG143      0.0307
    126  CG         7.1610  -35.0380    9.4580 C.3   143  ARG143      0.0489
    127  CD         5.7790  -35.3600    9.0010 C.3   143  ARG143      0.2205
    128  NE         4.8530  -34.7280    9.9220 N.pl3 143  ARG143     -0.0865
    129  CZ         3.5460  -34.6180    9.7350 C.cat 143  ARG143      0.5346
    130  NH1        2.9730  -35.1220    8.6520 N.pl3 143  ARG143      0.1354
    131  NH2        2.8220  -34.0030   10.6540 N.pl3 143  ARG143      0.1354
    132  N          7.4260  -30.0560    0.0590 N.3   162  GLN162     -0.1231
    133  CA         6.9860  -28.6830    0.3090 C.3   162  GLN162      0.1698
    134  C          5.7800  -28.6030    1.2460 C.2   162  GLN162      0.2592
    135  O          5.3400  -27.5150    1.6090 O.2   162  GLN162     -0.2718
    136  CB         6.6840  -27.9850   -1.0060 C.3   162  GLN162      0.0381
    137  CG         7.9210  -27.8380   -1.8590 C.3   162  GLN162      0.0905
    138  CD         7.6910  -27.1200   -3.1770 C.2   162  GLN162      0.2608
    139  OE1        6.7600  -26.3280   -3.3180 O.2   162  GLN162     -0.2717
    140  NE2        8.5580  -27.3870   -4.1450 N.am  162  GLN162     -0.0878
    141  N          5.2500  -29.7500    1.6460 N.am  163  ASN163     -0.1960
    142  CA         4.2150  -29.8000    2.6800 C.3   163  ASN163      0.1819
    143  C          4.8030  -29.6430    4.0870 C.2   163  ASN163      0.2621
    144  O          5.5040  -30.5120    4.5750 O.2   163  ASN163     -0.2715
    145  CB         3.4490  -31.1130    2.5900 C.3   163  ASN163      0.1195
    146  CG         2.8110  -31.3250    1.2220 C.2   163  ASN163      0.2630
    147  OD1        2.8990  -32.4160    0.6420 O.2   163  ASN163     -0.2716
    148  ND2        2.1910  -30.2690    0.6850 N.am  163  ASN163     -0.0877
    149  N          4.4710  -28.5460    4.7510 N.am  164  VAL164     -0.1963
    150  CA         5.1140  -28.1860    6.0000 C.3   164  VAL164      0.1727
    151  C          4.3220  -28.6890    7.1810 C.2   164  VAL164      0.2616
    152  O          3.1160  -28.9050    7.0980 O.2   164  VAL164     -0.2715
    153  CB         5.4050  -26.6530    6.0980 C.3   164  VAL164      0.0290
    154  CG1        6.1750  -26.1980    4.8490 C.3   164  VAL164      0.0023
    155  CG2        4.1230  -25.8350    6.3010 C.3   164  VAL164      0.0023
    156  N          5.0500  -28.8960    8.2760 N.am  165  ASN165     -0.1958
    157  CA         4.5280  -29.4840    9.4770 C.3   165  ASN165      0.1819
    158  C          5.3280  -29.0930   10.7360 C.2   165  ASN165      0.2621
    159  O          5.0980  -29.6550   11.8070 O.2   165  ASN165     -0.2715
    160  CB         4.5060  -31.0080    9.3030 C.3   165  ASN165      0.1195
    161  CG         5.8550  -31.5830    8.8450 C.2   165  ASN165      0.2630
    162  OD1        6.8720  -31.4550    9.5370 O.2   165  ASN165     -0.2716
    163  ND2        5.8590  -32.2220    7.6780 N.am  165  ASN165     -0.0877
    164  N          6.2160  -28.0990   10.6160 N.am  166  HIS166     -0.1959
    165  CA         7.1300  -27.7120   11.6990 C.3   166  HIS166      0.1787
    166  C          7.4910  -26.2210   11.6270 C.2   166  HIS166      0.2620
    167  O          7.9920  -25.7480   10.6230 O.2   166  HIS166     -0.2715
    168  CB         8.4220  -28.5550   11.6630 C.3   166  HIS166      0.0785
    169  CG         9.3280  -28.3270   12.8440 C.ar  166  HIS166      0.0821
    170  ND1        8.9160  -28.5170   14.1460 N.ar  166  HIS166     -0.2267
    171  CD2       10.6150  -27.9060   12.9170 C.ar  166  HIS166      0.1154
    172  CE1        9.9070  -28.2190   14.9680 C.ar  166  HIS166      0.1986
    173  NE2       10.9520  -27.8560   14.2480 N.ar  166  HIS166     -0.2212
    174  N          7.2610  -25.5080   12.7260 N.am  167  GLY167     -0.1954
    175  CA         7.5080  -24.0720   12.8050 C.3   167  GLY167      0.1869
    176  C          8.9270  -23.6930   13.2040 C.2   167  GLY167      0.2309
    177  O          9.4140  -24.1010   14.2440 O.2   167  GLY167     -0.2863
    178  N          5.0650  -21.0730    3.4510 N.3   213  PHE213     -0.1241
    179  CA         4.2210  -20.1500    4.2530 C.3   213  PHE213      0.1605
    180  C          5.0100  -19.2290    5.2030 C.2   213  PHE213      0.2264
    181  O          4.9750  -19.3920    6.4380 O.2   213  PHE213     -0.2867
    182  CB         3.1610  -20.9180    5.0450 C.3   213  PHE213      0.0534
    183  CG         2.2970  -21.7860    4.1970 C.ar  213  PHE213     -0.0203
    184  CD1        1.1800  -21.2610    3.5570 C.ar  213  PHE213     -0.0042
    185  CD2        2.5810  -23.1280    4.0460 C.ar  213  PHE213     -0.0042
    186  CE1        0.3690  -22.0650    2.7650 C.ar  213  PHE213     -0.0003
    187  CE2        1.7840  -23.9230    3.2630 C.ar  213  PHE213     -0.0003
    188  CZ         0.6620  -23.3760    2.6190 C.ar  213  PHE213     -0.0000
@<TRIPOS>BOND
     1   140   138   am
     2   108   107    2
     3   139   138    2
     4   138   137    1
     5   107   106    1
     6   111   113   ar
     7   111   110   ar
     8   113   115   ar
     9   137   136    1
    10   109   110    1
    11   109   106    1
    12   105   106    1
    13   110   112   ar
    14   115   116    1
    15   115   114   ar
    16   136   133    1
    17   112   114   ar
    18   132   133    1
    19   133   134    1
    20   147   146    2
    21   148   146   am
    22   146   145    1
    23   134   135    2
    24   134   141   am
    25   141   142    1
    26   145   142    1
    27   188   186   ar
    28   188   187   ar
    29    99    98    2
    30   142   143    1
    31   186   184   ar
    32   187   185   ar
    33    98    97    1
    34   178   179    1
    35   184   183   ar
    36   185   183   ar
    37   143   144    2
    38   143   149   am
    39   183   182    1
    40   179   182    1
    41   179   180    1
    42   100    97    1
    43   100   101    1
    44    97    96    1
    45   149   150    1
    46   154   153    1
    47   103   102   ar
    48   180   181    2
    49   102   101    1
    50   102   104   ar
    51   150   153    1
    52   150   151    1
    53   153   155    1
    54   120   119    2
    55   152   151    2
    56   151   156   am
    57   119   118    1
    58   124   123    2
    59   163   161   am
    60   117   118    1
    61   156   157    1
    62   123   122    1
    63   125   122    1
    64   125   126    1
    65   130   129    1
    66    88    86    1
    67   161   160    1
    68   161   162    2
    69   121   122    1
    70   127   126    1
    71   127   128    1
    72   160   157    1
    73   157   158    1
    74    72    70   ar
    75    72    73   ar
    76   129   128    2
    77   129   131    1
    78    86    87    1
    79    86    83    1
    80    70    68   ar
    81    73    71   ar
    82   164   158   am
    83   164   165    1
    84   167   166    2
    85   158   159    2
    86    81    80    1
    87    68    67    1
    88    68    69   ar
    89    83    82    1
    90    83    84    1
    91    71    69   ar
    92   166   165    1
    93   166   174   am
    94   168   165    1
    95   168   169    1
    96    82    76   am
    97    67    64    1
    98    84    85    2
    99    84    89   am
   100    80    79    1
   101    95    93    1
   102    78    79    1
   103    78    75    1
   104   174   175    1
   105    89    90    1
   106   175   176    1
   107   169   171   ar
   108   169   170   ar
   109    76    75    1
   110    76    77    2
   111    64    65    1
   112    64    63    1
   113   171   173   ar
   114    74    75    1
   115    74    65   am
   116   176   177    2
   117    65    66    2
   118    62    61    2
   119    93    90    1
   120    93    94    1
   121    90    91    1
   122    63    61   am
   123    61    60    1
   124   170   172   ar
   125    40    39    2
   126   173   172   ar
   127    28    27    2
   128    38    39    1
   129    38    37    1
   130    27    37   am
   131    27    26    1
   132    91    92    2
   133    60    59    1
   134    10     9    1
   135    15    12    1
   136    15    16    1
   137    59    57   am
   138    12    11    1
   139    12    13    1
   140    26    29    1
   141    26    25    1
   142     9     6    1
   143    11     7   am
   144     8     7    2
   145    14    13    2
   146    57    56    1
   147    57    58    2
   148    16    17   ar
   149    16    18   ar
   150    50    49    2
   151     7     6    1
   152    56    55    1
   153    29    30    1
   154    32    34   ar
   155    32    30   ar
   156    17    19   ar
   157     6     5    1
   158    21    18   ar
   159    21    23   ar
   160    18    20   ar
   161    34    35   ar
   162    30    31   ar
   163    49    55   am
   164    49    48    1
   165    19    20   ar
   166    23    24   ar
   167    20    22   ar
   168    35    36    1
   169    35    33   ar
   170     4     3    2
   171    31    33   ar
   172    48    51    1
   173    48    47    1
   174    51    52    1
   175    24    22   ar
   176    54    52   am
   177     3     2    1
   178     2     1    1
   179    52    53    2
   180    47    43   am
   181    44    43    2
   182    43    42    1
   183    42    41    1
   184    42    45    1
   185    45    46    1
