@<TRIPOS>MOLECULE
tmp/3ielA02.pdb
 96 90 0 0 0
SMALL
GASTEIGER

@<TRIPOS>ATOM
      1  N         -0.1350   -3.7930   21.9360 N.3     2  ARG2       -0.1245
      2  CA         0.7350   -4.9700   22.0060 C.3     2  ARG2        0.1563
      3  C          2.1770   -4.5100   22.2080 C.2     2  ARG2        0.2260
      4  O          2.5260   -3.3710   21.8990 O.2     2  ARG2       -0.2867
      5  CB         0.6730   -5.7820   20.7190 C.3     2  ARG2        0.0307
      6  CG        -0.6530   -6.4210   20.4010 C.3     2  ARG2        0.0489
      7  CD        -0.6010   -6.9330   18.9680 C.3     2  ARG2        0.2205
      8  NE        -0.5660   -5.8250   18.0120 N.pl3   2  ARG2       -0.0865
      9  CZ        -0.0300   -5.8920   16.7940 C.cat   2  ARG2        0.5346
     10  NH1       -0.0550   -4.8260   15.9990 N.pl3   2  ARG2        0.1354
     11  NH2        0.5430   -7.0150   16.3740 N.pl3   2  ARG2        0.1354
     12  N          6.2060   -5.8420   21.5090 N.3     4  VAL4       -0.1245
     13  CA         7.0370   -6.8280   20.8380 C.3     4  VAL4        0.1561
     14  C          8.4900   -6.8450   21.3050 C.2     4  VAL4        0.2260
     15  O          9.2340   -5.8810   21.1120 O.2     4  VAL4       -0.2867
     16  CB         7.0020   -6.6020   19.3130 C.3     4  VAL4        0.0252
     17  CG1        7.5680   -7.8090   18.6030 C.3     4  VAL4        0.0019
     18  CG2        5.5610   -6.3370   18.8630 C.3     4  VAL4        0.0019
     19  N         12.2680   -7.3050   21.2050 N.3     6  PHE6       -0.1241
     20  CA        13.2820   -7.3670   20.1540 C.3     6  PHE6        0.1605
     21  C         14.6980   -7.3890   20.7180 C.2     6  PHE6        0.2264
     22  O         15.6440   -6.9040   20.0900 O.2     6  PHE6       -0.2867
     23  CB        13.0980   -6.2170   19.1540 C.3     6  PHE6        0.0534
     24  CG        12.0190   -6.4770   18.1210 C.ar    6  PHE6       -0.0203
     25  CD1       12.1770   -7.4850   17.1720 C.ar    6  PHE6       -0.0042
     26  CD2       10.8480   -5.7210   18.1050 C.ar    6  PHE6       -0.0042
     27  CE1       11.1790   -7.7430   16.2120 C.ar    6  PHE6       -0.0003
     28  CE2        9.8440   -5.9660   17.1550 C.ar    6  PHE6       -0.0003
     29  CZ        10.0110   -6.9840   16.2030 C.ar    6  PHE6       -0.0000
     30  N          9.3670   -3.0890   20.9340 N.3    18  LEU18      -0.1245
     31  CA         8.4990   -2.2570   20.1140 C.3    18  LEU18       0.1561
     32  C          7.0800   -2.2240   20.6270 C.2    18  LEU18       0.2260
     33  O          6.4060   -3.2530   20.7130 O.2    18  LEU18      -0.2867
     34  CB         8.5160   -2.7370   18.6570 C.3    18  LEU18       0.0270
     35  CG         7.8970   -1.7750   17.6470 C.3    18  LEU18       0.0019
     36  CD1        8.5160   -0.3830   17.7910 C.3    18  LEU18       0.0001
     37  CD2        8.1310   -2.3130   16.2380 C.3    18  LEU18       0.0001
     38  N          3.3270   -1.2500   20.1370 N.3    20  LEU20      -0.1245
     39  CA         2.3610   -1.0220   19.0720 C.3    20  LEU20       0.1561
     40  C          1.0010   -0.6830   19.6640 C.2    20  LEU20       0.2260
     41  O          0.4170   -1.4750   20.4060 O.2    20  LEU20      -0.2867
     42  CB         2.2610   -2.2720   18.2020 C.3    20  LEU20       0.0270
     43  CG         3.6110   -2.6760   17.6020 C.3    20  LEU20       0.0019
     44  CD1        3.5000   -4.0300   16.9010 C.3    20  LEU20       0.0001
     45  CD2        4.0710   -1.5850   16.6360 C.3    20  LEU20       0.0001
     46  N          4.0930    3.5230   16.6730 N.3    25  ARG25      -0.1245
     47  CA         5.1290    2.5600   17.0120 C.3    25  ARG25       0.1563
     48  C          6.2020    3.2510   17.8490 C.2    25  ARG25       0.2260
     49  O          6.9030    4.1440   17.3720 O.2    25  ARG25      -0.2867
     50  CB         5.7530    1.9760   15.7410 C.3    25  ARG25       0.0307
     51  CG         4.7490    1.3530   14.7820 C.3    25  ARG25       0.0489
     52  CD         5.4610    0.6720   13.6330 C.3    25  ARG25       0.2205
     53  NE         4.5370    0.0170   12.7180 N.pl3  25  ARG25      -0.0865
     54  CZ         4.9140   -0.6490   11.6310 C.cat  25  ARG25       0.5346
     55  NH1        6.2020   -0.7480   11.3260 N.pl3  25  ARG25       0.1354
     56  NH2        4.0050   -1.2090   10.8360 N.pl3  25  ARG25       0.1354
     57  N         14.6430   -6.6470   13.0880 N.3    46  GLY46      -0.1210
     58  CA        13.4910   -7.5200   13.0890 C.3    46  GLY46       0.1956
     59  C         12.2710   -6.6840   12.7660 C.2    46  GLY46       0.2612
     60  O         11.1780   -7.2110   12.5720 O.2    46  GLY46      -0.2717
     61  N         12.4630   -5.3680   12.7500 N.am   47  PHE47      -0.1962
     62  CA        11.4060   -4.4180   12.4250 C.3    47  PHE47       0.1771
     63  C         12.0070   -3.3380   11.5320 C.2    47  PHE47       0.2619
     64  O         13.2260   -3.2790   11.3560 O.2    47  PHE47      -0.2715
     65  CB        10.8020   -3.7890   13.6890 C.3    47  PHE47       0.0574
     66  CG        11.8070   -3.1540   14.5990 C.ar   47  PHE47      -0.0200
     67  CD1       12.5080   -3.9220   15.5280 C.ar   47  PHE47      -0.0042
     68  CD2       12.0580   -1.7860   14.5360 C.ar   47  PHE47      -0.0042
     69  CE1       13.4430   -3.3330   16.3810 C.ar   47  PHE47      -0.0003
     70  CE2       12.9940   -1.1900   15.3850 C.ar   47  PHE47      -0.0003
     71  CZ        13.6830   -1.9660   16.3050 C.ar   47  PHE47      -0.0000
     72  N         11.1500   -2.4960   10.9610 N.am   48  ASP48      -0.1971
     73  CA        11.5920   -1.4260   10.0710 C.3    48  ASP48       0.1709
     74  C         11.8150   -0.1400   10.8400 C.2    48  ASP48       0.2293
     75  O         10.8710    0.5150   11.2770 O.2    48  ASP48      -0.2864
     76  CB        10.5580   -1.2050    8.9520 C.3    48  ASP48       0.1436
     77  CG        10.9480   -0.0740    7.9890 C.2    48  ASP48       0.3671
     78  OD1       12.0960    0.4300    8.0580 O.co2  48  ASP48      -0.2456
     79  OD2       10.0940    0.3060    7.1540 O.co2  48  ASP48      -0.2456
     80  N         10.6640  -11.4670   18.9080 N.3   426  GLY426     -0.1210
     81  CA         9.7640  -11.2270   17.7980 C.3   426  GLY426      0.1956
     82  C          8.2970  -11.5500   18.0050 C.2   426  GLY426      0.2612
     83  O          7.4920  -11.2770   17.1230 O.2   426  GLY426     -0.2717
     84  N          7.9320  -12.1140   19.1550 N.am  427  GLU427     -0.1965
     85  CA         6.5350  -12.4740   19.4000 C.3   427  GLU427      0.1733
     86  C          5.7220  -11.4620   20.1990 C.2   427  GLU427      0.2616
     87  O          5.8690  -11.3390   21.4150 O.2   427  GLU427     -0.2715
     88  CB         6.4650  -13.8620   20.0600 C.3   427  GLU427      0.0429
     89  CG         6.7070  -15.0070   19.0670 C.3   427  GLU427      0.1163
     90  CD         6.9190  -16.3610   19.7270 C.2   427  GLU427      0.3649
     91  OE1        6.1320  -16.7180   20.6360 O.co2 427  GLU427     -0.2457
     92  OE2        7.8680  -17.0760   19.3210 O.co2 427  GLU427     -0.2457
     93  N          4.8540  -10.7410   19.4970 N.am  428  GLY428     -0.1955
     94  CA         4.0150   -9.7440   20.1370 C.3   428  GLY428      0.1869
     95  C          3.1790  -10.2930   21.2830 C.2   428  GLY428      0.2309
     96  O          2.7630  -11.4590   21.2830 O.2   428  GLY428     -0.2863
@<TRIPOS>BOND
     1    79    77   ar
     2    77    78   ar
     3    77    76    1
     4    76    73    1
     5    73    74    1
     6    73    72    1
     7    56    54    1
     8    74    75    2
     9    72    63   am
    10    55    54    1
    11    64    63    2
    12    63    62    1
    13    54    53    2
    14    62    61    1
    15    62    65    1
    16    60    59    2
    17    53    52    1
    18    61    59   am
    19    59    58    1
    20    57    58    1
    21    52    51    1
    22    65    66    1
    23    68    66   ar
    24    68    70   ar
    25    66    67   ar
    26    51    50    1
    27    70    71   ar
    28    67    69   ar
    29    50    47    1
    30    10     9    1
    31    29    27   ar
    32    29    28   ar
    33    27    25   ar
    34    37    35    1
    35    71    69   ar
    36    11     9    1
    37    45    43    1
    38    46    47    1
    39     9     8    2
    40    44    43    1
    41    47    48    1
    42    83    82    2
    43    28    26   ar
    44    25    24   ar
    45    49    48    2
    46    43    42    1
    47    35    36    1
    48    35    34    1
    49    81    82    1
    50    81    80    1
    51    82    84   am
    52     8     7    1
    53    26    24   ar
    54    24    23    1
    55    42    39    1
    56    17    16    1
    57    34    31    1
    58    18    16    1
    59     7     6    1
    60    89    90    1
    61    89    88    1
    62    39    40    1
    63    39    38    1
    64    23    20    1
    65    84    85    1
    66    16    13    1
    67    92    90   ar
    68    85    88    1
    69    85    86    1
    70    93    94    1
    71    93    86   am
    72    40    41    2
    73    90    91   ar
    74    22    21    2
    75    31    32    1
    76    31    30    1
    77    94    95    1
    78    20    21    1
    79    20    19    1
    80    86    87    2
    81     6     5    1
    82    32    33    2
    83     5     2    1
    84    13    14    1
    85    13    12    1
    86    15    14    2
    87    95    96    2
    88     4     3    2
    89     1     2    1
    90     2     3    1
