@<TRIPOS>MOLECULE
tmp/3ielA01.pdb
 166 159 0 0 0
SMALL
GASTEIGER

@<TRIPOS>ATOM
      1  N         20.3600  -11.3650   28.8400 N.3    12  VAL12      -0.1231
      2  CA        20.4250  -10.0440   29.4690 C.3    12  VAL12       0.1692
      3  C         20.8080   -8.8180   28.6450 C.2    12  VAL12       0.2592
      4  O         20.7210   -7.7110   29.1600 O.2    12  VAL12      -0.2718
      5  CB        21.3380  -10.0730   30.7230 C.3    12  VAL12       0.0266
      6  CG1       20.8720  -11.1740   31.6680 C.3    12  VAL12       0.0020
      7  CG2       22.7900  -10.2980   30.3180 C.3    12  VAL12       0.0020
      8  N         21.2260   -8.9840   27.3910 N.am   13  THR13      -0.1953
      9  CA        21.5900   -7.8100   26.5870 C.3    13  THR13       0.1897
     10  C         20.7080   -7.6120   25.3440 C.2    13  THR13       0.2313
     11  O         19.8640   -8.4530   25.0280 O.2    13  THR13      -0.2863
     12  CB        23.0790   -7.8540   26.1500 C.3    13  THR13       0.1794
     13  OG1       23.2540   -8.7750   25.0660 O.3    13  THR13      -0.2208
     14  CG2       23.9600   -8.2860   27.3220 C.3    13  THR13       0.0378
     15  N         23.1670    2.9700   29.8690 N.3    61  HIS61      -0.1241
     16  CA        24.0220    1.8050   29.6150 C.3    61  HIS61       0.1621
     17  C         23.9900    1.3360   28.1660 C.2    61  HIS61       0.2264
     18  O         22.9710    1.4050   27.4800 O.2    61  HIS61      -0.2867
     19  CB        23.6560    0.6320   30.5370 C.3    61  HIS61       0.0745
     20  CG        24.3120    0.6870   31.8870 C.ar   61  HIS61       0.0817
     21  ND1       23.9090   -0.1030   32.9430 N.ar   61  HIS61      -0.2268
     22  CD2       25.3470    1.4300   32.3500 C.ar   61  HIS61       0.1154
     23  CE1       24.6640    0.1500   33.9970 C.ar   61  HIS61       0.1986
     24  NE2       25.5440    1.0770   33.6640 N.ar   61  HIS61      -0.2212
     25  N         23.9730   -1.6430   26.8810 N.3    63  ASP63      -0.1239
     26  CA        23.0630   -2.7120   26.4960 C.3    63  ASP63       0.1674
     27  C         21.6130   -2.2210   26.4000 C.2    63  ASP63       0.2266
     28  O         20.6880   -3.0170   26.2160 O.2    63  ASP63      -0.2867
     29  CB        23.2040   -3.9200   27.4340 C.3    63  ASP63       0.1410
     30  CG        22.6840   -3.6570   28.8340 C.2    63  ASP63       0.3668
     31  OD1       23.0470   -2.6280   29.4430 O.co2  63  ASP63      -0.2456
     32  OD2       21.9090   -4.5000   29.3360 O.co2  63  ASP63      -0.2456
     33  N         18.3270    2.7550   39.1700 N.3   141  HIS141     -0.1241
     34  CA        19.3630    1.8360   38.7230 C.3   141  HIS141      0.1621
     35  C         20.5870    2.5780   38.1850 C.2   141  HIS141      0.2264
     36  O         21.6980    2.0380   38.1480 O.2   141  HIS141     -0.2867
     37  CB        18.7710    0.9010   37.6590 C.3   141  HIS141      0.0745
     38  CG        19.7960    0.1040   36.9170 C.ar  141  HIS141      0.0817
     39  ND1       20.5090   -0.9170   37.5030 N.ar  141  HIS141     -0.2268
     40  CD2       20.2750    0.2270   35.6590 C.ar  141  HIS141      0.1154
     41  CE1       21.3890   -1.3890   36.6370 C.ar  141  HIS141      0.1986
     42  NE2       21.2690   -0.7100   35.5100 N.ar  141  HIS141     -0.2212
     43  N         16.8190  -10.3170   36.1340 N.3   188  THR188     -0.1203
     44  CA        18.2350  -10.6600   36.1650 C.3   188  THR188      0.1994
     45  C         18.5560  -11.6090   37.3290 C.2   188  THR188      0.2617
     46  O         19.2100  -12.6490   37.1340 O.2   188  THR188     -0.2717
     47  CB        19.1250   -9.3950   36.2770 C.3   188  THR188      0.1784
     48  OG1       18.6560   -8.3760   35.3720 O.3   188  THR188     -0.2211
     49  CG2       20.5670   -9.7510   35.9070 C.3   188  THR188      0.0376
     50  N         18.0980  -11.2460   38.5270 N.am  189  TYR189     -0.1975
     51  CA        18.2980  -12.0670   39.7240 C.3   189  TYR189      0.1639
     52  C         16.9700  -12.7230   40.1300 C.2   189  TYR189      0.2290
     53  O         16.5940  -12.7310   41.3120 O.2   189  TYR189     -0.2864
     54  CB        18.8370  -11.2260   40.8970 C.3   189  TYR189      0.0560
     55  CG        20.2840  -10.8320   40.7380 C.ar  189  TYR189     -0.0198
     56  CD1       20.6580   -9.7740   39.8990 C.ar  189  TYR189     -0.0009
     57  CD2       21.2890  -11.5550   41.3750 C.ar  189  TYR189     -0.0009
     58  CE1       21.9920   -9.4570   39.6990 C.ar  189  TYR189      0.0417
     59  CE2       22.6320  -11.2490   41.1840 C.ar  189  TYR189      0.0417
     60  CZ        22.9760  -10.2010   40.3410 C.ar  189  TYR189      0.1957
     61  OH        24.3070   -9.9350   40.1020 O.3   189  TYR189     -0.2866
     62  N         17.5140  -15.3470   43.0080 N.3   192  ARG192     -0.1245
     63  CA        17.9800  -15.0720   44.3670 C.3   192  ARG192      0.1563
     64  C         18.1180  -13.6210   44.8210 C.2   192  ARG192      0.2260
     65  O         18.2220  -12.6970   44.0130 O.2   192  ARG192     -0.2867
     66  CB        19.3190  -15.7930   44.6250 C.3   192  ARG192      0.0307
     67  CG        20.3380  -15.8450   43.4550 C.3   192  ARG192      0.0489
     68  CD        21.1240  -14.5480   43.2830 C.3   192  ARG192      0.2205
     69  NE        22.3590  -14.6960   42.5000 N.pl3 192  ARG192     -0.0865
     70  CZ        22.4410  -14.7360   41.1670 C.cat 192  ARG192      0.5346
     71  NH1       21.3580  -14.6460   40.4020 N.pl3 192  ARG192      0.1354
     72  NH2       23.6270  -14.8330   40.5860 N.pl3 192  ARG192      0.1354
     73  N         32.8270   -1.4380   36.6270 N.3   223  PHE223     -0.1241
     74  CA        32.2280   -0.9360   35.4060 C.3   223  PHE223      0.1605
     75  C         32.4800    0.5720   35.5020 C.2   223  PHE223      0.2264
     76  O         32.4770    1.1460   36.5990 O.2   223  PHE223     -0.2867
     77  CB        30.7160   -1.2090   35.3860 C.3   223  PHE223      0.0534
     78  CG        30.3480   -2.6510   35.6400 C.ar  223  PHE223     -0.0203
     79  CD1       29.6070   -3.0060   36.7710 C.ar  223  PHE223     -0.0042
     80  CD2       30.7450   -3.6530   34.7560 C.ar  223  PHE223     -0.0042
     81  CE1       29.2670   -4.3410   37.0180 C.ar  223  PHE223     -0.0003
     82  CE2       30.4120   -4.9950   34.9900 C.ar  223  PHE223     -0.0003
     83  CZ        29.6720   -5.3420   36.1250 C.ar  223  PHE223     -0.0000
     84  N         29.1720    1.9400   38.8800 N.3   227  ARG227     -0.1245
     85  CA        29.7330    1.1180   39.9420 C.3   227  ARG227      0.1563
     86  C         30.9740    1.7720   40.5670 C.2   227  ARG227      0.2260
     87  O         31.0600    1.9040   41.7840 O.2   227  ARG227     -0.2867
     88  CB        30.0840   -0.2720   39.3830 C.3   227  ARG227      0.0307
     89  CG        30.4170   -1.3560   40.4330 C.3   227  ARG227      0.0489
     90  CD        29.2860   -1.5410   41.4490 C.3   227  ARG227      0.2205
     91  NE        27.9860   -1.6600   40.7880 N.pl3 227  ARG227     -0.0865
     92  CZ        27.4750   -2.7950   40.3220 C.cat 227  ARG227      0.5346
     93  NH1       26.2930   -2.7680   39.7250 N.pl3 227  ARG227      0.1354
     94  NH2       28.1220   -3.9540   40.4700 N.pl3 227  ARG227      0.1354
     95  N         34.2290   -7.0460   33.9690 N.3   315  MET315     -0.1245
     96  CA        34.0870   -8.4910   33.9000 C.3   315  MET315      0.1570
     97  C         35.3470   -9.1630   33.3590 C.2   315  MET315      0.2261
     98  O         35.2960  -10.2440   32.7760 O.2   315  MET315     -0.2867
     99  CB        32.8500   -8.8500   33.0660 C.3   315  MET315      0.0387
    100  CG        31.5890   -8.1810   33.5990 C.3   315  MET315      0.0595
    101  SD        30.0030   -8.9580   33.1950 S.3   315  MET315     -0.1393
    102  CE        29.5970   -8.1520   31.6500 C.3   315  MET315      0.0692
    103  N         31.0850   -6.6070   41.3630 N.3   340  GLY340     -0.1210
    104  CA        30.1680   -6.7210   40.2440 C.3   340  GLY340      0.1956
    105  C         30.1340   -8.1580   39.7490 C.2   340  GLY340      0.2611
    106  O         31.1580   -8.8460   39.7270 O.2   340  GLY340     -0.2717
    107  N         28.9530   -8.6120   39.3530 N.am  341  TYR341     -0.1976
    108  CA        28.7750   -9.9710   38.8570 C.3   341  TYR341      0.1639
    109  C         29.8470  -10.4040   37.8560 C.2   341  TYR341      0.2290
    110  O         30.3020   -9.6150   37.0300 O.2   341  TYR341     -0.2864
    111  CB        27.3850  -10.1010   38.2160 C.3   341  TYR341      0.0560
    112  CG        27.1240  -11.4280   37.5320 C.ar  341  TYR341     -0.0198
    113  CD1       27.3630  -11.5970   36.1670 C.ar  341  TYR341     -0.0009
    114  CD2       26.6430  -12.5190   38.2530 C.ar  341  TYR341     -0.0009
    115  CE1       27.1270  -12.8260   35.5400 C.ar  341  TYR341      0.0417
    116  CE2       26.4040  -13.7450   37.6370 C.ar  341  TYR341      0.0417
    117  CZ        26.6460  -13.8920   36.2860 C.ar  341  TYR341      0.1957
    118  OH        26.4010  -15.1070   35.6890 O.3   341  TYR341     -0.2866
    119  N         25.5550   -5.1970   43.9790 N.3   378  SER378     -0.1202
    120  CA        24.8100   -5.3350   42.7340 C.3   378  SER378      0.2020
    121  C         23.8920   -4.1600   42.4580 C.2   378  SER378      0.2619
    122  O         23.2810   -3.6200   43.3760 O.2   378  SER378     -0.2717
    123  CB        23.9680   -6.6180   42.7630 C.3   378  SER378      0.2103
    124  OG        23.0290   -6.6150   41.7000 O.3   378  SER378     -0.2182
    125  N         23.7790   -3.8010   41.1810 N.am  379  GLY379     -0.1942
    126  CA        22.9260   -2.6940   40.7660 C.3   379  GLY379      0.2014
    127  C         21.5130   -3.0860   40.3230 C.2   379  GLY379      0.2638
    128  O         20.7320   -2.2430   39.8770 O.2   379  GLY379     -0.2714
    129  N         21.1750   -4.3630   40.4550 N.am  380  HIS380     -0.1973
    130  CA        19.8430   -4.8490   40.0790 C.3   380  HIS380      0.1656
    131  C         19.0360   -5.2700   41.2950 C.2   380  HIS380      0.2291
    132  O         19.5950   -5.7040   42.2960 O.2   380  HIS380     -0.2864
    133  CB        19.9680   -6.0540   39.1580 C.3   380  HIS380      0.0771
    134  CG        20.2620   -5.7050   37.7370 C.ar  380  HIS380      0.0820
    135  ND1       19.2820   -5.3090   36.8530 N.ar  380  HIS380     -0.2267
    136  CD2       21.4180   -5.7290   37.0340 C.ar  380  HIS380      0.1154
    137  CE1       19.8210   -5.1100   35.6640 C.ar  380  HIS380      0.1986
    138  NE2       21.1160   -5.3580   35.7460 N.ar  380  HIS380     -0.2212
    139  N         15.2120   -9.8320   30.0830 N.3   400  HIS400     -0.1241
    140  CA        16.4490   -9.4870   30.7520 C.3   400  HIS400      0.1621
    141  C         16.8960  -10.4860   31.8190 C.2   400  HIS400      0.2264
    142  O         16.9910  -10.1580   33.0110 O.2   400  HIS400     -0.2867
    143  CB        16.2910   -8.0940   31.3620 C.3   400  HIS400      0.0745
    144  CG        17.5860   -7.3790   31.5540 C.ar  400  HIS400      0.0817
    145  ND1       18.4850   -7.7210   32.5420 N.ar  400  HIS400     -0.2268
    146  CD2       18.1730   -6.3980   30.8290 C.ar  400  HIS400      0.1154
    147  CE1       19.5740   -6.9870   32.4100 C.ar  400  HIS400      0.1986
    148  NE2       19.4110   -6.1780   31.3770 N.ar  400  HIS400     -0.2212
    149  N         18.6900  -14.8870   32.3230 N.3   402  GLU402     -0.1245
    150  CA        18.9430  -16.2260   31.8300 C.3   402  GLU402      0.1567
    151  C         17.6490  -16.9870   32.0530 C.2   402  GLU402      0.2260
    152  O         16.9400  -16.7400   33.0300 O.2   402  GLU402     -0.2867
    153  CB        20.0800  -16.8720   32.6100 C.3   402  GLU402      0.0388
    154  CG        21.4450  -16.3470   32.2160 C.3   402  GLU402      0.1160
    155  CD        22.4150  -16.3560   33.3770 C.2   402  GLU402      0.3649
    156  OE1       22.1820  -15.5930   34.3350 O.co2 402  GLU402     -0.2457
    157  OE2       23.4020  -17.1230   33.3350 O.co2 402  GLU402     -0.2457
    158  N         16.9850  -18.3600   35.5840 N.3   405  LYS405     -0.1245
    159  CA        16.7820  -17.3190   36.5850 C.3   405  LYS405      0.1561
    160  C         15.3670  -16.7940   36.4030 C.2   405  LYS405      0.2260
    161  O         14.6450  -16.5580   37.3720 O.2   405  LYS405     -0.2867
    162  CB        17.7710  -16.1570   36.3940 C.3   405  LYS405      0.0271
    163  CG        19.2240  -16.5500   36.1950 C.3   405  LYS405      0.0035
    164  CD        19.7910  -17.1830   37.4200 C.3   405  LYS405      0.0206
    165  CE        21.2610  -17.4850   37.2440 C.3   405  LYS405      0.1093
    166  NZ        22.0030  -16.2480   36.8930 N.3   405  LYS405     -0.1314
@<TRIPOS>BOND
     1    11    10    2
     2    13    12    1
     3    10     9    1
     4    12     9    1
     5    12    14    1
     6    28    27    2
     7    27    26    1
     8    26    25    1
     9    26    29    1
    10     9     8    1
    11     8     3   am
    12    29    30    1
    13    18    17    2
    14    17    16    1
    15     3     4    2
    16     3     2    1
    17    30    32   ar
    18    30    31   ar
    19     1     2    1
    20     2     5    1
    21    16    15    1
    22    16    19    1
    23   139   140    1
    24     7     5    1
    25    19    20    1
    26     5     6    1
    27   140   143    1
    28   140   141    1
    29   146   148   ar
    30   146   144   ar
    31   143   144    1
    32   148   147   ar
    33   144   145   ar
    34   102   101    1
    35   141   142    2
    36   150   151    1
    37   150   149    1
    38   150   153    1
    39    20    22   ar
    40    20    21   ar
    41   151   152    2
    42   154   153    1
    43   154   155    1
    44    22    24   ar
    45   147   145   ar
    46    98    97    2
    47    21    23   ar
    48    99   100    1
    49    99    96    1
    50   101   100    1
    51   157   155   ar
    52    97    96    1
    53   155   156   ar
    54    24    23   ar
    55    96    95    1
    56    80    82   ar
    57    80    78   ar
    58    82    83   ar
    59    48    47    1
    60    77    74    1
    61    77    78    1
    62    74    75    1
    63    74    73    1
    64    75    76    2
    65    42    40   ar
    66    42    41   ar
    67   115   113   ar
    68   115   117   ar
    69   158   159    1
    70    78    79   ar
    71    40    38   ar
    72   137   138   ar
    73   137   135   ar
    74   118   117    1
    75   138   136   ar
    76    49    47    1
    77    83    81   ar
    78    43    44    1
    79    44    47    1
    80    44    45    1
    81   113   112   ar
    82   163   162    1
    83   163   164    1
    84   117   116   ar
    85   162   159    1
    86   160   159    1
    87   160   161    2
    88    41    39   ar
    89    79    81   ar
    90   135   134   ar
    91   166   165    1
    92    38    39   ar
    93    38    37    1
    94   110   109    2
    95   136   134   ar
    96    46    45    2
    97   165   164    1
    98    45    50   am
    99   112   111    1
   100   112   114   ar
   101   116   114   ar
   102    37    34    1
   103   134   133    1
   104   109   108    1
   105    36    35    2
   106    35    34    1
   107   111   108    1
   108    50    51    1
   109    34    33    1
   110   108   107    1
   111    84    85    1
   112   133   130    1
   113   107   105   am
   114    88    85    1
   115    88    89    1
   116    58    56   ar
   117    58    60   ar
   118    51    52    1
   119    51    54    1
   120    93    92    1
   121   106   105    2
   122   105   104    1
   123   128   127    2
   124    56    55   ar
   125    85    86    1
   126   130   129    1
   127   130   131    1
   128    61    60    1
   129    52    53    2
   130   104   103    1
   131    92    94    1
   132    92    91    2
   133   127   129   am
   134   127   126    1
   135    60    59   ar
   136    71    70    1
   137    89    90    1
   138    86    87    2
   139    72    70    1
   140    55    54    1
   141    55    57   ar
   142   126   125    1
   143    91    90    1
   144    70    69    2
   145   125   121   am
   146    59    57   ar
   147   131   132    2
   148   124   123    1
   149   121   120    1
   150   121   122    2
   151    69    68    1
   152   120   123    1
   153   120   119    1
   154    62    63    1
   155    68    67    1
   156    67    66    1
   157    65    64    2
   158    63    66    1
   159    63    64    1
