@<TRIPOS>MOLECULE
tmp/3iemB00.pdb
 139 134 0 0 0
SMALL
GASTEIGER

@<TRIPOS>ATOM
      1  N         57.4070   62.0450   34.8620 N.3     2  ARG2       -0.1245
      2  CA        58.2820   61.4010   35.8310 C.3     2  ARG2        0.1563
      3  C         57.8590   59.9550   36.0610 C.2     2  ARG2        0.2260
      4  O         56.6820   59.6020   35.9090 O.2     2  ARG2       -0.2867
      5  CB        58.2370   62.1330   37.1730 C.3     2  ARG2        0.0307
      6  CG        58.9220   63.4810   37.2090 C.3     2  ARG2        0.0489
      7  CD        58.2840   64.3430   38.2870 C.3     2  ARG2        0.2205
      8  NE        56.9270   64.7250   37.8960 N.pl3   2  ARG2       -0.0865
      9  CZ        55.9770   65.1270   38.7360 C.cat   2  ARG2        0.5346
     10  NH1       54.7770   65.4520   38.2680 N.pl3   2  ARG2        0.1354
     11  NH2       56.2170   65.1900   40.0420 N.pl3   2  ARG2        0.1354
     12  N         58.3200   57.1100   39.0720 N.3     4  VAL4       -0.1245
     13  CA        58.7740   56.8570   40.4340 C.3     4  VAL4        0.1561
     14  C         58.7830   55.3520   40.7320 C.2     4  VAL4        0.2260
     15  O         57.7370   54.7100   40.7660 O.2     4  VAL4       -0.2867
     16  CB        57.8600   57.5760   41.4710 C.3     4  VAL4        0.0252
     17  CG1       58.5560   57.6390   42.8390 C.3     4  VAL4        0.0019
     18  CG2       57.5120   58.9670   40.9800 C.3     4  VAL4        0.0019
     19  N         58.6700   52.1800   42.7770 N.3     6  PHE6       -0.1241
     20  CA        58.1530   51.8450   44.0940 C.3     6  PHE6        0.1605
     21  C         58.2900   50.3610   44.3760 C.2     6  PHE6        0.2264
     22  O         57.4720   49.7700   45.0820 O.2     6  PHE6       -0.2867
     23  CB        56.6880   52.2610   44.2120 C.3     6  PHE6        0.0534
     24  CG        56.4960   53.7140   44.5310 C.ar    6  PHE6       -0.0203
     25  CD1       56.9830   54.2470   45.7270 C.ar    6  PHE6       -0.0042
     26  CD2       55.8560   54.5600   43.6290 C.ar    6  PHE6       -0.0042
     27  CE1       56.8380   55.6010   46.0160 C.ar    6  PHE6       -0.0003
     28  CE2       55.7050   55.9240   43.9120 C.ar    6  PHE6       -0.0003
     29  CZ        56.1980   56.4450   45.1070 C.ar    6  PHE6       -0.0000
     30  N         55.2520   54.0940   39.5590 N.3    18  LEU18      -0.1245
     31  CA        54.2340   55.1090   39.3060 C.3    18  LEU18       0.1561
     32  C         54.6590   56.1350   38.2590 C.2    18  LEU18       0.2260
     33  O         55.6330   56.8730   38.4520 O.2    18  LEU18      -0.2867
     34  CB        53.8840   55.8300   40.6070 C.3    18  LEU18       0.0270
     35  CG        52.6810   56.7580   40.4940 C.3    18  LEU18       0.0019
     36  CD1       51.4700   55.9680   39.9800 C.3    18  LEU18       0.0001
     37  CD2       52.4060   57.3860   41.8570 C.3    18  LEU18       0.0001
     38  N         54.0430   59.5010   36.1620 N.3    20  LEU20      -0.1245
     39  CA        53.3970   60.8000   36.3200 C.3    20  LEU20       0.1561
     40  C         53.5410   61.5960   35.0210 C.2    20  LEU20       0.2260
     41  O         54.6430   62.0300   34.6660 O.2    20  LEU20      -0.2867
     42  CB        54.0410   61.5630   37.4770 C.3    20  LEU20       0.0270
     43  CG        53.9850   60.8140   38.8050 C.3    20  LEU20       0.0019
     44  CD1       54.7580   61.5680   39.8670 C.3    20  LEU20       0.0001
     45  CD2       52.5400   60.6370   39.2120 C.3    20  LEU20       0.0001
     46  N         48.2340   59.8520   36.8400 N.3    25  ARG25      -0.1245
     47  CA        49.1490   58.9800   37.5650 C.3    25  ARG25       0.1563
     48  C         48.8050   57.5280   37.2380 C.2    25  ARG25       0.2260
     49  O         47.7680   57.0050   37.6590 O.2    25  ARG25      -0.2867
     50  CB        49.0380   59.2290   39.0660 C.3    25  ARG25       0.0307
     51  CG        49.1630   60.6890   39.4280 C.3    25  ARG25       0.0489
     52  CD        49.2540   60.8880   40.9160 C.3    25  ARG25       0.2205
     53  NE        48.7560   62.2050   41.2840 N.pl3  25  ARG25      -0.0865
     54  CZ        47.4890   62.5800   41.1320 C.cat  25  ARG25       0.5346
     55  NH1       46.6040   61.7300   40.6230 N.pl3  25  ARG25       0.1354
     56  NH2       47.1060   63.8020   41.4860 N.pl3  25  ARG25       0.1354
     57  N         53.7600   50.3410   53.4740 N.3    44  PRO44      -0.2102
     58  CA        52.9030   51.1440   52.5970 C.3    44  PRO44       0.1504
     59  C         53.5310   51.2870   51.2080 C.2    44  PRO44       0.2576
     60  O         54.7550   51.2440   51.0640 O.2    44  PRO44      -0.2718
     61  CB        52.8160   52.4720   53.3370 C.3    44  PRO44       0.0282
     62  CG        54.1990   52.5870   53.9370 C.3    44  PRO44       0.0208
     63  CD        54.4360   51.1890   54.4760 C.3    44  PRO44       0.0893
     64  N         52.6910   51.4420   50.1910 N.am   45  PHE45      -0.1963
     65  CA        53.1590   51.5930   48.8180 C.3    45  PHE45       0.1771
     66  C         54.1680   52.7330   48.6660 C.2    45  PHE45       0.2620
     67  O         55.1790   52.6090   47.9660 O.2    45  PHE45      -0.2715
     68  CB        51.9670   51.8610   47.8970 C.3    45  PHE45       0.0574
     69  CG        51.1290   50.6460   47.6050 C.ar   45  PHE45      -0.0200
     70  CD1       51.5750   49.6750   46.7150 C.ar   45  PHE45      -0.0042
     71  CD2       49.8860   50.4810   48.2040 C.ar   45  PHE45      -0.0042
     72  CE1       50.7940   48.5580   46.4220 C.ar   45  PHE45      -0.0003
     73  CE2       49.0960   49.3650   47.9180 C.ar   45  PHE45      -0.0003
     74  CZ        49.5530   48.4060   47.0250 C.ar   45  PHE45      -0.0000
     75  N         53.8960   53.8460   49.3290 N.am   46  GLY46      -0.1940
     76  CA        54.7760   54.9950   49.2190 C.3    46  GLY46       0.2014
     77  C         54.0180   56.1060   48.5150 C.2    46  GLY46       0.2639
     78  O         54.4990   57.2340   48.4060 O.2    46  GLY46      -0.2714
     79  N         52.8290   55.7600   48.0240 N.am   47  PHE47      -0.1959
     80  CA        51.9370   56.6880   47.3420 C.3    47  PHE47       0.1771
     81  C         50.5120   56.3510   47.7530 C.2    47  PHE47       0.2620
     82  O         50.2190   55.2240   48.1440 O.2    47  PHE47      -0.2715
     83  CB        52.0610   56.5650   45.8160 C.3    47  PHE47       0.0574
     84  CG        51.7880   55.1770   45.2920 C.ar   47  PHE47      -0.0200
     85  CD1       52.8310   54.2700   45.1050 C.ar   47  PHE47      -0.0042
     86  CD2       50.4840   54.7550   45.0510 C.ar   47  PHE47      -0.0042
     87  CE1       52.5790   52.9620   44.6930 C.ar   47  PHE47      -0.0003
     88  CE2       50.2180   53.4450   44.6390 C.ar   47  PHE47      -0.0003
     89  CZ        51.2680   52.5470   44.4620 C.ar   47  PHE47      -0.0000
     90  N         49.6280   57.3330   47.6590 N.am   48  ASP48      -0.1958
     91  CA        48.2230   57.1560   48.0030 C.3    48  ASP48       0.1825
     92  C         47.5160   56.4230   46.8550 C.2    48  ASP48       0.2464
     93  O         47.3660   56.9650   45.7570 O.2    48  ASP48      -0.2730
     94  CB        47.5910   58.5280   48.2180 C.3    48  ASP48       0.1450
     95  CG        46.1580   58.4440   48.6680 C.2    48  ASP48       0.3671
     96  OD1       45.6110   57.3180   48.7160 O.co2  48  ASP48      -0.2456
     97  OD2       45.5770   59.5090   48.9730 O.co2  48  ASP48      -0.2456
     98  N         47.0880   55.1720   47.0850 N.am   49  PRO49      -0.2715
     99  CA        46.4090   54.4310   46.0190 C.3    49  PRO49       0.1536
    100  C         45.1160   55.0570   45.5040 C.2    49  PRO49       0.2598
    101  O         44.6450   54.7120   44.4150 O.2    49  PRO49      -0.2715
    102  CB        46.2030   53.0470   46.6330 C.3    49  PRO49       0.0310
    103  CG        46.2700   53.2920   48.0950 C.3    49  PRO49       0.0237
    104  CD        47.3700   54.2880   48.2210 C.3    49  PRO49       0.0939
    105  N         44.5500   55.9760   46.2770 N.am   50  LYS50      -0.1964
    106  CA        43.3210   56.6460   45.8660 C.3    50  LYS50       0.1728
    107  C         43.6830   57.7240   44.8620 C.2    50  LYS50       0.2616
    108  O         42.8120   58.3090   44.2170 O.2    50  LYS50      -0.2715
    109  CB        42.6180   57.2730   47.0700 C.3    50  LYS50       0.0311
    110  CG        42.2070   56.2540   48.1150 C.3    50  LYS50       0.0038
    111  CD        41.3590   56.8690   49.2200 C.3    50  LYS50       0.0206
    112  CE        40.9840   55.8220   50.2670 C.3    50  LYS50       0.1093
    113  NZ        39.9150   56.2940   51.1950 N.3    50  LYS50      -0.1314
    114  N         44.9840   57.9730   44.7340 N.am   51  GLU51      -0.1977
    115  CA        45.4920   58.9820   43.8110 C.3    51  GLU51       0.1602
    116  C         45.9830   58.3940   42.4890 C.2    51  GLU51       0.2287
    117  O         46.6370   59.0880   41.7050 O.2    51  GLU51      -0.2864
    118  CB        46.6270   59.7790   44.4650 C.3    51  GLU51       0.0415
    119  CG        46.1810   60.7220   45.5840 C.3    51  GLU51       0.1163
    120  CD        45.0000   61.5950   45.1780 C.2    51  GLU51       0.3649
    121  OE1       44.9780   62.0770   44.0240 O.co2  51  GLU51      -0.2457
    122  OE2       44.0940   61.8060   46.0180 O.co2  51  GLU51      -0.2457
    123  N         43.1630   49.3450   49.7880 N.3    74  GLU74      -0.1245
    124  CA        43.5190   50.6610   50.2850 C.3    74  GLU74       0.1567
    125  C         42.8220   51.8500   49.6300 C.2    74  GLU74       0.2260
    126  O         43.2750   52.9840   49.7700 O.2    74  GLU74      -0.2867
    127  CB        45.0420   50.8380   50.2380 C.3    74  GLU74       0.0388
    128  CG        45.7700   49.8690   51.1590 C.3    74  GLU74       0.1160
    129  CD        47.2660   50.1240   51.2480 C.2    74  GLU74       0.3649
    130  OE1       47.9580   49.3480   51.9470 O.co2  74  GLU74      -0.2457
    131  OE2       47.7540   51.0960   50.6290 O.co2  74  GLU74      -0.2457
    132  N         61.3750   55.0550   45.7150 N.3   426  GLY426     -0.1225
    133  CA        60.7790   56.3470   46.0020 C.3   426  GLY426      0.1811
    134  C         61.4270   57.5690   45.3830 C.2   426  GLY426      0.2280
    135  O         60.9590   58.6810   45.6210 O.2   426  GLY426     -0.2866
    136  N         61.8460   59.5850   42.2520 N.3   428  GLY428     -0.1225
    137  CA        61.3840   59.8310   40.9010 C.3   428  GLY428      0.1811
    138  C         62.4820   60.1880   39.9170 C.2   428  GLY428      0.2280
    139  O         63.5480   60.6830   40.2950 O.2   428  GLY428     -0.2866
@<TRIPOS>BOND
     1    41    40    2
     2     1     2    1
     3    40    39    1
     4     2     3    1
     5     2     5    1
     6     4     3    2
     7    38    39    1
     8    39    42    1
     9    46    47    1
    10     5     6    1
    11     6     7    1
    12    48    47    1
    13    48    49    2
    14    42    43    1
    15    47    50    1
    16     8     7    1
    17     8     9    2
    18    32    33    2
    19    32    31    1
    20    10     9    1
    21     9    11    1
    22    43    45    1
    23    43    44    1
    24    50    51    1
    25    12    13    1
    26    31    30    1
    27    31    34    1
    28    51    52    1
    29   138   139    2
    30   138   137    1
    31    36    35    1
    32    13    14    1
    33    13    16    1
    34    35    34    1
    35    35    37    1
    36    55    54    1
    37    14    15    2
    38   137   136    1
    39    52    53    1
    40    18    16    1
    41    54    53    2
    42    54    56    1
    43    16    17    1
    44   117   116    2
    45   116   115    1
    46    19    20    1
    47    26    28   ar
    48    26    24   ar
    49   115   118    1
    50   115   114    1
    51    28    29   ar
    52   121   120   ar
    53    20    23    1
    54    20    21    1
    55    23    24    1
    56   108   107    2
    57    21    22    2
    58   101   100    2
    59    89    88   ar
    60    89    87   ar
    61   118   119    1
    62    24    25   ar
    63    88    86   ar
    64    87    85   ar
    65   114   107   am
    66   107   106    1
    67    86    84   ar
    68    85    84   ar
    69    29    27   ar
    70   120   119    1
    71   120   122   ar
    72    84    83    1
    73   134   135    2
    74   134   133    1
    75   100    99    1
    76   100   105   am
    77   132   133    1
    78    25    27   ar
    79    93    92    2
    80    83    80    1
    81   106   105    1
    82   106   109    1
    83    99   102    1
    84    99    98    1
    85    72    70   ar
    86    72    74   ar
    87   102   103    1
    88    70    69   ar
    89    92    98   am
    90    92    91    1
    91    74    73   ar
    92   109   110    1
    93    98   104    1
    94    80    81    1
    95    80    79    1
    96    69    68    1
    97    69    71   ar
    98    90    81   am
    99    90    91    1
   100    81    82    2
   101    68    65    1
   102    73    71   ar
   103    67    66    2
   104    91    94    1
   105    79    77   am
   106   103   104    1
   107   110   111    1
   108    94    95    1
   109    78    77    2
   110    77    76    1
   111    66    65    1
   112    66    75   am
   113    95    96   ar
   114    95    97   ar
   115    65    64    1
   116    76    75    1
   117   111   112    1
   118   125   126    2
   119   125   124    1
   120   123   124    1
   121    64    59   am
   122   127   124    1
   123   127   128    1
   124   112   113    1
   125   131   129   ar
   126    60    59    2
   127   128   129    1
   128    59    58    1
   129   129   130   ar
   130    58    61    1
   131    58    57    1
   132    61    62    1
   133    57    63    1
   134    62    63    1
