@<TRIPOS>MOLECULE
tmp/3iemC01.pdb
 181 175 0 0 0
SMALL
GASTEIGER

@<TRIPOS>ATOM
      1  N         40.0540   59.2070   -4.0700 N.3    12  VAL12      -0.1231
      2  CA        40.3190   57.9850   -3.3130 C.3    12  VAL12       0.1692
      3  C         41.5930   57.2100   -3.6420 C.2    12  VAL12       0.2592
      4  O         42.3840   56.9070   -2.7460 O.2    12  VAL12      -0.2718
      5  CB        39.1320   56.9970   -3.4060 C.3    12  VAL12       0.0266
      6  CG1       37.8920   57.6090   -2.7810 C.3    12  VAL12       0.0020
      7  CG2       38.8800   56.6340   -4.8480 C.3    12  VAL12       0.0020
      8  N         41.7980   56.8880   -4.9140 N.am   13  THR13      -0.1953
      9  CA        42.9610   56.1060   -5.3110 C.3    13  THR13       0.1897
     10  C         44.2960   56.8500   -5.2890 C.2    13  THR13       0.2313
     11  O         44.3380   58.0730   -5.1320 O.2    13  THR13      -0.2863
     12  CB        42.7470   55.4880   -6.7120 C.3    13  THR13       0.1794
     13  OG1       42.8690   56.5000   -7.7220 O.3    13  THR13      -0.2208
     14  CG2       41.3570   54.8610   -6.7930 C.3    13  THR13       0.0378
     15  N         43.2390   54.8290  -10.0000 N.3    34  GLN34      -0.1245
     16  CA        42.3010   54.0450  -10.7900 C.3    34  GLN34       0.1566
     17  C         41.2060   54.9480  -11.3620 C.2    34  GLN34       0.2260
     18  O         41.2560   56.1760  -11.2180 O.2    34  GLN34      -0.2867
     19  CB        41.6910   52.9390   -9.9220 C.3    34  GLN34       0.0367
     20  CG        42.7300   52.1890   -9.1060 C.3    34  GLN34       0.0905
     21  CD        42.2070   50.9000   -8.5120 C.2    34  GLN34       0.2608
     22  OE1       41.9910   49.9190   -9.2300 O.2    34  GLN34      -0.2717
     23  NE2       41.9950   50.8920   -7.1950 N.am   34  GLN34      -0.0878
     24  N         45.1900   46.0110   -0.7130 N.3    61  HIS61      -0.1226
     25  CA        44.4140   46.5960   -1.8000 C.3    61  HIS61       0.1752
     26  C         45.2740   47.3620   -2.8010 C.2    61  HIS61       0.2596
     27  O         46.1260   48.1790   -2.4340 O.2    61  HIS61      -0.2718
     28  CB        43.2980   47.4840   -1.2470 C.3    61  HIS61       0.0759
     29  CG        42.0590   46.7220   -0.8960 C.ar   61  HIS61       0.0818
     30  ND1       41.1250   47.1850    0.0060 N.ar   61  HIS61      -0.2268
     31  CD2       41.5980   45.5260   -1.3380 C.ar   61  HIS61       0.1154
     32  CE1       40.1410   46.3070    0.1060 C.ar   61  HIS61       0.1986
     33  NE2       40.4040   45.2910   -0.6980 N.ar   61  HIS61      -0.2212
     34  N         45.0290   47.0650   -4.0740 N.am   62  LEU62      -0.1966
     35  CA        45.7520   47.6400   -5.1980 C.3    62  LEU62       0.1728
     36  C         45.9480   49.1640   -5.1660 C.2    62  LEU62       0.2616
     37  O         46.9230   49.6780   -5.7190 O.2    62  LEU62      -0.2715
     38  CB        45.0490   47.2100   -6.4850 C.3    62  LEU62       0.0311
     39  CG        45.9170   46.8920   -7.7020 C.3    62  LEU62       0.0022
     40  CD1       47.1040   46.0340   -7.3040 C.3    62  LEU62       0.0001
     41  CD2       45.0660   46.1730   -8.7310 C.3    62  LEU62       0.0001
     42  N         45.0410   49.8870   -4.5170 N.am   63  ASP63      -0.1971
     43  CA        45.1770   51.3360   -4.4490 C.3    63  ASP63       0.1709
     44  C         46.1130   51.7830   -3.3210 C.2    63  ASP63       0.2293
     45  O         46.1380   52.9560   -2.9520 O.2    63  ASP63      -0.2864
     46  CB        43.8040   51.9970   -4.2950 C.3    63  ASP63       0.1436
     47  CG        43.1320   51.6440   -2.9980 C.2    63  ASP63       0.3671
     48  OD1       43.0320   50.4380   -2.6960 O.co2  63  ASP63      -0.2456
     49  OD2       42.6990   52.5710   -2.2820 O.co2  63  ASP63      -0.2456
     50  N         40.3840   46.2900    8.0950 N.3   141  HIS141     -0.1241
     51  CA        39.8290   46.6280    6.7870 C.3   141  HIS141      0.1621
     52  C         39.9900   45.3930    5.9080 C.2   141  HIS141      0.2264
     53  O         39.1530   45.0820    5.0680 O.2   141  HIS141     -0.2867
     54  CB        40.6210   47.8080    6.2110 C.3   141  HIS141      0.0745
     55  CG        40.1200   48.3080    4.8900 C.ar  141  HIS141      0.0817
     56  ND1       38.8940   48.9200    4.7390 N.ar  141  HIS141     -0.2268
     57  CD2       40.6950   48.3090    3.6630 C.ar  141  HIS141      0.1154
     58  CE1       38.7360   49.2770    3.4770 C.ar  141  HIS141      0.1986
     59  NE2       39.8140   48.9190    2.8030 N.ar  141  HIS141     -0.2212
     60  N         43.3620   52.7680    5.8330 N.3   162  ASP162     -0.1239
     61  CA        41.9220   52.6110    5.6430 C.3   162  ASP162      0.1674
     62  C         41.2990   51.9090    6.8480 C.2   162  ASP162      0.2266
     63  O         41.6920   50.7950    7.2030 O.2   162  ASP162     -0.2867
     64  CB        41.6170   51.8140    4.3670 C.3   162  ASP162      0.1410
     65  CG        41.6250   52.6810    3.1160 C.2   162  ASP162      0.3668
     66  OD1       41.5780   52.1150    2.0050 O.co2 162  ASP162     -0.2456
     67  OD2       41.6690   53.9260    3.2380 O.co2 162  ASP162     -0.2456
     68  N         36.6320   58.5430    3.1940 N.3   188  THR188     -0.1203
     69  CA        35.8240   57.8950    2.1710 C.3   188  THR188      0.1994
     70  C         34.3060   58.0670    2.3620 C.2   188  THR188      0.2617
     71  O         33.6040   58.4890    1.4400 O.2   188  THR188     -0.2717
     72  CB        36.1830   56.4040    2.1050 C.3   188  THR188      0.1784
     73  OG1       37.6120   56.2740    2.0900 O.3   188  THR188     -0.2211
     74  CG2       35.6150   55.7670    0.8480 C.3   188  THR188      0.0376
     75  N         33.8050   57.7350    3.5480 N.am  189  TYR189     -0.1975
     76  CA        32.3850   57.8860    3.8430 C.3   189  TYR189      0.1639
     77  C         32.2060   58.9210    4.9440 C.2   189  TYR189      0.2290
     78  O         31.5090   58.6720    5.9270 O.2   189  TYR189     -0.2864
     79  CB        31.7670   56.5670    4.3110 C.3   189  TYR189      0.0560
     80  CG        31.5720   55.5230    3.2350 C.ar  189  TYR189     -0.0198
     81  CD1       32.5970   54.6440    2.8900 C.ar  189  TYR189     -0.0009
     82  CD2       30.3470   55.3960    2.5770 C.ar  189  TYR189     -0.0009
     83  CE1       32.4060   53.6550    1.9180 C.ar  189  TYR189      0.0417
     84  CE2       30.1450   54.4140    1.6050 C.ar  189  TYR189      0.0417
     85  CZ        31.1760   53.5460    1.2820 C.ar  189  TYR189      0.1957
     86  OH        30.9710   52.5610    0.3410 O.3   189  TYR189     -0.2866
     87  N         34.6480   41.4130   -4.9900 N.3   223  PHE223     -0.1241
     88  CA        36.0830   41.5490   -5.1940 C.3   223  PHE223      0.1605
     89  C         36.7290   40.2640   -4.6900 C.2   223  PHE223      0.2264
     90  O         36.4340   39.8040   -3.5870 O.2   223  PHE223     -0.2867
     91  CB        36.6330   42.7480   -4.4210 C.3   223  PHE223      0.0534
     92  CG        36.0130   44.0590   -4.8080 C.ar  223  PHE223     -0.0203
     93  CD1       34.7720   44.4340   -4.3020 C.ar  223  PHE223     -0.0042
     94  CD2       36.6750   44.9240   -5.6780 C.ar  223  PHE223     -0.0042
     95  CE1       34.1970   45.6570   -4.6540 C.ar  223  PHE223     -0.0003
     96  CE2       36.1100   46.1490   -6.0380 C.ar  223  PHE223     -0.0003
     97  CZ        34.8670   46.5160   -5.5230 C.ar  223  PHE223     -0.0000
     98  N         35.8880   40.7610   -0.0150 N.3   227  ARG227     -0.1245
     99  CA        34.4340   40.7400   -0.1270 C.3   227  ARG227      0.1563
    100  C         33.8780   39.4010   -0.6100 C.2   227  ARG227      0.2260
    101  O         32.8170   38.9620   -0.1590 O.2   227  ARG227     -0.2867
    102  CB        33.9740   41.8630   -1.0550 C.3   227  ARG227      0.0307
    103  CG        32.5000   42.1950   -0.9400 C.3   227  ARG227      0.0489
    104  CD        32.1050   42.4670    0.5090 C.3   227  ARG227      0.2205
    105  NE        32.9080   43.5170    1.1370 N.pl3 227  ARG227     -0.0865
    106  CZ        32.9070   44.7930    0.7630 C.cat 227  ARG227      0.5346
    107  NH1       33.6710   45.6700    1.4010 N.pl3 227  ARG227      0.1354
    108  NH2       32.1460   45.1970   -0.2440 N.pl3 227  ARG227      0.1354
    109  N         33.2010   45.7910   -9.5140 N.3   315  MET315     -0.1245
    110  CA        32.7450   47.1130   -9.9200 C.3   315  MET315      0.1570
    111  C         31.9560   46.9300  -11.2130 C.2   315  MET315      0.2261
    112  O         31.2460   47.8330  -11.6560 O.2   315  MET315     -0.2867
    113  CB        33.9440   48.0360  -10.1850 C.3   315  MET315      0.0387
    114  CG        34.8130   48.3430   -8.9720 C.3   315  MET315      0.0595
    115  SD        34.0570   49.5070   -7.8140 S.3   315  MET315     -0.1393
    116  CE        34.8810   51.0340   -8.2700 C.3   315  MET315      0.0692
    117  N         29.7970   49.5290   -2.9790 N.3   341  TYR341     -0.1241
    118  CA        29.5570   50.8400   -3.5740 C.3   341  TYR341      0.1605
    119  C         29.9130   50.8500   -5.0580 C.2   341  TYR341      0.2264
    120  O         30.9590   50.3390   -5.4580 O.2   341  TYR341     -0.2867
    121  CB        30.3770   51.8950   -2.8150 C.3   341  TYR341      0.0534
    122  CG        30.5260   53.2450   -3.4920 C.ar  341  TYR341     -0.0201
    123  CD1       31.3380   53.4010   -4.6180 C.ar  341  TYR341     -0.0009
    124  CD2       29.8990   54.3780   -2.9740 C.ar  341  TYR341     -0.0009
    125  CE1       31.5260   54.6500   -5.2060 C.ar  341  TYR341      0.0417
    126  CE2       30.0820   55.6330   -3.5550 C.ar  341  TYR341      0.0417
    127  CZ        30.8980   55.7610   -4.6690 C.ar  341  TYR341      0.1957
    128  OH        31.0980   56.9990   -5.2370 O.3   341  TYR341     -0.2866
    129  N         30.5290   53.2180   -8.5260 N.3   343  PRO343     -0.2116
    130  CA        30.8770   54.5610   -9.0000 C.3   343  PRO343      0.1372
    131  C         29.8610   55.1780   -9.9590 C.2   343  PRO343      0.2244
    132  O         28.8770   54.5420  -10.3380 O.2   343  PRO343     -0.2868
    133  CB        32.2330   54.3420   -9.6620 C.3   343  PRO343      0.0268
    134  CG        32.0850   52.9740  -10.2390 C.3   343  PRO343      0.0207
    135  CD        31.4410   52.2120   -9.1000 C.3   343  PRO343      0.0892
    136  N         33.3750   47.9930    3.4660 N.3   379  GLY379     -0.1210
    137  CA        34.6240   47.6750    4.1310 C.3   379  GLY379      0.1956
    138  C         35.2590   48.8900    4.7790 C.2   379  GLY379      0.2611
    139  O         36.2860   48.7730    5.4440 O.2   379  GLY379     -0.2717
    140  N         34.6510   50.0570    4.5840 N.am  380  HIS380     -0.1975
    141  CA        35.1590   51.3020    5.1580 C.3   380  HIS380      0.1656
    142  C         34.2940   51.7610    6.3270 C.2   380  HIS380      0.2291
    143  O         33.1480   51.3380    6.4640 O.2   380  HIS380     -0.2864
    144  CB        35.1960   52.4050    4.0920 C.3   380  HIS380      0.0771
    145  CG        36.4270   52.3900    3.2380 C.ar  380  HIS380      0.0820
    146  ND1       37.4940   53.2360    3.4560 N.ar  380  HIS380     -0.2267
    147  CD2       36.7540   51.6440    2.1560 C.ar  380  HIS380      0.1154
    148  CE1       38.4220   53.0150    2.5420 C.ar  380  HIS380      0.1986
    149  NE2       37.9990   52.0540    1.7400 N.ar  380  HIS380     -0.2212
    150  N         42.0650   60.5140    1.0020 N.3   400  HIS400     -0.1226
    151  CA        41.3000   59.3560    0.5710 C.3   400  HIS400      0.1752
    152  C         39.7780   59.5650    0.5740 C.2   400  HIS400      0.2597
    153  O         39.0730   59.1110    1.4780 O.2   400  HIS400     -0.2718
    154  CB        41.6800   58.1680    1.4560 C.3   400  HIS400      0.0759
    155  CG        41.3420   56.8370    0.8660 C.ar  400  HIS400      0.0818
    156  ND1       40.0450   56.3990    0.7080 N.ar  400  HIS400     -0.2268
    157  CD2       42.1350   55.8400    0.4090 C.ar  400  HIS400      0.1154
    158  CE1       40.0550   55.1870    0.1820 C.ar  400  HIS400      0.1986
    159  NE2       41.3110   54.8250   -0.0080 N.ar  400  HIS400     -0.2212
    160  N         39.2830   60.2460   -0.4560 N.am  401  GLY401     -0.1942
    161  CA        37.8600   60.5120   -0.5760 C.3   401  GLY401      0.2014
    162  C         37.5680   61.7250   -1.4460 C.2   401  GLY401      0.2638
    163  O         38.4440   62.5530   -1.6820 O.2   401  GLY401     -0.2714
    164  N         36.3330   61.8270   -1.9270 N.am  402  GLU402     -0.1977
    165  CA        35.9190   62.9470   -2.7690 C.3   402  GLU402      0.1602
    166  C         35.9370   64.2290   -1.9430 C.2   402  GLU402      0.2287
    167  O         35.5850   64.2200   -0.7620 O.2   402  GLU402     -0.2864
    168  CB        34.5200   62.6770   -3.3330 C.3   402  GLU402      0.0415
    169  CG        34.4880   61.5400   -4.3650 C.3   402  GLU402      0.1163
    170  CD        33.1150   60.8930   -4.5080 C.2   402  GLU402      0.3649
    171  OE1       32.7390   60.0820   -3.6310 O.co2 402  GLU402     -0.2457
    172  OE2       32.4090   61.2000   -5.4940 O.co2 402  GLU402     -0.2457
    173  N         32.9330   64.9220    0.2210 N.3   405  LYS405     -0.1245
    174  CA        32.8670   64.0320    1.3790 C.3   405  LYS405      0.1561
    175  C         33.7540   64.5210    2.5250 C.2   405  LYS405      0.2260
    176  O         33.3240   64.5930    3.6800 O.2   405  LYS405     -0.2867
    177  CB        33.3100   62.6260    0.9730 C.3   405  LYS405      0.0271
    178  CG        32.6290   62.0860   -0.2730 C.3   405  LYS405      0.0035
    179  CD        31.1320   61.9420   -0.0740 C.3   405  LYS405      0.0206
    180  CE        30.4680   61.3390   -1.3030 C.3   405  LYS405      0.1093
    181  NZ        31.0190   59.9930   -1.6300 N.3   405  LYS405     -0.1314
@<TRIPOS>BOND
     1   112   111    2
     2    17    18    2
     3    17    16    1
     4   111   110    1
     5    16    15    1
     6    16    19    1
     7   132   131    2
     8   134   133    1
     9   134   135    1
    10   113   110    1
    11   113   114    1
    12   131   130    1
    13    19    20    1
    14   110   109    1
    15   133   130    1
    16    22    21    2
    17    20    21    1
    18   135   129    1
    19   130   129    1
    20   114   115    1
    21    41    39    1
    22    21    23   am
    23   116   115    1
    24    13    12    1
    25    39    40    1
    26    39    38    1
    27    14    12    1
    28    12     9    1
    29    38    35    1
    30    96    94   ar
    31    96    97   ar
    32    37    36    2
    33    94    92   ar
    34    97    95   ar
    35   172   170   ar
    36   120   119    2
    37     9    10    1
    38     9     8    1
    39    10    11    2
    40   128   127    1
    41   125   127   ar
    42   125   123   ar
    43    35    36    1
    44    35    34    1
    45    88    87    1
    46    88    89    1
    47    88    91    1
    48    36    42   am
    49   119   118    1
    50     8     3   am
    51     7     5    1
    52    92    91    1
    53    92    93   ar
    54    89    90    2
    55   127   126   ar
    56    95    93   ar
    57   123   122   ar
    58    42    43    1
    59   170   169    1
    60   170   171   ar
    61    43    46    1
    62    43    44    1
    63   169   168    1
    64    46    47    1
    65    34    26   am
    66     1     2    1
    67     3     2    1
    68     3     4    2
    69   118   117    1
    70   118   121    1
    71   126   124   ar
    72   122   124   ar
    73   122   121    1
    74     5     2    1
    75     5     6    1
    76   168   165    1
    77    44    45    2
    78    47    48   ar
    79    47    49   ar
    80    26    27    2
    81    26    25    1
    82   165   166    1
    83   165   164    1
    84   166   167    2
    85   164   162   am
    86    25    28    1
    87    25    24    1
    88   163   162    2
    89   181   180    1
    90   162   161    1
    91    31    29   ar
    92    31    33   ar
    93   180   179    1
    94    28    29    1
    95   102   103    1
    96   102    99    1
    97   103   104    1
    98    29    30   ar
    99    33    32   ar
   100   100   101    2
   101   100    99    1
   102   161   160    1
   103   160   152   am
   104   178   179    1
   105   178   177    1
   106   108   106    1
   107    99    98    1
   108   159   158   ar
   109   159   157   ar
   110    30    32   ar
   111   158   156   ar
   112   173   174    1
   113    86    85    1
   114   157   155   ar
   115   104   105    1
   116   151   152    1
   117   151   150    1
   118   151   154    1
   119   152   153    2
   120   156   155   ar
   121   106   105    2
   122   106   107    1
   123    74    72    1
   124   155   154    1
   125   177   174    1
   126    85    84   ar
   127    85    83   ar
   128   174   175    1
   129    71    70    2
   130    84    82   ar
   131   149   147   ar
   132   149   148   ar
   133    83    81   ar
   134    66    65   ar
   135    73    72    1
   136    72    69    1
   137   147   145   ar
   138    69    70    1
   139    69    68    1
   140    70    75   am
   141   175   176    2
   142   148   146   ar
   143    82    80   ar
   144    59    58   ar
   145    59    57   ar
   146    81    80   ar
   147    65    67   ar
   148    65    64    1
   149    80    79    1
   150   145   146   ar
   151   145   144    1
   152   136   137    1
   153    58    56   ar
   154    75    76    1
   155    57    55   ar
   156    76    79    1
   157    76    77    1
   158   144   141    1
   159   137   138    1
   160    64    61    1
   161   140   138   am
   162   140   141    1
   163    56    55   ar
   164   138   139    2
   165    55    54    1
   166    77    78    2
   167    53    52    2
   168   141   142    1
   169    61    60    1
   170    61    62    1
   171    52    51    1
   172    54    51    1
   173   142   143    2
   174    51    50    1
   175    62    63    2
