@<TRIPOS>MOLECULE
tmp/3iemD01.pdb
 85 78 0 0 0
SMALL
GASTEIGER

@<TRIPOS>ATOM
      1  N        -15.9890   14.3860   43.6310 N.3     4  VAL4       -0.1245
      2  CA       -16.9040   15.3750   44.1890 C.3     4  VAL4        0.1561
      3  C        -16.2570   16.6930   44.6090 C.2     4  VAL4        0.2260
      4  O        -15.4210   16.7280   45.5180 O.2     4  VAL4       -0.2867
      5  CB       -17.6340   14.8090   45.4320 C.3     4  VAL4        0.0252
      6  CG1      -18.7430   15.7620   45.8640 C.3     4  VAL4        0.0019
      7  CG2      -18.1710   13.4190   45.1410 C.3     4  VAL4        0.0019
      8  N        -15.7050   19.9820   46.4980 N.3     6  PHE6       -0.1241
      9  CA       -16.0810   20.4590   47.8170 C.3     6  PHE6        0.1605
     10  C        -15.4750   21.8190   48.0570 C.2     6  PHE6        0.2264
     11  O        -15.2160   22.2080   49.1910 O.2     6  PHE6       -0.2867
     12  CB       -15.6300   19.4730   48.8870 C.3     6  PHE6        0.0534
     13  CG       -16.5550   18.3050   49.0510 C.ar    6  PHE6       -0.0203
     14  CD1      -17.8430   18.4920   49.5500 C.ar    6  PHE6       -0.0042
     15  CD2      -16.1510   17.0210   48.6940 C.ar    6  PHE6       -0.0042
     16  CE1      -18.7200   17.4150   49.6920 C.ar    6  PHE6       -0.0003
     17  CE2      -17.0190   15.9310   48.8290 C.ar    6  PHE6       -0.0003
     18  CZ       -18.3080   16.1300   49.3300 C.ar    6  PHE6       -0.0000
     19  N        -12.9580   15.3470   46.5240 N.3    18  LEU18      -0.1245
     20  CA       -12.8740   13.9950   47.0560 C.3    18  LEU18       0.1561
     21  C        -13.0240   12.9530   45.9640 C.2    18  LEU18       0.2260
     22  O        -14.0630   12.8680   45.3030 O.2    18  LEU18      -0.2867
     23  CB       -13.9450   13.7960   48.1290 C.3    18  LEU18       0.0270
     24  CG       -13.9170   12.4740   48.9000 C.3    18  LEU18       0.0019
     25  CD1      -12.6150   12.3390   49.6710 C.3    18  LEU18       0.0001
     26  CD2      -15.0960   12.4320   49.8480 C.3    18  LEU18       0.0001
     27  N        -13.5020    9.2550   44.8930 N.3    20  LEU20      -0.1245
     28  CA       -14.0350    8.0060   45.4220 C.3    20  LEU20       0.1561
     29  C        -13.8230    6.8880   44.4060 C.2    20  LEU20       0.2260
     30  O        -14.4380    6.8790   43.3410 O.2    20  LEU20      -0.2867
     31  CB       -15.5240    8.1800   45.7320 C.3    20  LEU20       0.0270
     32  CG       -15.8570    9.3620   46.6570 C.3    20  LEU20       0.0019
     33  CD1      -17.3500    9.5890   46.6820 C.3    20  LEU20       0.0001
     34  CD2      -15.3460    9.0980   48.0550 C.3    20  LEU20       0.0001
     35  N        -11.1060    6.6530   49.5680 N.3    25  ARG25      -0.1245
     36  CA       -11.4890    8.0580   49.4960 C.3    25  ARG25       0.1563
     37  C        -10.2050    8.8850   49.5760 C.2    25  ARG25       0.2260
     38  O         -9.4830    8.8380   50.5750 O.2    25  ARG25      -0.2867
     39  CB       -12.4280    8.4280   50.6460 C.3    25  ARG25       0.0307
     40  CG       -13.7190    7.6350   50.6640 C.3    25  ARG25       0.0489
     41  CD       -14.6150    8.0640   51.8090 C.3    25  ARG25       0.2205
     42  NE       -15.7700    7.1800   51.9560 N.pl3  25  ARG25      -0.0865
     43  CZ       -15.6970    5.9000   52.3200 C.cat  25  ARG25       0.5346
     44  NH1      -14.5210    5.3410   52.5810 N.pl3  25  ARG25       0.1354
     45  NH2      -16.8030    5.1750   52.4200 N.pl3  25  ARG25       0.1354
     46  N        -18.5620   18.9360   54.2990 N.3    46  GLY46      -0.1210
     47  CA       -19.5570   18.3640   53.4210 C.3    46  GLY46       0.1956
     48  C        -19.2930   16.8710   53.3390 C.2    46  GLY46       0.2612
     49  O        -19.9620   16.1490   52.6120 O.2    46  GLY46      -0.2717
     50  N        -18.2920   16.4150   54.0840 N.am   47  PHE47      -0.1962
     51  CA       -17.9270   15.0020   54.1370 C.3    47  PHE47       0.1771
     52  C        -17.1990   14.7620   55.4520 C.2    47  PHE47       0.2619
     53  O        -16.6760   15.7000   56.0540 O.2    47  PHE47      -0.2715
     54  CB       -17.0150   14.6210   52.9680 C.3    47  PHE47       0.0574
     55  CG       -15.7650   15.4510   52.8740 C.ar   47  PHE47      -0.0200
     56  CD1      -15.7630   16.6530   52.1730 C.ar   47  PHE47      -0.0042
     57  CD2      -14.5900   15.0360   53.4950 C.ar   47  PHE47      -0.0042
     58  CE1      -14.6040   17.4250   52.0930 C.ar   47  PHE47      -0.0003
     59  CE2      -13.4330   15.7980   53.4210 C.ar   47  PHE47      -0.0003
     60  CZ       -13.4360   16.9920   52.7220 C.ar   47  PHE47      -0.0000
     61  N        -17.1640   13.5120   55.8970 N.am   48  ASP48      -0.1971
     62  CA       -16.5020   13.1850   57.1530 C.3    48  ASP48       0.1709
     63  C        -15.0000   13.0110   56.9650 C.2    48  ASP48       0.2293
     64  O        -14.5420   12.0150   56.4040 O.2    48  ASP48      -0.2864
     65  CB       -17.1140   11.9140   57.7520 C.3    48  ASP48       0.1436
     66  CG       -16.4270   11.4790   59.0360 C.2    48  ASP48       0.3671
     67  OD1      -15.9400   12.3550   59.7860 O.co2  48  ASP48      -0.2456
     68  OD2      -16.3880   10.2570   59.3010 O.co2  48  ASP48      -0.2456
     69  N        -13.2150    9.7360   57.3570 N.3    51  GLU51      -0.1245
     70  CA       -13.3860    8.6770   56.3630 C.3    51  GLU51       0.1567
     71  C        -12.3730    8.7790   55.2200 C.2    51  GLU51       0.2260
     72  O        -12.3190    7.9070   54.3470 O.2    51  GLU51      -0.2867
     73  CB       -14.8050    8.7200   55.7830 C.3    51  GLU51       0.0388
     74  CG       -15.9040    8.4150   56.7880 C.3    51  GLU51       0.1160
     75  CD       -15.8330    6.9970   57.3110 C.2    51  GLU51       0.3649
     76  OE1      -16.0060    6.0580   56.5060 O.co2  51  GLU51      -0.2457
     77  OE2      -15.6000    6.8210   58.5250 O.co2  51  GLU51      -0.2457
     78  N        -20.5650   19.9480   45.8220 N.3   426  GLY426     -0.1225
     79  CA       -21.1570   18.7520   46.3960 C.3   426  GLY426      0.1811
     80  C        -21.7530   17.7480   45.4380 C.2   426  GLY426      0.2280
     81  O        -22.2230   16.6930   45.8590 O.2   426  GLY426     -0.2866
     82  N        -21.3390   14.9600   42.7540 N.3   428  GLY428     -0.1225
     83  CA       -20.3610   14.0270   42.2250 C.3   428  GLY428      0.1811
     84  C        -20.4430   13.7670   40.7360 C.2   428  GLY428      0.2280
     85  O        -21.5200   13.5130   40.1980 O.2   428  GLY428     -0.2866
@<TRIPOS>BOND
     1    85    84    2
     2    84    83    1
     3    83    82    1
     4    30    29    2
     5     1     2    1
     6     2     3    1
     7     2     5    1
     8    29    28    1
     9     3     4    2
    10    27    28    1
    11     7     5    1
    12    22    21    2
    13    28    31    1
    14     5     6    1
    15    80    81    2
    16    80    79    1
    17    31    32    1
    18    78    79    1
    19    21    20    1
    20     8     9    1
    21    19    20    1
    22    32    33    1
    23    32    34    1
    24    20    23    1
    25     9    10    1
    26     9    12    1
    27    10    11    2
    28    23    24    1
    29    15    17   ar
    30    15    13   ar
    31    17    18   ar
    32    12    13    1
    33    24    25    1
    34    24    26    1
    35    13    14   ar
    36    18    16   ar
    37    36    35    1
    38    36    37    1
    39    36    39    1
    40    14    16   ar
    41    37    38    2
    42    39    40    1
    43    40    41    1
    44    41    42    1
    45    42    43    2
    46    58    56   ar
    47    58    60   ar
    48    56    55   ar
    49    43    45    1
    50    43    44    1
    51    49    48    2
    52    60    59   ar
    53    55    54    1
    54    55    57   ar
    55    54    51    1
    56    48    47    1
    57    48    50   am
    58    59    57   ar
    59    47    46    1
    60    50    51    1
    61    51    52    1
    62    72    71    2
    63    71    70    1
    64    52    61   am
    65    52    53    2
    66    73    70    1
    67    73    74    1
    68    61    62    1
    69    70    69    1
    70    64    63    2
    71    76    75   ar
    72    74    75    1
    73    63    62    1
    74    62    65    1
    75    75    77   ar
    76    65    66    1
    77    66    68   ar
    78    66    67   ar
