@<TRIPOS>MOLECULE
tmp/3iemA00.pdb
 112 105 0 0 0
SMALL
GASTEIGER

@<TRIPOS>ATOM
      1  N         -0.3780   -3.7140   21.7610 N.3     2  ARG2       -0.1245
      2  CA         0.5170   -4.8640   21.8000 C.3     2  ARG2        0.1563
      3  C          1.9690   -4.4330   22.0150 C.2     2  ARG2        0.2260
      4  O          2.3440   -3.2960   21.7330 O.2     2  ARG2       -0.2867
      5  CB         0.3960   -5.6780   20.5060 C.3     2  ARG2        0.0307
      6  CG        -0.9060   -6.4790   20.3840 C.3     2  ARG2        0.0489
      7  CD        -1.1010   -6.9630   18.9540 C.3     2  ARG2        0.2205
      8  NE        -1.2130   -5.8200   18.0520 N.pl3   2  ARG2       -0.0865
      9  CZ        -0.7590   -5.7960   16.8030 C.cat   2  ARG2        0.5346
     10  NH1       -0.9090   -4.7000   16.0710 N.pl3   2  ARG2        0.1354
     11  NH2       -0.1500   -6.8630   16.2880 N.pl3   2  ARG2        0.1354
     12  N          5.9480   -5.9760   21.3950 N.3     4  VAL4       -0.1245
     13  CA         6.7280   -7.0530   20.8210 C.3     4  VAL4        0.1561
     14  C          8.1700   -6.9960   21.2910 C.2     4  VAL4        0.2260
     15  O          8.8810   -6.0190   21.0580 O.2     4  VAL4       -0.2867
     16  CB         6.6700   -7.0110   19.2560 C.3     4  VAL4        0.0252
     17  CG1        7.3520   -8.2560   18.6680 C.3     4  VAL4        0.0019
     18  CG2        5.2000   -6.9220   18.7820 C.3     4  VAL4        0.0019
     19  N         12.0190   -7.4320   21.3000 N.3     6  PHE6       -0.1241
     20  CA        12.9830   -7.4980   20.2080 C.3     6  PHE6        0.1605
     21  C         14.4190   -7.5650   20.6990 C.2     6  PHE6        0.2264
     22  O         15.3520   -7.2060   19.9850 O.2     6  PHE6       -0.2867
     23  CB        12.7800   -6.3140   19.2520 C.3     6  PHE6        0.0534
     24  CG        11.7220   -6.5620   18.2000 C.ar    6  PHE6       -0.0203
     25  CD1       11.9010   -7.5520   17.2340 C.ar    6  PHE6       -0.0042
     26  CD2       10.5470   -5.8150   18.1760 C.ar    6  PHE6       -0.0042
     27  CE1       10.9260   -7.7930   16.2570 C.ar    6  PHE6       -0.0003
     28  CE2        9.5670   -6.0490   17.2050 C.ar    6  PHE6       -0.0003
     29  CZ         9.7610   -7.0410   16.2450 C.ar    6  PHE6       -0.0000
     30  N          9.0740   -3.1050   20.9020 N.3    18  LEU18      -0.1245
     31  CA         8.1610   -2.3470   20.0600 C.3    18  LEU18       0.1561
     32  C          6.7410   -2.2850   20.5630 C.2    18  LEU18       0.2260
     33  O          6.0400   -3.2850   20.5880 O.2    18  LEU18      -0.2867
     34  CB         8.1570   -2.9270   18.6480 C.3    18  LEU18       0.0270
     35  CG         8.3670   -2.0120   17.4320 C.3    18  LEU18       0.0019
     36  CD1        7.4770   -2.5280   16.3010 C.3    18  LEU18       0.0001
     37  CD2        8.0260   -0.5600   17.7520 C.3    18  LEU18       0.0001
     38  N          3.0100   -1.2590   20.0270 N.3    20  LEU20      -0.1245
     39  CA         2.0670   -1.0310   18.9320 C.3    20  LEU20       0.1561
     40  C          0.7350   -0.6260   19.5490 C.2    20  LEU20       0.2260
     41  O          0.0110   -1.4730   20.0760 O.2    20  LEU20      -0.2867
     42  CB         1.9010   -2.3190   18.1060 C.3    20  LEU20       0.0270
     43  CG         3.1860   -2.9210   17.5150 C.3    20  LEU20       0.0019
     44  CD1        2.8700   -4.1850   16.7530 C.3    20  LEU20       0.0001
     45  CD2        3.8590   -1.9220   16.5990 C.3    20  LEU20       0.0001
     46  N          3.8120    3.3670   16.4420 N.3    25  ARG25      -0.1245
     47  CA         4.7550    2.3270   16.8370 C.3    25  ARG25       0.1563
     48  C          5.8890    2.9980   17.6060 C.2    25  ARG25       0.2260
     49  O          6.6610    3.7740   17.0410 O.2    25  ARG25      -0.2867
     50  CB         5.3050    1.6070   15.6080 C.3    25  ARG25       0.0307
     51  CG         4.2150    1.0980   14.7040 C.3    25  ARG25       0.0489
     52  CD         4.7380    0.2360   13.5790 C.3    25  ARG25       0.2205
     53  NE         3.7270    0.1420   12.5350 N.pl3  25  ARG25      -0.0865
     54  CZ         3.3730    1.1620   11.7570 C.cat  25  ARG25       0.5346
     55  NH1        3.9570    2.3470   11.9030 N.pl3  25  ARG25       0.1354
     56  NH2        2.4230    1.0060   10.8440 N.pl3  25  ARG25       0.1354
     57  N         19.8290   -7.9650   11.3730 N.3    44  PRO44      -0.2116
     58  CA        18.6680   -7.0670   11.3370 C.3    44  PRO44       0.1372
     59  C         17.8730   -7.0020   12.6260 C.2    44  PRO44       0.2244
     60  O         17.9340   -7.9030   13.4480 O.2    44  PRO44      -0.2868
     61  CB        17.8430   -7.6140   10.1700 C.3    44  PRO44       0.0268
     62  CG        18.1990   -9.0700   10.1530 C.3    44  PRO44       0.0207
     63  CD        19.6910   -9.0380   10.3700 C.3    44  PRO44       0.0892
     64  N         14.5080   -6.9930   12.9380 N.3    46  GLY46      -0.1210
     65  CA        13.3340   -7.8400   12.9570 C.3    46  GLY46       0.1956
     66  C         12.1280   -6.9470   12.7040 C.2    46  GLY46       0.2612
     67  O         10.9930   -7.4090   12.6720 O.2    46  GLY46      -0.2717
     68  N         12.3770   -5.6510   12.5580 N.am   47  PHE47      -0.1962
     69  CA        11.3170   -4.7010   12.2610 C.3    47  PHE47       0.1771
     70  C         11.8940   -3.5650   11.4210 C.2    47  PHE47       0.2619
     71  O         13.1020   -3.3700   11.3780 O.2    47  PHE47      -0.2715
     72  CB        10.6570   -4.1620   13.5420 C.3    47  PHE47       0.0574
     73  CG        11.5840   -3.3810   14.4390 C.ar   47  PHE47      -0.0200
     74  CD1       12.2230   -4.0000   15.5100 C.ar   47  PHE47      -0.0042
     75  CD2       11.8360   -2.0350   14.1950 C.ar   47  PHE47      -0.0042
     76  CE1       13.1010   -3.2950   16.3250 C.ar   47  PHE47      -0.0003
     77  CE2       12.7170   -1.3190   15.0060 C.ar   47  PHE47      -0.0003
     78  CZ        13.3500   -1.9560   16.0740 C.ar   47  PHE47      -0.0000
     79  N         11.0290   -2.8300   10.7380 N.am   48  ASP48      -0.1971
     80  CA        11.4650   -1.7310    9.8860 C.3    48  ASP48       0.1709
     81  C         11.6900   -0.4360   10.6690 C.2    48  ASP48       0.2293
     82  O         10.7370    0.2570   11.0420 O.2    48  ASP48      -0.2864
     83  CB        10.4310   -1.4960    8.7730 C.3    48  ASP48       0.1436
     84  CG        10.8640   -0.4170    7.7940 C.2    48  ASP48       0.3671
     85  OD1       12.0780   -0.1280    7.7330 O.co2  48  ASP48      -0.2456
     86  OD2        9.9990    0.1300    7.0740 O.co2  48  ASP48      -0.2456
     87  N          9.7010    2.5720   10.0690 N.3    51  GLU51      -0.1245
     88  CA         8.3030    2.5910   10.4780 C.3    51  GLU51       0.1567
     89  C          8.0720    2.9130   11.9550 C.2    51  GLU51       0.2260
     90  O          6.9560    2.7750   12.4460 O.2    51  GLU51      -0.2867
     91  CB         7.6310    1.2570   10.1380 C.3    51  GLU51       0.0388
     92  CG         7.3330    1.0820    8.6570 C.3    51  GLU51       0.1160
     93  CD         6.5860    2.2750    8.0840 C.2    51  GLU51       0.3649
     94  OE1        5.4680    2.5680    8.5680 O.co2  51  GLU51      -0.2457
     95  OE2        7.1220    2.9240    7.1540 O.co2  51  GLU51      -0.2457
     96  N         10.0800  -11.5190   19.0580 N.3   426  GLY426     -0.1210
     97  CA         9.1740  -11.3340   17.9420 C.3   426  GLY426      0.1956
     98  C          7.7310  -11.7170   18.2120 C.2   426  GLY426      0.2612
     99  O          6.8540  -11.4300   17.3960 O.2   426  GLY426     -0.2717
    100  N          7.4670  -12.3580   19.3450 N.am  427  GLU427     -0.1965
    101  CA         6.1030  -12.7590   19.6610 C.3   427  GLU427      0.1733
    102  C          5.3290  -11.6680   20.3940 C.2   427  GLU427      0.2616
    103  O          5.4830  -11.4670   21.6000 O.2   427  GLU427     -0.2715
    104  CB         6.1100  -14.0650   20.4680 C.3   427  GLU427      0.0429
    105  CG         6.2150  -15.3040   19.5680 C.3   427  GLU427      0.1163
    106  CD         5.3040  -16.4610   19.9850 C.2   427  GLU427      0.3649
    107  OE1        5.8120  -17.6090   20.0590 O.co2 427  GLU427     -0.2457
    108  OE2        4.0930  -16.2340   20.2330 O.co2 427  GLU427     -0.2457
    109  N          4.5010  -10.9530   19.6440 N.am  428  GLY428     -0.1955
    110  CA         3.7070   -9.8880   20.2250 C.3   428  GLY428      0.1869
    111  C          2.8710  -10.3810   21.3870 C.2   428  GLY428      0.2309
    112  O          2.4630  -11.5420   21.4280 O.2   428  GLY428     -0.2863
@<TRIPOS>BOND
     1    86    84   ar
     2    95    93   ar
     3    85    84   ar
     4    84    83    1
     5    93    94   ar
     6    93    92    1
     7    92    91    1
     8    83    80    1
     9    80    81    1
    10    80    79    1
    11    87    88    1
    12    91    88    1
    13    62    61    1
    14    62    63    1
    15    61    58    1
    16    63    57    1
    17    88    89    1
    18    81    82    2
    19    79    70   am
    20    56    54    1
    21    58    57    1
    22    58    59    1
    23    71    70    2
    24    70    69    1
    25    54    55    1
    26    54    53    2
    27    89    90    2
    28    69    68    1
    29    69    72    1
    30    53    52    1
    31    68    66   am
    32    59    60    2
    33    67    66    2
    34    66    65    1
    35    64    65    1
    36    72    73    1
    37    52    51    1
    38    75    73   ar
    39    75    77   ar
    40    73    74   ar
    41    51    50    1
    42    77    78   ar
    43    74    76   ar
    44    50    47    1
    45    10     9    1
    46    78    76   ar
    47    29    27   ar
    48    29    28   ar
    49    27    25   ar
    50    11     9    1
    51    36    35    1
    52    46    47    1
    53    45    43    1
    54    44    43    1
    55     9     8    2
    56    47    48    1
    57    49    48    2
    58    28    26   ar
    59    25    24   ar
    60    99    98    2
    61    35    37    1
    62    35    34    1
    63    43    42    1
    64    97    98    1
    65    97    96    1
    66     8     7    1
    67    42    39    1
    68    26    24   ar
    69    24    23    1
    70    98   100   am
    71    34    31    1
    72    17    16    1
    73    18    16    1
    74    39    40    1
    75    39    38    1
    76     7     6    1
    77    23    20    1
    78    16    13    1
    79   100   101    1
    80    40    41    2
    81   105   106    1
    82   105   104    1
    83   109   110    1
    84   109   102   am
    85   101   102    1
    86   101   104    1
    87   106   107   ar
    88   106   108   ar
    89    22    21    2
    90    31    32    1
    91    31    30    1
    92    20    21    1
    93    20    19    1
    94   110   111    1
    95     6     5    1
    96   102   103    2
    97     5     2    1
    98    32    33    2
    99    13    14    1
   100    13    12    1
   101    15    14    2
   102   111   112    2
   103     4     3    2
   104     1     2    1
   105     2     3    1
