@<TRIPOS>MOLECULE
tmp/3iemC00.pdb
 174 165 0 0 0
SMALL
GASTEIGER

@<TRIPOS>ATOM
      1  N         48.2680   52.6150   -6.5990 N.3    32  MET32      -0.1245
      2  CA        48.0130   53.1240   -7.9360 C.3    32  MET32       0.1570
      3  C         46.7150   53.9150   -7.9980 C.2    32  MET32       0.2261
      4  O         45.8390   53.7820   -7.1340 O.2    32  MET32      -0.2867
      5  CB        47.9440   51.9760   -8.9500 C.3    32  MET32       0.0387
      6  CG        46.7890   51.0080   -8.7360 C.3    32  MET32       0.0595
      7  SD        46.6170   49.8890  -10.1470 S.3    32  MET32      -0.1393
      8  CE        48.1840   49.0440  -10.0980 C.3    32  MET32       0.0692
      9  N         43.2390   54.8290  -10.0000 N.3    34  GLN34      -0.1245
     10  CA        42.3010   54.0450  -10.7900 C.3    34  GLN34       0.1566
     11  C         41.2060   54.9480  -11.3620 C.2    34  GLN34       0.2260
     12  O         41.2560   56.1760  -11.2180 O.2    34  GLN34      -0.2867
     13  CB        41.6910   52.9390   -9.9220 C.3    34  GLN34       0.0367
     14  CG        42.7300   52.1890   -9.1060 C.3    34  GLN34       0.0905
     15  CD        42.2070   50.9000   -8.5120 C.2    34  GLN34       0.2608
     16  OE1       41.9910   49.9190   -9.2300 O.2    34  GLN34      -0.2717
     17  NE2       41.9950   50.8920   -7.1950 N.am   34  GLN34      -0.0878
     18  N         43.4260   56.5960  -13.6990 N.3    38  GLU38      -0.1245
     19  CA        44.3760   55.5300  -13.9930 C.3    38  GLU38       0.1567
     20  C         45.6350   55.9600  -14.7360 C.2    38  GLU38       0.2260
     21  O         46.7110   55.4400  -14.4690 O.2    38  GLU38      -0.2867
     22  CB        43.7020   54.3960  -14.7730 C.3    38  GLU38       0.0388
     23  CG        44.5670   53.1250  -14.8740 C.3    38  GLU38       0.1160
     24  CD        45.7740   53.2810  -15.8040 C.2    38  GLU38       0.3649
     25  OE1       46.8270   52.6440  -15.5520 O.co2  38  GLU38      -0.2457
     26  OE2       45.6670   54.0350  -16.7990 O.co2  38  GLU38      -0.2457
     27  N         45.0290   47.0650   -4.0740 N.3    62  LEU62      -0.1245
     28  CA        45.7520   47.6400   -5.1980 C.3    62  LEU62       0.1561
     29  C         45.9480   49.1640   -5.1660 C.2    62  LEU62       0.2260
     30  O         46.9230   49.6780   -5.7190 O.2    62  LEU62      -0.2867
     31  CB        45.0490   47.2100   -6.4850 C.3    62  LEU62       0.0270
     32  CG        45.9170   46.8920   -7.7020 C.3    62  LEU62       0.0019
     33  CD1       47.1040   46.0340   -7.3040 C.3    62  LEU62       0.0001
     34  CD2       45.0660   46.1730   -8.7310 C.3    62  LEU62       0.0001
     35  N         47.3340   39.7760   -5.6350 N.3    93  VAL93      -0.1245
     36  CA        46.9610   41.0770   -6.1730 C.3    93  VAL93       0.1561
     37  C         47.8890   41.6330   -7.2590 C.2    93  VAL93       0.2260
     38  O         47.4200   42.1290   -8.2860 O.2    93  VAL93      -0.2867
     39  CB        46.8480   42.1120   -5.0390 C.3    93  VAL93       0.0252
     40  CG1       46.4040   43.4430   -5.5930 C.3    93  VAL93       0.0019
     41  CG2       45.8600   41.6290   -3.9960 C.3    93  VAL93       0.0019
     42  N         48.1050   39.3830  -10.6260 N.3    96  ASP96      -0.1225
     43  CA        46.8380   39.3180  -11.3320 C.3    96  ASP96       0.1805
     44  C         46.7490   40.5900  -12.1600 C.2    96  ASP96       0.2597
     45  O         46.4010   40.5570  -13.3390 O.2    96  ASP96      -0.2718
     46  CB        45.6720   39.2480  -10.3440 C.3    96  ASP96       0.1424
     47  CG        44.5680   40.2380  -10.6690 C.2    96  ASP96       0.3668
     48  OD1       44.7730   41.4500  -10.4390 O.co2  96  ASP96      -0.2456
     49  OD2       43.5010   39.8100  -11.1580 O.co2  96  ASP96      -0.2456
     50  N         47.0800   41.7110  -11.5290 N.am   97  ALA97      -0.1979
     51  CA        47.0550   43.0070  -12.1920 C.3    97  ALA97       0.1597
     52  C         48.1660   43.0720  -13.2330 C.2    97  ALA97       0.2287
     53  O         48.1280   43.8930  -14.1500 O.2    97  ALA97      -0.2864
     54  CB        47.2360   44.1150  -11.1690 C.3    97  ALA97       0.0319
     55  N         45.9490   41.5920  -15.9100 N.3   100  VAL100     -0.1231
     56  CA        44.6500   42.2290  -16.1040 C.3   100  VAL100      0.1692
     57  C         44.7870   43.7510  -16.1010 C.2   100  VAL100      0.2592
     58  O         43.9170   44.4620  -15.5960 O.2   100  VAL100     -0.2718
     59  CB        43.6630   41.8200  -14.9840 C.3   100  VAL100      0.0266
     60  CG1       42.2410   42.1940  -15.3750 C.3   100  VAL100      0.0020
     61  CG2       43.7690   40.3270  -14.7130 C.3   100  VAL100      0.0020
     62  N         45.8770   44.2500  -16.6730 N.am  101  MET101     -0.1965
     63  CA        46.1200   45.6880  -16.7070 C.3   101  MET101      0.1736
     64  C         45.9490   46.2620  -18.1120 C.2   101  MET101      0.2616
     65  O         46.4660   45.7100  -19.0840 O.2   101  MET101     -0.2715
     66  CB        47.5300   45.9780  -16.1800 C.3   101  MET101      0.0427
     67  CG        47.8290   47.4450  -15.8920 C.3   101  MET101      0.0599
     68  SD        49.3880   47.6680  -14.9780 S.3   101  MET101     -0.1393
     69  CE        48.8150   47.4250  -13.3120 C.3   101  MET101      0.0692
     70  N         45.2110   47.3670  -18.2060 N.am  102  ASP102     -0.1971
     71  CA        44.9580   48.0390  -19.4820 C.3   102  ASP102      0.1709
     72  C         46.3080   48.4020  -20.0990 C.2   102  ASP102      0.2293
     73  O         46.7940   47.7240  -21.0070 O.2   102  ASP102     -0.2864
     74  CB        44.1240   49.3050  -19.2400 C.3   102  ASP102      0.1436
     75  CG        43.5070   49.8620  -20.5160 C.2   102  ASP102      0.3671
     76  OD1       42.6940   49.1510  -21.1510 O.co2 102  ASP102     -0.2456
     77  OD2       43.8290   51.0150  -20.8800 O.co2 102  ASP102     -0.2456
     78  N         31.5260   40.4210   -6.6810 N.3   222  THR222     -0.1203
     79  CA        32.3940   40.7130   -5.5460 C.3   222  THR222      0.1994
     80  C         33.8750   40.8250   -5.8990 C.2   222  THR222      0.2618
     81  O         34.3080   40.3960   -6.9710 O.2   222  THR222     -0.2717
     82  CB        32.2410   39.6210   -4.4590 C.3   222  THR222      0.1784
     83  OG1       32.6030   38.3450   -5.0100 O.3   222  THR222     -0.2211
     84  CG2       30.8000   39.5580   -3.9560 C.3   222  THR222      0.0376
     85  N         34.6480   41.4130   -4.9900 N.am  223  PHE223     -0.1961
     86  CA        36.0830   41.5490   -5.1940 C.3   223  PHE223      0.1771
     87  C         36.7290   40.2640   -4.6900 C.2   223  PHE223      0.2619
     88  O         36.4340   39.8040   -3.5870 O.2   223  PHE223     -0.2715
     89  CB        36.6330   42.7480   -4.4210 C.3   223  PHE223      0.0574
     90  CG        36.0130   44.0590   -4.8080 C.ar  223  PHE223     -0.0200
     91  CD1       34.7720   44.4340   -4.3020 C.ar  223  PHE223     -0.0042
     92  CD2       36.6750   44.9240   -5.6780 C.ar  223  PHE223     -0.0042
     93  CE1       34.1970   45.6570   -4.6540 C.ar  223  PHE223     -0.0003
     94  CE2       36.1100   46.1490   -6.0380 C.ar  223  PHE223     -0.0003
     95  CZ        34.8670   46.5160   -5.5230 C.ar  223  PHE223     -0.0000
     96  N         37.6080   39.6900   -5.5030 N.am  224  ALA224     -0.1963
     97  CA        38.2830   38.4420   -5.1630 C.3   224  ALA224      0.1728
     98  C         39.2800   38.5470   -4.0140 C.2   224  ALA224      0.2616
     99  O         39.9880   37.5810   -3.7180 O.2   224  ALA224     -0.2715
    100  CB        38.9850   37.8870   -6.3970 C.3   224  ALA224      0.0334
    101  N         39.3370   39.7040   -3.3640 N.am  225  VAL225     -0.1977
    102  CA        40.2750   39.8880   -2.2660 C.3   225  VAL225      0.1596
    103  C         39.6770   39.5690   -0.8990 C.2   225  VAL225      0.2287
    104  O         40.1360   38.6530   -0.2200 O.2   225  VAL225     -0.2864
    105  CB        40.8370   41.3220   -2.2400 C.3   225  VAL225      0.0276
    106  CG1       41.9250   41.4290   -1.1840 C.3   225  VAL225      0.0022
    107  CG2       41.3880   41.6890   -3.6100 C.3   225  VAL225      0.0022
    108  N         35.7440   32.8120   -9.9040 N.3   251  SER251     -0.1203
    109  CA        36.8640   33.7390   -9.8690 C.3   251  SER251      0.2005
    110  C         38.1420   33.0030   -9.4920 C.2   251  SER251      0.2461
    111  O         38.2760   32.5140   -8.3710 O.2   251  SER251     -0.2732
    112  CB        36.5980   34.8510   -8.8530 C.3   251  SER251      0.2103
    113  OG        37.6930   35.7470   -8.7830 O.3   251  SER251     -0.2182
    114  N         39.0960   32.9020  -10.4320 N.am  252  PRO252     -0.2717
    115  CA        40.3590   32.2110  -10.1520 C.3   252  PRO252      0.1535
    116  C         41.1060   32.8390   -8.9750 C.2   252  PRO252      0.2598
    117  O         41.6510   32.1240   -8.1340 O.2   252  PRO252     -0.2715
    118  CB        41.1180   32.3390  -11.4700 C.3   252  PRO252      0.0310
    119  CG        40.0120   32.3190  -12.4830 C.3   252  PRO252      0.0237
    120  CD        39.0010   33.2550  -11.8600 C.3   252  PRO252      0.0939
    121  N         41.1280   34.1720   -8.9180 N.am  253  MET253     -0.1978
    122  CA        41.7980   34.8790   -7.8310 C.3   253  MET253      0.1605
    123  C         41.1370   34.5740   -6.4960 C.2   253  MET253      0.2287
    124  O         41.7730   34.0220   -5.6000 O.2   253  MET253     -0.2864
    125  CB        41.7670   36.3910   -8.0470 C.3   253  MET253      0.0413
    126  CG        42.9740   36.9680   -8.7600 C.3   253  MET253      0.0598
    127  SD        43.3530   38.6280   -8.1410 S.3   253  MET253     -0.1393
    128  CE        41.7230   39.3570   -8.0660 C.3   253  MET253      0.0692
    129  N         33.5080   38.4280  -10.3060 N.3   312  GLY312     -0.1210
    130  CA        33.7720   39.8310  -10.5700 C.3   312  GLY312      0.1956
    131  C         33.9800   40.1220  -12.0450 C.2   312  GLY312      0.2613
    132  O         33.7010   39.2650  -12.8810 O.2   312  GLY312     -0.2717
    133  N         34.4800   41.3090  -12.3850 N.am  313  SER313     -0.1938
    134  CA        34.8460   42.3560  -11.4330 C.3   313  SER313      0.2055
    135  C         33.7220   42.7530  -10.4680 C.2   313  SER313      0.2644
    136  O         32.5400   42.5760  -10.7650 O.2   313  SER313     -0.2714
    137  CB        35.3250   43.5900  -12.2040 C.3   313  SER313      0.2130
    138  OG        35.7390   44.6220  -11.3280 O.3   313  SER313     -0.2179
    139  N         34.1080   43.2840   -9.3110 N.am  314  GLY314     -0.1939
    140  CA        33.1380   43.7010   -8.3120 C.3   314  GLY314      0.2014
    141  C         32.5530   45.0670   -8.6090 C.2   314  GLY314      0.2638
    142  O         31.5440   45.4650   -8.0260 O.2   314  GLY314     -0.2714
    143  N         33.2010   45.7910   -9.5140 N.am  315  MET315     -0.1976
    144  CA        32.7450   47.1130   -9.9200 C.3   315  MET315      0.1605
    145  C         31.9560   46.9300  -11.2130 C.2   315  MET315      0.2287
    146  O         31.2460   47.8330  -11.6560 O.2   315  MET315     -0.2864
    147  CB        33.9440   48.0360  -10.1850 C.3   315  MET315      0.0413
    148  CG        34.8130   48.3430   -8.9720 C.3   315  MET315      0.0598
    149  SD        34.0570   49.5070   -7.8140 S.3   315  MET315     -0.1393
    150  CE        34.8810   51.0340   -8.2700 C.3   315  MET315      0.0692
    151  N         33.5030   46.0440  -14.1260 N.3   317  ALA317     -0.1231
    152  CA        34.3470   46.6470  -15.1510 C.3   317  ALA317      0.1694
    153  C         34.9060   45.5720  -16.0690 C.2   317  ALA317      0.2593
    154  O         35.9220   45.7720  -16.7320 O.2   317  ALA317     -0.2718
    155  CB        35.4840   47.4190  -14.5000 C.3   317  ALA317      0.0304
    156  N         34.2330   44.4290  -16.1010 N.am  318  GLY318     -0.1942
    157  CA        34.6770   43.3330  -16.9400 C.3   318  GLY318      0.2014
    158  C         34.6280   42.0110  -16.2020 C.2   318  GLY318      0.2639
    159  O         33.7800   41.8060  -15.3340 O.2   318  GLY318     -0.2714
    160  N         35.5400   41.1100  -16.5480 N.am  319  GLY319     -0.1939
    161  CA        35.5790   39.8160  -15.8950 C.3   319  GLY319      0.2014
    162  C         34.5260   38.8550  -16.4080 C.2   319  GLY319      0.2638
    163  O         34.2290   38.8210  -17.6030 O.2   319  GLY319     -0.2714
    164  N         33.9560   38.0710  -15.5010 N.am  320  ARG320     -0.1977
    165  CA        32.9370   37.0970  -15.8650 C.3   320  ARG320      0.1597
    166  C         31.5680   37.4880  -15.3210 C.2   320  ARG320      0.2287
    167  O         30.5510   36.9320  -15.7290 O.2   320  ARG320     -0.2864
    168  CB        33.3210   35.7190  -15.3300 C.3   320  ARG320      0.0334
    169  CG        34.6730   35.2250  -15.8040 C.3   320  ARG320      0.0492
    170  CD        35.0560   33.9540  -15.0760 C.3   320  ARG320      0.2205
    171  NE        36.3430   33.4310  -15.5210 N.pl3 320  ARG320     -0.0865
    172  CZ        36.9410   32.3730  -14.9860 C.cat 320  ARG320      0.5346
    173  NH1       36.3690   31.7220  -13.9810 N.pl3 320  ARG320      0.1354
    174  NH2       38.1110   31.9640  -15.4570 N.pl3 320  ARG320      0.1354
@<TRIPOS>BOND
     1    76    75   ar
     2    73    72    2
     3    77    75   ar
     4    75    74    1
     5    72    71    1
     6    71    74    1
     7    71    70    1
     8    65    64    2
     9    70    64   am
    10    64    63    1
    11   163   162    2
    12   157   158    1
    13   157   156    1
    14    26    24   ar
    15   154   153    2
    16    63    62    1
    17    63    66    1
    18    62    57   am
    19   160   158   am
    20   160   161    1
    21   162   161    1
    22   162   164   am
    23   158   159    2
    24    66    67    1
    25    56    57    1
    26    56    55    1
    27    56    59    1
    28   156   153   am
    29    57    58    2
    30   153   152    1
    31    67    68    1
    32   165   164    1
    33   165   168    1
    34   165   166    1
    35    24    25   ar
    36    24    23    1
    37   169   168    1
    38   169   170    1
    39   167   166    2
    40   171   170    1
    41   171   172    2
    42   174   172    1
    43    60    59    1
    44   152   155    1
    45   152   151    1
    46   172   173    1
    47    59    61    1
    48    68    69    1
    49    23    22    1
    50    22    19    1
    51    20    21    2
    52    20    19    1
    53    53    52    2
    54    19    18    1
    55    45    44    2
    56    52    51    1
    57   132   131    2
    58   119   120    1
    59   119   118    1
    60   133   131   am
    61   133   134    1
    62   137   134    1
    63   137   138    1
    64    51    50    1
    65    51    54    1
    66    44    50   am
    67    44    43    1
    68   131   130    1
    69   120   114    1
    70   146   145    2
    71   118   115    1
    72   134   135    1
    73    11    12    2
    74    11    10    1
    75    43    42    1
    76    43    46    1
    77   145   144    1
    78    49    47   ar
    79    10     9    1
    80    10    13    1
    81   136   135    2
    82    47    48   ar
    83    47    46    1
    84   130   129    1
    85   135   139   am
    86   114   115    1
    87   114   110   am
    88   147   144    1
    89   147   148    1
    90   115   116    1
    91     7     8    1
    92     7     6    1
    93    13    14    1
    94   144   143    1
    95   108   109    1
    96   109   110    1
    97   109   112    1
    98   143   141   am
    99   110   111    2
   100   139   140    1
   101    16    15    2
   102    14    15    1
   103   116   121   am
   104   116   117    2
   105   148   149    1
   106     5     6    1
   107     5     2    1
   108   121   122    1
   109   112   113    1
   110   126   127    1
   111   126   125    1
   112    34    32    1
   113   141   140    1
   114   141   142    2
   115    15    17   am
   116    38    37    2
   117   150   149    1
   118   127   128    1
   119   125   122    1
   120     3     2    1
   121     3     4    2
   122     2     1    1
   123   122   123    1
   124    32    33    1
   125    32    31    1
   126    37    36    1
   127    81    80    2
   128    78    79    1
   129   123   124    2
   130    31    28    1
   131   100    97    1
   132    36    35    1
   133    36    39    1
   134    94    92   ar
   135    94    95   ar
   136    80    79    1
   137    80    85   am
   138    30    29    2
   139    92    90   ar
   140    40    39    1
   141    79    82    1
   142    95    93   ar
   143    96    97    1
   144    96    87   am
   145    28    29    1
   146    28    27    1
   147    86    85    1
   148    86    87    1
   149    86    89    1
   150    97    98    1
   151    39    41    1
   152    83    82    1
   153    90    89    1
   154    90    91   ar
   155    87    88    2
   156    93    91   ar
   157    82    84    1
   158    98    99    2
   159    98   101   am
   160   107   105    1
   161   101   102    1
   162   102   105    1
   163   102   103    1
   164   105   106    1
   165   103   104    2
