@<TRIPOS>MOLECULE
tmp/3ieoA00.pdb
 125 118 0 0 0
SMALL
GASTEIGER

@<TRIPOS>ATOM
      1  N         -8.8210    2.1990    2.0570 N.3    57  LEU57      -0.1245
      2  CA        -7.4030    2.3000    1.7750 C.3    57  LEU57       0.1561
      3  C         -6.6420    1.0820    2.3260 C.2    57  LEU57       0.2260
      4  O         -6.8080    0.7490    3.5030 O.2    57  LEU57      -0.2867
      5  CB        -6.8270    3.5970    2.3770 C.3    57  LEU57       0.0270
      6  CG        -5.2940    3.7100    2.3820 C.3    57  LEU57       0.0019
      7  CD1       -4.7520    3.9440    0.9670 C.3    57  LEU57       0.0001
      8  CD2       -4.8230    4.7900    3.3240 C.3    57  LEU57       0.0001
      9  N         -3.2060    0.3110    3.5470 N.3    59  ASN59      -0.1240
     10  CA        -2.1260    1.1800    4.0370 C.3    59  ASN59       0.1653
     11  C         -0.8540    0.3610    4.3520 C.2    59  ASN59       0.2266
     12  O          0.0880    0.8060    5.0870 O.2    59  ASN59      -0.2867
     13  CB        -2.6340    1.9630    5.2410 C.3    59  ASN59       0.1155
     14  CG        -2.8690    1.0900    6.4700 C.2    59  ASN59       0.2627
     15  OD1       -2.4440   -0.0650    6.5320 O.2    59  ASN59      -0.2716
     16  ND2       -3.5420    1.6670    7.4690 N.am   59  ASN59      -0.0877
     17  N         -0.6080   -2.2000    6.1670 N.3    61  HIS61      -0.1241
     18  CA        -0.7920   -2.9920    7.4030 C.3    61  HIS61       0.1621
     19  C         -2.1880   -3.5130    7.7300 C.2    61  HIS61       0.2264
     20  O         -2.3080   -4.4380    8.5240 O.2    61  HIS61      -0.2867
     21  CB        -0.1470   -2.3590    8.6480 C.3    61  HIS61       0.0745
     22  CG        -0.7330   -1.0500    9.0850 C.ar   61  HIS61       0.0817
     23  ND1       -0.0870    0.1530    8.8760 N.ar   61  HIS61      -0.2268
     24  CD2       -1.8000   -0.7620    9.8700 C.ar   61  HIS61       0.1154
     25  CE1       -0.7840    1.1330    9.4320 C.ar   61  HIS61       0.1986
     26  NE2       -1.8190    0.6020   10.0590 N.ar   61  HIS61      -0.2212
     27  N         -8.3200    0.6020    5.8350 N.3    64  ASN64      -0.1240
     28  CA        -9.0830    1.5960    6.5400 C.3    64  ASN64       0.1653
     29  C        -10.3290    2.0140    5.7690 C.2    64  ASN64       0.2266
     30  O        -10.2180    2.4990    4.6180 O.2    64  ASN64      -0.2867
     31  CB        -8.2090    2.8280    6.6930 C.3    64  ASN64       0.1155
     32  CG        -7.4520    2.8570    8.0000 C.2    64  ASN64       0.2627
     33  OD1       -7.1010    3.9410    8.4780 O.2    64  ASN64      -0.2716
     34  ND2       -7.2080    1.6980    8.5960 N.am   64  ASN64      -0.0877
     35  N        -12.7100    4.9510    5.8560 N.3    66  GLU66      -0.1245
     36  CA       -12.5150    6.2970    6.3810 C.3    66  GLU66       0.1567
     37  C        -13.8220    7.0210    6.2120 C.2    66  GLU66       0.2260
     38  O        -14.5540    6.7750    5.2360 O.2    66  GLU66      -0.2867
     39  CB       -11.4330    7.0610    5.5970 C.3    66  GLU66       0.0388
     40  CG       -10.0700    6.3780    5.4500 C.3    66  GLU66       0.1160
     41  CD        -9.2900    6.9010    4.2270 C.2    66  GLU66       0.3649
     42  OE1       -9.8490    7.7370    3.4990 O.co2  66  GLU66      -0.2457
     43  OE2       -8.1380    6.4790    3.9690 O.co2  66  GLU66      -0.2457
     44  N        -13.9180    8.2500   12.7630 N.3    88  ILE88      -0.1231
     45  CA       -12.9870    8.6680   11.7100 C.3    88  ILE88       0.1692
     46  C        -12.6320    7.5600   10.7450 C.2    88  ILE88       0.2591
     47  O        -12.6280    7.7860    9.5400 O.2    88  ILE88      -0.2718
     48  CB       -11.7100    9.4560   12.2490 C.3    88  ILE88       0.0266
     49  CG1      -10.8030    9.8390   11.0660 C.3    88  ILE88       0.0019
     50  CG2      -10.9850    8.7250   13.4350 C.3    88  ILE88       0.0020
     51  CD1       -9.6480   10.7760   11.3850 C.3    88  ILE88       0.0001
     52  N        -12.4040    6.3470   11.2520 N.am   89  GLN89      -0.1979
     53  CA       -12.2240    5.1780   10.3690 C.3    89  GLN89       0.1601
     54  C        -12.4830    3.9100   11.1410 C.2    89  GLN89       0.2287
     55  O        -12.5600    3.9400   12.3870 O.2    89  GLN89      -0.2864
     56  CB       -10.8280    5.1540    9.6880 C.3    89  GLN89       0.0394
     57  CG        -9.6260    5.3430   10.6000 C.3    89  GLN89       0.0908
     58  CD        -9.1230    4.0420   11.2680 C.2    89  GLN89       0.2608
     59  OE1       -9.6470    2.9160   11.0590 O.2    89  GLN89      -0.2717
     60  NE2       -8.0790    4.1970   12.0770 N.am   89  GLN89      -0.0878
     61  N        -11.0130   -0.4110   10.8540 N.3    91  HIS91      -0.1241
     62  CA       -10.1070   -1.3600   10.2360 C.3    91  HIS91       0.1621
     63  C        -10.2330   -2.6100   11.0740 C.2    91  HIS91       0.2264
     64  O        -10.8710   -2.5950   12.1550 O.2    91  HIS91      -0.2867
     65  CB        -8.6460   -0.8690   10.2720 C.3    91  HIS91       0.0745
     66  CG        -8.1690   -0.5430   11.6500 C.ar   91  HIS91       0.0817
     67  ND1       -8.4040    0.6770   12.2370 N.ar   91  HIS91      -0.2268
     68  CD2       -7.5590   -1.3060   12.5990 C.ar   91  HIS91       0.1154
     69  CE1       -7.9330    0.6700   13.4840 C.ar   91  HIS91       0.1986
     70  NE2       -7.3820   -0.5050   13.7120 N.ar   91  HIS91      -0.2212
     71  N        -12.6910    3.7690   15.2310 N.3   118  VAL118     -0.1245
     72  CA       -11.7800    4.7020   15.8940 C.3   118  VAL118      0.1561
     73  C        -12.4960    6.0390   15.9560 C.2   118  VAL118      0.2260
     74  O        -13.0610    6.5010   14.9500 O.2   118  VAL118     -0.2867
     75  CB       -10.4350    4.7960   15.1250 C.3   118  VAL118      0.0252
     76  CG1       -9.4940    5.8870   15.7380 C.3   118  VAL118      0.0019
     77  CG2       -9.7520    3.4180   15.0970 C.3   118  VAL118      0.0019
     78  N         -8.5970   15.1890   14.8850 N.3   127  PHE127     -0.1241
     79  CA        -7.8120   13.9670   15.2190 C.3   127  PHE127      0.1605
     80  C         -6.3880   14.2660   15.7040 C.2   127  PHE127      0.2264
     81  O         -5.9260   13.6950   16.7280 O.2   127  PHE127     -0.2867
     82  CB        -7.7590   13.0340   14.0000 C.3   127  PHE127      0.0534
     83  CG        -7.0660   11.7320   14.2510 C.ar  127  PHE127     -0.0203
     84  CD1       -5.7290   11.5670   13.9390 C.ar  127  PHE127     -0.0042
     85  CD2       -7.7550   10.6590   14.8350 C.ar  127  PHE127     -0.0042
     86  CE1       -5.0690   10.3530   14.1700 C.ar  127  PHE127     -0.0003
     87  CE2       -7.1070    9.4390   15.0660 C.ar  127  PHE127     -0.0003
     88  CZ        -5.7530    9.2940   14.7490 C.ar  127  PHE127     -0.0000
     89  N         -9.0440    9.8710   22.3410 N.3   137  LEU137     -0.1245
     90  CA        -9.6290    8.8650   21.4340 C.3   137  LEU137      0.1561
     91  C        -10.5040    7.8330   22.1380 C.2   137  LEU137      0.2260
     92  O        -10.2500    7.4460   23.3040 O.2   137  LEU137     -0.2867
     93  CB        -8.5280    8.1070   20.6770 C.3   137  LEU137      0.0270
     94  CG        -7.5580    8.7470   19.6540 C.3   137  LEU137      0.0019
     95  CD1       -6.7260    7.6340   19.0180 C.3   137  LEU137      0.0001
     96  CD2       -8.3120    9.5720   18.6200 C.3   137  LEU137      0.0001
     97  N         -3.4460    3.0860   21.0070 N.3   194  LEU194     -0.1245
     98  CA        -3.5200    2.4700   19.6760 C.3   194  LEU194      0.1561
     99  C         -2.5610    1.2760   19.6340 C.2   194  LEU194      0.2260
    100  O         -1.5700    1.2120   20.3720 O.2   194  LEU194     -0.2867
    101  CB        -3.0900    3.4720   18.6360 C.3   194  LEU194      0.0270
    102  CG        -3.9110    4.7020   18.3070 C.3   194  LEU194      0.0019
    103  CD1       -3.4370    5.1930   16.9040 C.3   194  LEU194      0.0001
    104  CD2       -5.3030    4.3260   18.2600 C.3   194  LEU194      0.0001
    105  N         -1.0140    0.0700   16.8540 N.3   196  THR196     -0.1204
    106  CA         0.0310    0.2260   15.8790 C.3   196  THR196      0.1979
    107  C          0.8450    1.4640   16.2410 C.2   196  THR196      0.2460
    108  O          0.3270    2.4040   16.8780 O.2   196  THR196     -0.2732
    109  CB        -0.5540    0.4760   14.4740 C.3   196  THR196      0.1783
    110  OG1       -1.5690    1.4710   14.5820 O.3   196  THR196     -0.2211
    111  CG2       -1.1960   -0.7910   13.9520 C.3   196  THR196      0.0376
    112  N          2.1470    1.4380   15.9030 N.am  197  PRO197     -0.2718
    113  CA         2.9170    2.6590   15.9490 C.3   197  PRO197      0.1520
    114  C          2.2250    3.8310   15.2670 C.2   197  PRO197      0.2440
    115  O          1.5900    3.6540   14.2030 O.2   197  PRO197     -0.2731
    116  CB         4.2220    2.2760   15.2320 C.3   197  PRO197      0.0310
    117  CG         4.4000    0.8340   15.6300 C.3   197  PRO197      0.0237
    118  CD         2.9710    0.2750   15.5380 C.3   197  PRO197      0.0939
    119  N          2.3440    5.0320   15.8550 N.am  198  PRO198     -0.2727
    120  CA         3.1150    5.3390   17.1020 C.3   198  PRO198      0.1402
    121  C          2.6090    4.8290   18.4680 C.2   198  PRO198      0.2269
    122  O          3.1320    5.2910   19.4690 O.2   198  PRO198     -0.2865
    123  CB         3.1990    6.8950   17.1210 C.3   198  PRO198      0.0296
    124  CG         2.1080    7.3910   16.1640 C.3   198  PRO198      0.0237
    125  CD         1.7200    6.2230   15.2470 C.3   198  PRO198      0.0939
@<TRIPOS>BOND
     1     7     6    1
     2     2     1    1
     3     2     3    1
     4     2     5    1
     5     3     4    2
     6     5     6    1
     7     6     8    1
     8    42    41   ar
     9     9    10    1
    10    43    41   ar
    11    10    11    1
    12    10    13    1
    13    41    40    1
    14    11    12    2
    15    30    29    2
    16    38    37    2
    17    13    14    1
    18    40    39    1
    19    39    36    1
    20    29    28    1
    21    27    28    1
    22    35    36    1
    23    17    18    1
    24    37    36    1
    25    14    15    2
    26    14    16   am
    27    28    31    1
    28    31    32    1
    29    18    19    1
    30    18    21    1
    31    19    20    2
    32    32    33    2
    33    32    34   am
    34    21    22    1
    35    23    22   ar
    36    23    25   ar
    37    22    24   ar
    38    25    26   ar
    39    47    46    2
    40    56    53    1
    41    56    57    1
    42    24    26   ar
    43    62    65    1
    44    62    61    1
    45    62    63    1
    46    65    66    1
    47    53    54    1
    48    53    52    1
    49    57    58    1
    50    46    52   am
    51    46    45    1
    52    59    58    2
    53    49    51    1
    54    49    48    1
    55    63    64    2
    56    54    55    2
    57    58    60   am
    58    66    67   ar
    59    66    68   ar
    60    45    48    1
    61    45    44    1
    62    67    69   ar
    63    48    50    1
    64    68    70   ar
    65    69    70   ar
    66    84    86   ar
    67    84    83   ar
    68   111   109    1
    69    82    83    1
    70    82    79    1
    71    86    88   ar
    72   115   114    2
    73    83    85   ar
    74   109   110    1
    75   109   106    1
    76    88    87   ar
    77    85    87   ar
    78    78    79    1
    79    74    73    2
    80    77    75    1
    81    75    76    1
    82    75    72    1
    83    79    80    1
    84    71    72    1
    85   116   117    1
    86   116   113    1
    87   125   119    1
    88   125   124    1
    89   114   119   am
    90   114   113    1
    91   118   117    1
    92   118   112    1
    93    80    81    2
    94   119   120    1
    95   106   107    1
    96   106   105    1
    97    72    73    1
    98   112   113    1
    99   112   107   am
   100   124   123    1
   101   107   108    2
   102   103   102    1
   103   120   123    1
   104   120   121    1
   105   104   102    1
   106   102   101    1
   107   121   122    2
   108    96    94    1
   109   101    98    1
   110    95    94    1
   111    99    98    1
   112    99   100    2
   113    94    93    1
   114    98    97    1
   115    93    90    1
   116    90    91    1
   117    90    89    1
   118    91    92    2
