@<TRIPOS>MOLECULE
tmp/3ierA00.pdb
 142 137 0 0 0
SMALL
GASTEIGER

@<TRIPOS>ATOM
      1  N         -7.6260   44.0770   -0.0240 N.3   211  ARG211     -0.1301
      2  CA        -8.9250   44.2680   -0.7490 C.3   211  ARG211      0.1248
      3  C         -9.6140   45.5740   -0.4080 C.3   211  ARG211      0.2009
      4  O        -10.1820   46.2830   -1.3240 O.3   211  ARG211     -0.2188
      5  CB        -9.8360   43.0390   -0.5480 C.3   211  ARG211      0.0254
      6  CG       -11.2330   43.1480   -1.1810 C.3   211  ARG211      0.0485
      7  CD       -11.1770   43.3300   -2.6720 C.3   211  ARG211      0.2205
      8  NE       -12.4410   43.8690   -3.1600 N.pl3 211  ARG211     -0.0865
      9  CZ       -12.6240   44.2950   -4.3710 C.cat 211  ARG211      0.5346
     10  NH1      -11.6320   44.2560   -5.2480 N.pl3 211  ARG211      0.1354
     11  NH2      -13.7900   44.7870   -4.7160 N.pl3 211  ARG211      0.1354
     12  N        -18.8700   32.5650   -2.0840 N.3   238  HIS238     -0.1226
     13  CA       -17.7580   32.5000   -2.9860 C.3   238  HIS238      0.1752
     14  C        -17.0130   33.8460   -2.9660 C.2   238  HIS238      0.2597
     15  O        -17.5100   34.8690   -2.5090 O.2   238  HIS238     -0.2718
     16  CB       -18.3430   32.0920   -4.3560 C.3   238  HIS238      0.0759
     17  CG       -17.4020   32.1810   -5.4900 C.ar  238  HIS238      0.0818
     18  ND1      -17.0160   33.3930   -6.0540 N.ar  238  HIS238     -0.2268
     19  CD2      -16.8420   31.2090   -6.2570 C.ar  238  HIS238      0.1154
     20  CE1      -16.1890   33.1650   -7.0630 C.ar  238  HIS238      0.1986
     21  NE2      -16.0960   31.8480   -7.2280 N.ar  238  HIS238     -0.2212
     22  N        -15.7880   33.8180   -3.4410 N.am  239  GLY239     -0.1942
     23  CA       -14.8850   34.9250   -3.3220 C.3   239  GLY239      0.2014
     24  C        -15.3910   36.2010   -3.9970 C.2   239  GLY239      0.2638
     25  O        -15.1710   37.2800   -3.4620 O.2   239  GLY239     -0.2714
     26  N        -16.0720   36.0750   -5.1510 N.am  240  PHE240     -0.1973
     27  CA       -16.6200   37.2360   -5.8790 C.3   240  PHE240      0.1639
     28  C        -17.6200   37.9680   -4.9510 C.2   240  PHE240      0.2290
     29  O        -17.4410   39.1370   -4.6410 O.2   240  PHE240     -0.2864
     30  CB       -17.2240   36.8020   -7.2750 C.3   240  PHE240      0.0560
     31  CG       -17.6480   37.9510   -8.1690 C.ar  240  PHE240     -0.0200
     32  CD1      -17.2970   39.2510   -7.8890 C.ar  240  PHE240     -0.0042
     33  CD2      -18.3440   37.7090   -9.3520 C.ar  240  PHE240     -0.0042
     34  CE1      -17.6700   40.2980   -8.7410 C.ar  240  PHE240     -0.0003
     35  CE2      -18.7140   38.7500  -10.1880 C.ar  240  PHE240     -0.0003
     36  CZ       -18.4120   40.0240   -9.8830 C.ar  240  PHE240     -0.0000
     37  N        -15.8980   39.1830   -1.2590 N.3   243  PHE243     -0.1227
     38  CA       -14.9140   40.2540   -1.1810 C.3   243  PHE243      0.1736
     39  C        -15.3600   41.5370   -1.8350 C.2   243  PHE243      0.2596
     40  O        -14.8530   42.6090   -1.4810 O.2   243  PHE243     -0.2718
     41  CB       -13.5230   39.7260   -1.5830 C.3   243  PHE243      0.0547
     42  CG       -12.9340   38.8150   -0.5330 C.ar  243  PHE243     -0.0202
     43  CD1      -12.5290   39.3160    0.6990 C.ar  243  PHE243     -0.0042
     44  CD2      -12.8110   37.4550   -0.7500 C.ar  243  PHE243     -0.0042
     45  CE1      -12.0660   38.4810    1.7130 C.ar  243  PHE243     -0.0003
     46  CE2      -12.3480   36.6400    0.2370 C.ar  243  PHE243     -0.0003
     47  CZ       -11.9420   37.1430    1.4580 C.ar  243  PHE243     -0.0000
     48  N        -16.3400   41.4720   -2.7380 N.am  244  THR244     -0.1953
     49  CA       -16.9860   42.7010   -3.1660 C.3   244  THR244      0.1897
     50  C        -17.8460   43.2270   -2.0380 C.2   244  THR244      0.2313
     51  O        -17.7980   44.3830   -1.6940 O.2   244  THR244     -0.2863
     52  CB       -17.8960   42.5130   -4.4080 C.3   244  THR244      0.1794
     53  OG1      -18.7420   41.3570   -4.2540 O.3   244  THR244     -0.2208
     54  CG2      -17.0390   42.3170   -5.6670 C.3   244  THR244      0.0378
     55  N        -20.0420   44.2480  -13.7610 N.3   306  ALA306     -0.1231
     56  CA       -18.7320   43.7110  -13.3610 C.3   306  ALA306      0.1694
     57  C        -18.7630   42.2030  -13.4100 C.2   306  ALA306      0.2593
     58  O        -19.7530   41.5840  -12.9490 O.2   306  ALA306     -0.2718
     59  CB       -18.3640   44.2110  -11.9400 C.3   306  ALA306      0.0304
     60  N        -17.7150   41.6110  -13.9760 N.am  307  SER307     -0.1938
     61  CA       -17.5740   40.1890  -14.0350 C.3   307  SER307      0.2055
     62  C        -16.4370   39.7270  -13.0920 C.2   307  SER307      0.2644
     63  O        -15.4200   40.4200  -12.9380 O.2   307  SER307     -0.2714
     64  CB       -17.1640   39.7440  -15.4300 C.3   307  SER307      0.2130
     65  OG       -15.7940   40.0790  -15.5260 O.3   307  SER307     -0.2179
     66  N        -16.5280   38.5070  -12.6210 N.am  308  GLY308     -0.1939
     67  CA       -15.6970   38.0570  -11.5470 C.3   308  GLY308      0.2014
     68  C        -14.3820   37.4870  -11.9840 C.2   308  GLY308      0.2639
     69  O        -13.3470   37.7450  -11.3410 O.2   308  GLY308     -0.2714
     70  N        -14.4540   36.6900  -13.0500 N.am  309  GLY309     -0.1954
     71  CA       -13.3160   36.0760  -13.6150 C.3   309  GLY309      0.1869
     72  C        -12.2190   36.1350  -12.6050 C.2   309  GLY309      0.2309
     73  O        -11.2810   35.3460  -12.7210 O.2   309  GLY309     -0.2863
     74  N        -16.6690   45.7910  -16.8610 N.3   329  ARG329     -0.1231
     75  CA       -15.6860   45.9460  -15.8070 C.3   329  ARG329      0.1694
     76  C        -15.2380   44.5390  -15.3580 C.2   329  ARG329      0.2592
     77  O        -15.8670   43.8590  -14.5420 O.2   329  ARG329     -0.2718
     78  CB       -16.2620   46.7820  -14.6740 C.3   329  ARG329      0.0321
     79  CG       -15.2950   47.1980  -13.5810 C.3   329  ARG329      0.0489
     80  CD       -14.6740   48.4830  -13.9290 C.3   329  ARG329      0.2205
     81  NE       -13.5520   48.8830  -13.0470 N.pl3 329  ARG329     -0.0865
     82  CZ       -13.6470   49.5420  -11.9010 C.cat 329  ARG329      0.5346
     83  NH1      -14.8170   49.8540  -11.3840 N.pl3 329  ARG329      0.1354
     84  NH2      -12.5370   49.8760  -11.2390 N.pl3 329  ARG329      0.1354
     85  N        -14.1480   44.0930  -15.9730 N.am  330  GLN330     -0.1966
     86  CA       -13.6070   42.7960  -15.7430 C.3   330  GLN330      0.1732
     87  C        -12.6030   42.7610  -14.6220 C.2   330  GLN330      0.2613
     88  O        -11.8960   43.7170  -14.3580 O.2   330  GLN330     -0.2715
     89  CB       -13.0280   42.2410  -17.0240 C.3   330  GLN330      0.0408
     90  CG       -14.0850   42.1250  -18.1270 C.3   330  GLN330      0.0908
     91  CD       -13.6280   41.2860  -19.3090 C.2   330  GLN330      0.2608
     92  OE1      -13.1570   40.1640  -19.1530 O.2   330  GLN330     -0.2717
     93  NE2      -13.7840   41.8370  -20.5230 N.am  330  GLN330     -0.0878
     94  N        -12.6720   41.6720  -13.8790 N.am  331  GLY331     -0.2012
     95  CA       -11.6910   41.2530  -12.8620 C.3   331  GLY331      0.1506
     96  C        -11.1300   39.8860  -13.2940 C.3   331  GLY331      0.2054
     97  O        -11.7040   39.1520  -14.1860 O.3   331  GLY331     -0.2184
     98  N         -9.2390   36.9910  -10.9770 N.3   333  GLY333     -0.1210
     99  CA        -8.6780   36.5280   -9.7010 C.3   333  GLY333      0.1956
    100  C         -9.0570   35.0720   -9.4910 C.2   333  GLY333      0.2612
    101  O         -9.8040   34.5050  -10.2540 O.2   333  GLY333     -0.2717
    102  N         -8.5320   34.4680   -8.4530 N.am  334  LEU334     -0.1965
    103  CA        -8.8960   33.1280   -8.0700 C.3   334  LEU334      0.1728
    104  C         -9.2370   33.1640   -6.5620 C.2   334  LEU334      0.2616
    105  O         -8.8600   34.0950   -5.8610 O.2   334  LEU334     -0.2715
    106  CB        -7.6940   32.1970   -8.2190 C.3   334  LEU334      0.0311
    107  CG        -7.1280   32.1330   -9.6470 C.3   334  LEU334      0.0022
    108  CD1       -5.8720   31.4460   -9.6920 C.3   334  LEU334      0.0001
    109  CD2       -8.1600   31.4780  -10.5440 C.3   334  LEU334      0.0001
    110  N         -9.8540   32.0880   -6.0700 N.am  335  THR335     -0.1951
    111  CA       -10.1300   31.9700   -4.6570 C.3   335  THR335      0.1897
    112  C         -8.8140   32.1050   -3.8920 C.2   335  THR335      0.2313
    113  O         -8.7510   32.7980   -2.8780 O.2   335  THR335     -0.2863
    114  CB       -10.7970   30.6480   -4.3580 C.3   335  THR335      0.1794
    115  OG1      -11.9300   30.5750   -5.1710 O.3   335  THR335     -0.2208
    116  CG2      -11.1680   30.5190   -2.8640 C.3   335  THR335      0.0378
    117  N         -7.5780   35.6670   -3.0900 N.3   338  THR338     -0.1203
    118  CA        -8.6310   36.4310   -2.3890 C.3   338  THR338      0.1994
    119  C         -9.6460   37.0220   -3.3190 C.2   338  THR338      0.2619
    120  O        -10.7980   36.6140   -3.3010 O.2   338  THR338     -0.2717
    121  CB        -8.0390   37.5560   -1.5290 C.3   338  THR338      0.1784
    122  OG1       -7.1540   37.0100   -0.5760 O.3   338  THR338     -0.2211
    123  CG2       -9.1880   38.3760   -0.7760 C.3   338  THR338      0.0376
    124  N         -9.2440   38.0030   -4.1230 N.am  339  SER339     -0.1937
    125  CA       -10.1560   38.6370   -5.0620 C.3   339  SER339      0.2055
    126  C         -9.3880   38.9910   -6.3300 C.2   339  SER339      0.2642
    127  O         -8.3540   38.3460   -6.6420 O.2   339  SER339     -0.2714
    128  CB       -10.6980   39.8980   -4.4360 C.3   339  SER339      0.2130
    129  OG        -9.5790   40.6250   -3.9950 O.3   339  SER339     -0.2179
    130  N         -9.8810   39.9670   -7.0820 N.am  340  ALA340     -0.1977
    131  CA        -9.2820   40.2050   -8.3620 C.3   340  ALA340      0.1597
    132  C         -7.9260   40.8840   -8.1930 C.2   340  ALA340      0.2287
    133  O         -7.7860   41.8510   -7.4110 O.2   340  ALA340     -0.2864
    134  CB       -10.1790   41.0820   -9.1920 C.3   340  ALA340      0.0319
    135  N         -7.5630   44.1110  -12.8560 N.3   343  ILE343     -0.1245
    136  CA        -8.8740   44.7440  -12.9000 C.3   343  ILE343      0.1561
    137  C         -8.8640   45.8390  -13.9550 C.2   343  ILE343      0.2260
    138  O         -7.8630   46.5570  -14.0430 O.2   343  ILE343     -0.2867
    139  CB        -9.2450   45.4300  -11.5320 C.3   343  ILE343      0.0252
    140  CG1       -9.4310   44.3540  -10.4600 C.3   343  ILE343      0.0019
    141  CG2      -10.5130   46.2660  -11.6700 C.3   343  ILE343      0.0019
    142  CD1       -9.6210   44.9230   -8.9770 C.3   343  ILE343      0.0001
@<TRIPOS>BOND
     1    93    91   am
     2    91    92    2
     3    91    90    1
     4    90    89    1
     5    89    86    1
     6    74    75    1
     7    85    86    1
     8    85    76   am
     9    75    76    1
    10    75    78    1
    11    86    87    1
    12    65    64    1
    13    64    61    1
    14    76    77    2
    15    78    79    1
    16    87    88    2
    17    87    94   am
    18    97    96    1
    19   138   137    2
    20    61    60    1
    21    61    62    1
    22    60    57   am
    23   137   136    1
    24    80    79    1
    25    80    81    1
    26    94    95    1
    27    55    56    1
    28    71    70    1
    29    71    72    1
    30    57    56    1
    31    57    58    2
    32    56    59    1
    33    96    95    1
    34    62    63    2
    35    62    66   am
    36    70    68   am
    37    81    82    2
    38   136   135    1
    39   136   139    1
    40    73    72    2
    41    66    67    1
    42    68    67    1
    43    68    69    2
    44    82    83    1
    45    82    84    1
    46   141   139    1
    47   139   140    1
    48    98    99    1
    49   109   107    1
    50   140   142    1
    51   101   100    2
    52    35    36   ar
    53    35    33   ar
    54    36    34   ar
    55    99   100    1
    56   108   107    1
    57   107   106    1
    58   100   102   am
    59    33    31   ar
    60   134   131    1
    61    34    32   ar
    62   102   103    1
    63   131   132    1
    64   131   130    1
    65   106   103    1
    66   132   133    2
    67    31    32   ar
    68    31    30    1
    69   103   104    1
    70    30    27    1
    71    21    20   ar
    72    21    19   ar
    73   130   126   am
    74    20    18   ar
    75   127   126    2
    76   104   110   am
    77   104   105    2
    78   126   125    1
    79    19    17   ar
    80   110   111    1
    81    18    17   ar
    82    27    26    1
    83    27    28    1
    84    54    52    1
    85    17    16    1
    86    10     9    1
    87   115   114    1
    88    26    24   am
    89   125   128    1
    90   125   124    1
    91    28    29    2
    92    11     9    1
    93   111   114    1
    94   111   112    1
    95   128   129    1
    96    52    53    1
    97    52    49    1
    98     9     8    2
    99   114   116    1
   100    16    13    1
   101   124   119   am
   102    24    25    2
   103    24    23    1
   104   112   113    2
   105    22    23    1
   106    22    14   am
   107   119   120    2
   108   119   118    1
   109    49    48    1
   110    49    50    1
   111     8     7    1
   112   117   118    1
   113    13    14    1
   114    13    12    1
   115    14    15    2
   116    48    39   am
   117     7     6    1
   118   118   121    1
   119    50    51    2
   120    39    40    2
   121    39    38    1
   122    41    38    1
   123    41    42    1
   124   121   123    1
   125   121   122    1
   126     4     3    1
   127    37    38    1
   128     6     5    1
   129    44    42   ar
   130    44    46   ar
   131     2     5    1
   132     2     3    1
   133     2     1    1
   134    42    43   ar
   135    46    47   ar
   136    43    45   ar
   137    47    45   ar
