@<TRIPOS>MOLECULE
tmp/3ietA00.pdb
 83 81 0 0 0
SMALL
GASTEIGER

@<TRIPOS>ATOM
      1  N          0.8190    7.1850    4.0680 N.3    30  HIS30      -0.1226
      2  CA        -0.3460    6.3940    4.4530 C.3    30  HIS30       0.1752
      3  C         -1.3750    6.3700    3.3340 C.2    30  HIS30       0.2597
      4  O         -1.4570    7.3010    2.5280 O.2    30  HIS30      -0.2718
      5  CB        -0.9920    6.9440    5.7310 C.3    30  HIS30       0.0759
      6  CG        -1.9160    5.9770    6.3950 C.ar   30  HIS30       0.0818
      7  ND1       -3.2280    5.8050    6.0120 N.ar   30  HIS30      -0.2268
      8  CD2       -1.7040    5.1010    7.4110 C.ar   30  HIS30       0.1154
      9  CE1       -3.7920    4.8850    6.7550 C.ar   30  HIS30       0.1986
     10  NE2       -2.8890    4.4340    7.6270 N.ar   30  HIS30      -0.2212
     11  N         -2.1680    5.3050    3.3110 N.am   31  SER31      -0.1938
     12  CA        -3.2290    5.1600    2.3310 C.3    31  SER31       0.2055
     13  C         -4.2800    6.2490    2.5010 C.2    31  SER31       0.2643
     14  O         -5.0790    6.4710    1.6000 O.2    31  SER31      -0.2714
     15  CB        -3.8770    3.7780    2.4240 C.3    31  SER31       0.2130
     16  OG        -4.7610    3.7270    3.5280 O.3    31  SER31      -0.2179
     17  N         -4.2710    6.9390    3.6440 N.am   32  ASN32      -0.1971
     18  CA        -5.1980    8.0500    3.8540 C.3    32  ASN32       0.1688
     19  C         -4.6920    9.3650    3.2650 C.2    32  ASN32       0.2292
     20  O         -5.3830   10.3770    3.3140 O.2    32  ASN32      -0.2864
     21  CB        -5.5950    8.2030    5.3400 C.3    32  ASN32       0.1181
     22  CG        -4.4850    8.7980    6.2020 C.2    32  ASN32       0.2629
     23  OD1       -3.4050    9.1330    5.7160 O.2    32  ASN32      -0.2716
     24  ND2       -4.7590    8.9340    7.4980 N.am   32  ASN32      -0.0877
     25  N         -1.7960   10.9760    4.1680 N.3    34  ASN34      -0.1240
     26  CA        -0.8390   11.6670    5.0260 C.3    34  ASN34       0.1653
     27  C          0.4890   10.9280    5.1620 C.2    34  ASN34       0.2266
     28  O          0.5490    9.6980    5.0770 O.2    34  ASN34      -0.2867
     29  CB        -1.4310   11.9100    6.4210 C.3    34  ASN34       0.1155
     30  CG        -2.6030   12.8880    6.4040 C.2    34  ASN34       0.2627
     31  OD1       -2.5730   13.8870    5.6880 O.2    34  ASN34      -0.2716
     32  ND2       -3.6370   12.6030    7.1970 N.am   34  ASN34      -0.0877
     33  N          3.4020   10.3450    7.8860 N.3    36  TYR36      -0.1241
     34  CA         3.6220   10.5050    9.3270 C.3    36  TYR36       0.1605
     35  C          5.0920   10.3670    9.7350 C.2    36  TYR36       0.2264
     36  O          5.4870    9.3840   10.3620 O.2    36  TYR36      -0.2867
     37  CB         2.7380    9.5290   10.1150 C.3    36  TYR36       0.0534
     38  CG         1.2560    9.7320    9.9010 C.ar   36  TYR36      -0.0201
     39  CD1        0.6090    9.2040    8.7790 C.ar   36  TYR36      -0.0009
     40  CD2        0.4970   10.4540   10.8190 C.ar   36  TYR36      -0.0009
     41  CE1       -0.7520    9.3890    8.5820 C.ar   36  TYR36       0.0417
     42  CE2       -0.8570   10.6500   10.6290 C.ar   36  TYR36       0.0417
     43  CZ        -1.4790   10.1130    9.5120 C.ar   36  TYR36       0.1957
     44  OH        -2.8330   10.3000    9.3220 O.3    36  TYR36      -0.2866
     45  N          4.5260   15.2950   10.6650 N.3    54  LYS54      -0.1245
     46  CA         4.0450   15.1200    9.2980 C.3    54  LYS54       0.1561
     47  C          4.9710   15.7820    8.2820 C.2    54  LYS54       0.2260
     48  O          4.5290   16.5750    7.4530 O.2    54  LYS54      -0.2867
     49  CB         2.6230   15.6620    9.1580 C.3    54  LYS54       0.0271
     50  CG         1.5620   14.7200    9.6930 C.3    54  LYS54       0.0035
     51  CD         0.1780   15.3150    9.5430 C.3    54  LYS54       0.0206
     52  CE        -0.8930   14.3500   10.0110 C.3    54  LYS54       0.1093
     53  NZ        -2.1950   15.0370   10.2330 N.3    54  LYS54      -0.1314
     54  N          5.1690    7.0640   12.2670 N.3    95  SER95      -0.1202
     55  CA         4.0170    6.3780   12.8330 C.3    95  SER95       0.2020
     56  C          2.9330    6.1280   11.7880 C.2    95  SER95       0.2619
     57  O          1.7460    6.0560   12.1110 O.2    95  SER95      -0.2717
     58  CB         3.4600    7.1290   14.0450 C.3    95  SER95       0.2103
     59  OG         3.1790    8.4740   13.7170 O.3    95  SER95      -0.2182
     60  N          3.3460    5.9860   10.5310 N.am   96  THR96      -0.1938
     61  CA         2.4320    5.5130    9.5070 C.3    96  THR96       0.2028
     62  C          2.1230    4.0610    9.8200 C.2    96  THR96       0.2642
     63  O          0.9780    3.6210    9.7500 O.2    96  THR96      -0.2714
     64  CB         3.0420    5.5970    8.1010 C.3    96  THR96       0.1808
     65  OG1        3.1960    6.9740    7.7290 O.3    96  THR96      -0.2208
     66  CG2        2.1350    4.8870    7.0960 C.3    96  THR96       0.0379
     67  N          3.1670    3.3230   10.1790 N.am   97  HIS97      -0.1959
     68  CA         3.0240    1.9400   10.5940 C.3    97  HIS97       0.1787
     69  C          3.1900    1.9070   12.1180 C.2    97  HIS97       0.2620
     70  O          3.1990    2.9600   12.7630 O.2    97  HIS97      -0.2715
     71  CB         4.0910    1.0730    9.9010 C.3    97  HIS97       0.0785
     72  CG         4.1190    1.2200    8.4080 C.ar   97  HIS97       0.0821
     73  ND1        3.6610    0.2400    7.5510 N.ar   97  HIS97      -0.2267
     74  CD2        4.5420    2.2360    7.6170 C.ar   97  HIS97       0.1154
     75  CE1        3.8020    0.6420    6.3010 C.ar   97  HIS97       0.1986
     76  NE2        4.3340    1.8530    6.3120 N.ar   97  HIS97      -0.2212
     77  N          3.3220    0.7230   12.6900 N.am   98  VAL98      -0.1977
     78  CA         3.7030    0.6110   14.0940 C.3    98  VAL98       0.1596
     79  C          4.9210    1.5090   14.2990 C.2    98  VAL98       0.2287
     80  O          5.8910    1.4020   13.5590 O.2    98  VAL98      -0.2864
     81  CB         4.0760   -0.8450   14.4570 C.3    98  VAL98       0.0276
     82  CG1        4.5170   -0.9560   15.9040 C.3    98  VAL98       0.0022
     83  CG2        2.9120   -1.7860   14.1890 C.3    98  VAL98       0.0022
@<TRIPOS>BOND
     1    14    13    2
     2    12    15    1
     3    12    13    1
     4    12    11    1
     5    15    16    1
     6    13    17   am
     7     4     3    2
     8    19    20    2
     9    19    18    1
    10    11     3   am
    11     3     2    1
    12    17    18    1
    13    18    21    1
    14     1     2    1
    15    25    26    1
    16     2     5    1
    17    26    27    1
    18    26    29    1
    19    28    27    2
    20    21    22    1
    21    31    30    2
    22    23    22    2
    23     5     6    1
    24     7     6   ar
    25     7     9   ar
    26    22    24   am
    27    75    76   ar
    28    75    73   ar
    29    76    74   ar
    30     6     8   ar
    31    30    29    1
    32    30    32   am
    33     9    10   ar
    34    66    64    1
    35     8    10   ar
    36    48    47    2
    37    73    72   ar
    38    74    72   ar
    39    65    64    1
    40    33    34    1
    41    64    61    1
    42    47    46    1
    43    72    71    1
    44    41    39   ar
    45    41    43   ar
    46    39    38   ar
    47    49    46    1
    48    49    50    1
    49    46    45    1
    50    44    43    1
    51    34    35    1
    52    34    37    1
    53    61    62    1
    54    61    60    1
    55    43    42   ar
    56    51    50    1
    57    51    52    1
    58    35    36    2
    59    63    62    2
    60    62    67   am
    61    71    68    1
    62    38    37    1
    63    38    40   ar
    64    52    53    1
    65    67    68    1
    66    60    56   am
    67    68    69    1
    68    42    40   ar
    69    56    57    2
    70    56    55    1
    71    69    77   am
    72    69    70    2
    73    54    55    1
    74    77    78    1
    75    55    58    1
    76    80    79    2
    77    59    58    1
    78    78    79    1
    79    78    81    1
    80    83    81    1
    81    81    82    1
