@<TRIPOS>MOLECULE
tmp/3ieuA00.pdb
 112 108 0 0 0
SMALL
GASTEIGER

@<TRIPOS>ATOM
      1  N         22.8040   33.8960   38.9650 N.3    14  PRO14      -0.2102
      2  CA        22.2340   33.2600   37.7700 C.3    14  PRO14       0.1504
      3  C         23.2520   32.4500   36.9670 C.2    14  PRO14       0.2576
      4  O         24.3770   32.8840   36.7210 O.2    14  PRO14      -0.2718
      5  CB        21.7190   34.4480   36.9500 C.3    14  PRO14       0.0282
      6  CG        21.4320   35.5010   37.9670 C.3    14  PRO14       0.0208
      7  CD        22.4740   35.3340   39.0340 C.3    14  PRO14       0.0893
      8  N         22.8330   31.2510   36.5970 N.am   15  ASN15      -0.1961
      9  CA        23.5490   30.3740   35.6820 C.3    15  ASN15       0.1819
     10  C         24.4710   29.3500   36.2720 C.2    15  ASN15       0.2621
     11  O         25.0810   28.5740   35.5380 O.2    15  ASN15      -0.2715
     12  CB        24.2460   31.1280   34.5620 C.3    15  ASN15       0.1195
     13  CG        23.5980   30.8560   33.2330 C.2    15  ASN15       0.2630
     14  OD1       22.4690   31.3080   32.9730 O.2    15  ASN15      -0.2716
     15  ND2       24.2750   30.0650   32.3930 N.am   15  ASN15      -0.0877
     16  N         24.5600   29.3360   37.5910 N.am   16  VAL16      -0.1963
     17  CA        25.4550   28.4150   38.2680 C.3    16  VAL16       0.1727
     18  C         24.8790   26.9970   38.2710 C.2    16  VAL16       0.2617
     19  O         25.5910   26.0310   38.5220 O.2    16  VAL16      -0.2715
     20  CB        25.7570   28.8900   39.7010 C.3    16  VAL16       0.0290
     21  CG1       26.1890   30.3510   39.6920 C.3    16  VAL16       0.0023
     22  CG2       24.5530   28.7060   40.5990 C.3    16  VAL16       0.0023
     23  N         23.5820   26.8750   37.9770 N.am   17  GLY17      -0.1940
     24  CA        22.9340   25.5710   37.8940 C.3    17  GLY17       0.2014
     25  C         21.9700   25.2160   39.0170 C.2    17  GLY17       0.2639
     26  O         21.6990   24.0300   39.2490 O.2    17  GLY17      -0.2714
     27  N         21.4520   26.2380   39.7000 N.am   18  LYS18      -0.1963
     28  CA        20.4430   26.0650   40.7460 C.3    18  LYS18       0.1728
     29  C         19.2370   25.2240   40.3000 C.2    18  LYS18       0.2617
     30  O         18.8860   24.2350   40.9420 O.2    18  LYS18      -0.2715
     31  CB        19.9580   27.4250   41.2470 C.3    18  LYS18       0.0311
     32  CG        21.0540   28.3080   41.8390 C.3    18  LYS18       0.0038
     33  CD        20.5060   29.6260   42.3980 C.3    18  LYS18       0.0206
     34  CE        19.8090   30.4950   41.3390 C.3    18  LYS18       0.1093
     35  NZ        20.6910   31.1520   40.3570 N.3    18  LYS18      -0.1314
     36  N         18.6010   25.6000   39.2010 N.am   19  SER19      -0.1936
     37  CA        17.4010   24.8810   38.7670 C.3    19  SER19       0.2055
     38  C         17.7500   23.4700   38.3390 C.2    19  SER19       0.2643
     39  O         16.9590   22.5420   38.5160 O.2    19  SER19      -0.2714
     40  CB        16.6970   25.6220   37.6340 C.3    19  SER19       0.2130
     41  OG        16.7520   27.0260   37.8620 O.3    19  SER19      -0.2179
     42  N         18.9520   23.3050   37.7950 N.am   20  THR20      -0.1950
     43  CA        19.3730   21.9970   37.3230 C.3    20  THR20       0.1897
     44  C         19.5390   21.0400   38.4890 C.2    20  THR20       0.2313
     45  O         19.1840   19.8630   38.4010 O.2    20  THR20      -0.2863
     46  CB        20.6980   22.0720   36.5850 C.3    20  THR20       0.1794
     47  OG1       20.6470   23.1140   35.5970 O.3    20  THR20      -0.2208
     48  CG2       21.0100   20.7320   35.9460 C.3    20  THR20       0.0378
     49  N         13.3640   28.9460   30.9670 N.3    35  ARG35      -0.1245
     50  CA        14.4170   29.9310   30.7270 C.3    35  ARG35       0.1563
     51  C         13.9430   31.3550   31.0450 C.2    35  ARG35       0.2260
     52  O         14.6550   32.3250   30.7820 O.2    35  ARG35      -0.2867
     53  CB        14.9460   29.8410   29.2840 C.3    35  ARG35       0.0307
     54  CG        15.4340   28.4440   28.8410 C.3    35  ARG35       0.0489
     55  CD        16.9630   28.2800   28.7750 C.3    35  ARG35       0.2205
     56  NE        17.3460   27.1970   27.8580 N.pl3  35  ARG35      -0.0865
     57  CZ        18.5740   27.0020   27.3670 C.cat  35  ARG35       0.5346
     58  NH1       19.5720   27.8130   27.7060 N.pl3  35  ARG35       0.1354
     59  NH2       18.8070   25.9910   26.5310 N.pl3  35  ARG35       0.1354
     60  N         29.3800   23.5990   41.5420 N.3   121  ASN121     -0.1225
     61  CA        28.7770   22.9560   40.3910 C.3   121  ASN121      0.1785
     62  C         29.6400   23.0770   39.1340 C.2   121  ASN121      0.2597
     63  O         30.6580   23.7570   39.1440 O.2   121  ASN121     -0.2718
     64  CB        27.3770   23.5280   40.1650 C.3   121  ASN121      0.1169
     65  CG        26.5390   22.6820   39.2210 C.2   121  ASN121      0.2627
     66  OD1       26.5920   21.4490   39.2530 O.2   121  ASN121     -0.2716
     67  ND2       25.7640   23.3460   38.3710 N.am  121  ASN121     -0.0877
     68  N         29.2250   22.3930   38.0710 N.am  122  LYS122     -0.1980
     69  CA        29.8710   22.4690   36.7660 C.3   122  LYS122      0.1596
     70  C         31.2990   21.9760   36.8820 C.2   122  LYS122      0.2287
     71  O         32.1990   22.4240   36.1730 O.2   122  LYS122     -0.2864
     72  CB        29.8070   23.8920   36.2150 C.3   122  LYS122      0.0298
     73  CG        28.3960   24.4110   36.0620 C.3   122  LYS122      0.0038
     74  CD        28.2860   25.4590   34.9790 C.3   122  LYS122      0.0206
     75  CE        26.8700   26.0180   34.9120 C.3   122  LYS122      0.1093
     76  NZ        26.5410   26.6080   33.5820 N.3   122  LYS122     -0.1314
     77  N         32.3360   19.0200   36.1710 N.3   124  ASP124     -0.1225
     78  CA        32.6380   18.3010   34.9390 C.3   124  ASP124      0.1805
     79  C         33.2530   19.2410   33.8970 C.2   124  ASP124      0.2597
     80  O         34.0260   18.8180   33.0350 O.2   124  ASP124     -0.2718
     81  CB        31.3560   17.6620   34.3790 C.3   124  ASP124      0.1424
     82  CG        30.2830   18.6940   34.0430 C.2   124  ASP124      0.3668
     83  OD1       29.9680   19.5420   34.9040 O.co2 124  ASP124     -0.2456
     84  OD2       29.7530   18.6620   32.9180 O.co2 124  ASP124     -0.2456
     85  N         32.9070   20.5210   34.0000 N.am  125  ASN125     -0.1974
     86  CA        33.2490   21.5200   32.9950 C.3   125  ASN125      0.1688
     87  C         34.5420   22.2810   33.3020 C.2   125  ASN125      0.2292
     88  O         34.8290   23.3180   32.6910 O.2   125  ASN125     -0.2864
     89  CB        32.0960   22.5070   32.8620 C.3   125  ASN125      0.1181
     90  CG        31.9940   23.1010   31.4830 C.2   125  ASN125      0.2629
     91  OD1       31.0560   23.8420   31.1860 O.2   125  ASN125     -0.2716
     92  ND2       32.9580   22.7790   30.6250 N.am  125  ASN125     -0.0877
     93  N         28.3080   17.7800   39.7820 N.3   152  SER152     -0.1202
     94  CA        27.7960   18.1160   38.4750 C.3   152  SER152      0.2020
     95  C         26.2920   17.9030   38.4950 C.2   152  SER152      0.2619
     96  O         25.8240   16.7720   38.5530 O.2   152  SER152     -0.2717
     97  CB        28.4220   17.2370   37.4070 C.3   152  SER152      0.2103
     98  OG        27.7070   17.3700   36.2000 O.3   152  SER152     -0.2182
     99  N         25.5280   18.9830   38.4540 N.am  153  ALA153     -0.1965
    100  CA        24.0770   18.8530   38.4700 C.3   153  ALA153      0.1728
    101  C         23.6120   18.0460   37.2680 C.2   153  ALA153      0.2616
    102  O         22.6510   17.2910   37.3620 O.2   153  ALA153     -0.2715
    103  CB        23.4180   20.2130   38.4950 C.3   153  ALA153      0.0334
    104  N         24.3260   18.1950   36.1550 N.am  154  GLU154     -0.1977
    105  CA        24.0210   17.5120   34.8930 C.3   154  GLU154      0.1602
    106  C         24.1740   15.9860   34.9820 C.2   154  GLU154      0.2287
    107  O         23.2710   15.2230   34.5970 O.2   154  GLU154     -0.2864
    108  CB        24.9390   18.0600   33.7990 C.3   154  GLU154      0.0415
    109  CG        24.3500   18.0440   32.4190 C.3   154  GLU154      0.1163
    110  CD        25.2630   18.7200   31.4160 C.2   154  GLU154      0.3649
    111  OE1       26.2500   18.0820   30.9800 O.co2 154  GLU154     -0.2457
    112  OE2       24.9900   19.8910   31.0650 O.co2 154  GLU154     -0.2457
@<TRIPOS>BOND
     1    59    57    1
     2    57    58    1
     3    57    56    2
     4    56    55    1
     5    55    54    1
     6    54    53    1
     7    53    50    1
     8    92    90   am
     9    50    49    1
    10    50    51    1
    11    52    51    2
    12   111   110   ar
    13   112   110   ar
    14    91    90    2
    15   110   109    1
    16    90    89    1
    17    15    13   am
    18   109   108    1
    19    88    87    2
    20    89    86    1
    21    84    82   ar
    22    14    13    2
    23    86    87    1
    24    86    85    1
    25    80    79    2
    26    13    12    1
    27    76    75    1
    28   108   105    1
    29    79    85   am
    30    79    78    1
    31    82    81    1
    32    82    83   ar
    33    81    78    1
    34    12     9    1
    35   107   106    2
    36   105   106    1
    37   105   104    1
    38    75    74    1
    39    78    77    1
    40    74    73    1
    41    11    10    2
    42    47    46    1
    43     9    10    1
    44     9     8    1
    45    48    46    1
    46    73    72    1
    47   104   101   am
    48    71    70    2
    49    98    97    1
    50    72    69    1
    51    10    16   am
    52    46    43    1
    53     8     3   am
    54     4     3    2
    55    69    70    1
    56    69    68    1
    57     5     2    1
    58     5     6    1
    59     3     2    1
    60   101   102    2
    61   101   100    1
    62    43    42    1
    63    43    44    1
    64    97    94    1
    65    16    17    1
    66    40    41    1
    67    40    37    1
    68     2     1    1
    69    42    38   am
    70    24    23    1
    71    24    25    1
    72     6     7    1
    73    23    18   am
    74    68    62   am
    75    17    18    1
    76    17    20    1
    77    18    19    2
    78    38    39    2
    79    38    37    1
    80    67    65   am
    81    45    44    2
    82    99   100    1
    83    99    95   am
    84   100   103    1
    85    94    95    1
    86    94    93    1
    87    95    96    2
    88    37    36    1
    89     1     7    1
    90    25    26    2
    91    25    27   am
    92    62    63    2
    93    62    61    1
    94    36    29   am
    95    65    66    2
    96    65    64    1
    97    21    20    1
    98    27    28    1
    99    20    22    1
   100    64    61    1
   101    29    28    1
   102    29    30    2
   103    35    34    1
   104    61    60    1
   105    28    31    1
   106    31    32    1
   107    34    33    1
   108    32    33    1
