@<TRIPOS>MOLECULE
tmp/3ieuA01.pdb
 79 74 0 0 0
SMALL
GASTEIGER

@<TRIPOS>ATOM
      1  N         17.4900   17.6100   39.8980 N.3    24  LYS24      -0.1231
      2  CA        18.1080   16.3300   40.2340 C.3    24  LYS24       0.1693
      3  C         17.6760   15.9030   41.6340 C.2    24  LYS24       0.2592
      4  O         17.4890   14.7220   41.9090 O.2    24  LYS24      -0.2718
      5  CB        19.6200   16.4080   40.1130 C.3    24  LYS24       0.0285
      6  CG        20.1490   16.0900   38.7330 C.3    24  LYS24       0.0035
      7  CD        20.5140   14.6250   38.6100 C.3    24  LYS24       0.0206
      8  CE        20.9350   14.2560   37.1800 C.3    24  LYS24       0.1093
      9  NZ        19.7780   14.0290   36.2350 N.3    24  LYS24      -0.1314
     10  N         17.5010   16.8770   42.5200 N.am   25  LEU25      -0.1966
     11  CA        17.0150   16.5800   43.8530 C.3    25  LEU25       0.1728
     12  C         15.5560   16.1200   43.8520 C.2    25  LEU25       0.2616
     13  O         15.1980   15.2540   44.6400 O.2    25  LEU25      -0.2715
     14  CB        17.2210   17.7700   44.7970 C.3    25  LEU25       0.0311
     15  CG        18.6800   18.0680   45.1230 C.3    25  LEU25       0.0022
     16  CD1       18.8440   19.4770   45.6270 C.3    25  LEU25       0.0001
     17  CD2       19.2640   17.0680   46.1330 C.3    25  LEU25       0.0001
     18  N         14.7100   16.6740   42.9870 N.am   26  LEU26      -0.1963
     19  CA        13.2920   16.2590   42.9910 C.3    26  LEU26       0.1728
     20  C         13.1150   14.8460   42.4460 C.2    26  LEU26       0.2616
     21  O         12.1160   14.1680   42.7260 O.2    26  LEU26      -0.2715
     22  CB        12.4080   17.2290   42.2200 C.3    26  LEU26       0.0311
     23  CG        12.4170   18.6310   42.8020 C.3    26  LEU26       0.0022
     24  CD1       11.9840   19.6490   41.7740 C.3    26  LEU26       0.0001
     25  CD2       11.5550   18.6980   44.0510 C.3    26  LEU26       0.0001
     26  N         14.0940   14.4160   41.6580 N.am   27  GLY27      -0.1955
     27  CA        14.1650   13.0410   41.2130 C.3    27  GLY27       0.1869
     28  C         13.0900   12.5450   40.2660 C.2    27  GLY27       0.2309
     29  O         12.9820   11.3410   40.0780 O.2    27  GLY27      -0.2863
     30  N         10.1900   18.1840   47.7140 N.3    48  HIS48      -0.1241
     31  CA        10.5210   16.7620   47.6340 C.3    48  HIS48       0.1621
     32  C          9.9720   15.9930   48.8030 C.2    48  HIS48       0.2264
     33  O         10.3520   16.2190   49.9490 O.2    48  HIS48      -0.2867
     34  CB        12.0340   16.5170   47.5080 C.3    48  HIS48       0.0745
     35  CG        12.3920   15.0730   47.3200 C.ar   48  HIS48       0.0817
     36  ND1       13.1330   14.3650   48.2400 N.ar   48  HIS48      -0.2268
     37  CD2       12.0910   14.2040   46.3260 C.ar   48  HIS48       0.1154
     38  CE1       13.2810   13.1220   47.8160 C.ar   48  HIS48       0.1986
     39  NE2       12.6560   12.9990   46.6590 N.ar   48  HIS48      -0.2212
     40  N          9.3410   12.1850   50.2470 N.3    50  GLU50      -0.1245
     41  CA         9.6770   10.7870   50.0820 C.3    50  GLU50       0.1567
     42  C          9.5330   10.1550   51.4530 C.2    50  GLU50       0.2260
     43  O         10.3100   10.4430   52.3680 O.2    50  GLU50      -0.2867
     44  CB        11.1110   10.6580   49.5730 C.3    50  GLU50       0.0388
     45  CG        11.4680    9.3580   48.8780 C.3    50  GLU50       0.1160
     46  CD        12.9670    9.2490   48.6550 C.2    50  GLU50       0.3649
     47  OE1       13.7110    9.3640   49.6520 O.co2  50  GLU50      -0.2457
     48  OE2       13.4050    9.0660   47.4940 O.co2  50  GLU50      -0.2457
     49  N         25.1970   14.4860   43.8540 N.3   159  VAL159     -0.1231
     50  CA        23.9700   15.1460   44.2210 C.3   159  VAL159      0.1692
     51  C         23.2860   14.3750   45.3630 C.2   159  VAL159      0.2592
     52  O         22.6770   14.9720   46.2480 O.2   159  VAL159     -0.2718
     53  CB        23.1170   15.3930   42.9970 C.3   159  VAL159      0.0266
     54  CG1       21.6160   15.4170   43.3370 C.3   159  VAL159      0.0020
     55  CG2       23.5720   16.6860   42.3610 C.3   159  VAL159      0.0020
     56  N         23.4440   13.0550   45.3710 N.am  160  ASP160     -0.1974
     57  CA        22.9720   12.2240   46.4780 C.3   160  ASP160      0.1709
     58  C         23.6170   12.6350   47.8080 C.2   160  ASP160      0.2293
     59  O         23.0350   12.4570   48.8960 O.2   160  ASP160     -0.2864
     60  CB        23.2460   10.7390   46.1950 C.3   160  ASP160      0.1436
     61  CG        24.7230   10.4430   45.9490 C.2   160  ASP160      0.3671
     62  OD1       25.4510   11.3420   45.4740 O.co2 160  ASP160     -0.2456
     63  OD2       25.1610    9.3050   46.2230 O.co2 160  ASP160     -0.2456
     64  N         21.7200   15.5040   48.9520 N.3   163  ALA163     -0.1245
     65  CA        20.4070   15.0540   49.3540 C.3   163  ALA163      0.1562
     66  C         20.4270   14.5700   50.7860 C.2   163  ALA163      0.2260
     67  O         19.5100   14.8510   51.5770 O.2   163  ALA163     -0.2867
     68  CB        19.9400   13.9360   48.4160 C.3   163  ALA163      0.0290
     69  N         18.3230   15.8500   53.9880 N.3   167  ARG167     -0.1245
     70  CA        17.4830   14.9990   54.8540 C.3   167  ARG167      0.1563
     71  C         17.7900   15.1430   56.3330 C.2   167  ARG167      0.2260
     72  O         16.8780   15.2060   57.1640 O.2   167  ARG167     -0.2867
     73  CB        17.6240   13.5340   54.4850 C.3   167  ARG167      0.0307
     74  CG        16.4070   12.7160   54.7890 C.3   167  ARG167      0.0489
     75  CD        16.5400   11.3250   54.1880 C.3   167  ARG167      0.2205
     76  NE        15.3580   10.9080   53.4310 N.pl3 167  ARG167     -0.0865
     77  CZ        15.0610   11.3610   52.2200 C.cat 167  ARG167      0.5346
     78  NH1       15.8580   12.2600   51.6410 N.pl3 167  ARG167      0.1354
     79  NH2       13.9800   10.9190   51.5890 N.pl3 167  ARG167      0.1354
@<TRIPOS>BOND
     1     9     8    1
     2     8     7    1
     3     7     6    1
     4     6     5    1
     5     1     2    1
     6    29    28    2
     7     5     2    1
     8     2     3    1
     9    28    27    1
    10    27    26    1
    11     3     4    2
    12     3    10   am
    13    26    20   am
    14    24    23    1
    15    22    23    1
    16    22    19    1
    17    55    53    1
    18    20    21    2
    19    20    19    1
    20    10    11    1
    21    23    25    1
    22    18    19    1
    23    18    12   am
    24    53    54    1
    25    53    50    1
    26    12    11    1
    27    12    13    2
    28    11    14    1
    29    49    50    1
    30    50    51    1
    31    14    15    1
    32    15    16    1
    33    15    17    1
    34    51    56   am
    35    51    52    2
    36    56    57    1
    37    62    61   ar
    38    61    60    1
    39    61    63   ar
    40    60    57    1
    41    37    39   ar
    42    37    35   ar
    43    57    58    1
    44    39    38   ar
    45    35    34    1
    46    35    36   ar
    47    48    46   ar
    48    34    31    1
    49    31    30    1
    50    31    32    1
    51    58    59    2
    52    38    36   ar
    53    68    65    1
    54    46    45    1
    55    46    47   ar
    56    32    33    2
    57    45    44    1
    58    64    65    1
    59    65    66    1
    60    44    41    1
    61    41    40    1
    62    41    42    1
    63    66    67    2
    64    42    43    2
    65    79    77    1
    66    78    77    1
    67    77    76    2
    68    76    75    1
    69    69    70    1
    70    75    74    1
    71    73    74    1
    72    73    70    1
    73    70    71    1
    74    71    72    2
