@<TRIPOS>MOLECULE
tmp/3iewB00.pdb
 73 70 0 0 0
SMALL
GASTEIGER

@<TRIPOS>ATOM
      1  N         18.0510  -27.0180  -23.0450 N.3    94  ALA94      -0.1231
      2  CA        18.3910  -25.8820  -23.8820 C.3    94  ALA94       0.1694
      3  C         17.4330  -24.7740  -23.4930 C.2    94  ALA94       0.2591
      4  O         16.2120  -24.9800  -23.5020 O.2    94  ALA94      -0.2718
      5  CB        18.2230  -26.2430  -25.3510 C.3    94  ALA94       0.0304
      6  N         17.9690  -23.6250  -23.0980 N.am   95  GLN95      -0.1979
      7  CA        17.1260  -22.4870  -22.7330 C.3    95  GLN95       0.1601
      8  C         16.3720  -22.0310  -23.9840 C.2    95  GLN95       0.2287
      9  O         15.1990  -21.6810  -23.9070 O.2    95  GLN95      -0.2864
     10  CB        17.9610  -21.3560  -22.1120 C.3    95  GLN95       0.0394
     11  CG        17.1670  -20.2270  -21.4410 C.3    95  GLN95       0.0908
     12  CD        16.3370  -20.6670  -20.2330 C.2    95  GLN95       0.2608
     13  OE1       16.7370  -21.5270  -19.4440 O.2    95  GLN95      -0.2717
     14  NE2       15.1780  -20.0560  -20.0820 N.am   95  GLN95      -0.0878
     15  N         16.6880  -22.6120  -28.7220 N.3    97  PRO97      -0.2102
     16  CA        15.3430  -22.2490  -29.1770 C.3    97  PRO97       0.1504
     17  C         14.2960  -23.2840  -28.7430 C.2    97  PRO97       0.2576
     18  O         14.6260  -24.2030  -27.9830 O.2    97  PRO97      -0.2718
     19  CB        15.4870  -22.2770  -30.7020 C.3    97  PRO97       0.0282
     20  CG        16.4840  -23.3530  -30.9480 C.3    97  PRO97       0.0208
     21  CD        17.4560  -23.2830  -29.7870 C.3    97  PRO97       0.0893
     22  N         13.0580  -23.1310  -29.2250 N.am   98  LYS98      -0.1966
     23  CA        12.0040  -24.1390  -29.0270 C.3    98  LYS98       0.1728
     24  C         12.3510  -25.4050  -29.7900 C.2    98  LYS98       0.2616
     25  O         12.6900  -25.3510  -30.9690 O.2    98  LYS98      -0.2715
     26  CB        10.6320  -23.6320  -29.5070 C.3    98  LYS98       0.0311
     27  CG         9.8350  -22.8490  -28.4680 C.3    98  LYS98       0.0038
     28  CD         9.1180  -23.7840  -27.4900 C.3    98  LYS98       0.0206
     29  CE         7.8410  -24.3690  -28.0900 C.3    98  LYS98       0.1093
     30  NZ         6.9920  -25.0020  -27.0380 N.3    98  LYS98      -0.1314
     31  N         12.2420  -26.5430  -29.1090 N.am   99  LEU99      -0.1963
     32  CA        12.6380  -27.8280  -29.6740 C.3    99  LEU99       0.1728
     33  C         11.4600  -28.7520  -29.9720 C.2    99  LEU99       0.2616
     34  O         11.5930  -29.6420  -30.8110 O.2    99  LEU99      -0.2715
     35  CB        13.6270  -28.5220  -28.7320 C.3    99  LEU99       0.0311
     36  CG        14.9670  -27.7910  -28.5800 C.3    99  LEU99       0.0022
     37  CD1       15.7750  -28.4010  -27.4490 C.3    99  LEU99       0.0001
     38  CD2       15.7540  -27.8110  -29.8730 C.3    99  LEU99       0.0001
     39  N         10.3220  -28.5280  -29.2970 N.am  100  ALA100     -0.1977
     40  CA         9.1150  -29.3500  -29.4650 C.3   100  ALA100      0.1597
     41  C          8.7590  -29.6330  -30.9250 C.2   100  ALA100      0.2287
     42  O          8.4190  -30.7740  -31.2590 O.2   100  ALA100     -0.2864
     43  CB         7.9130  -28.7100  -28.7460 C.3   100  ALA100      0.0319
     44  N         12.4560  -32.3740  -23.9040 N.3   125  ALA125     -0.1231
     45  CA        13.1780  -31.0730  -23.8750 C.3   125  ALA125      0.1694
     46  C         12.9170  -30.2660  -22.6030 C.2   125  ALA125      0.2592
     47  O         11.8020  -30.2700  -22.0800 O.2   125  ALA125     -0.2718
     48  CB        12.7900  -30.2430  -25.0880 C.3   125  ALA125      0.0304
     49  N         13.9340  -29.5690  -22.1010 N.am  126  LYS126     -0.1966
     50  CA        13.7830  -28.7410  -20.8880 C.3   126  LYS126      0.1728
     51  C         14.5910  -27.4400  -20.9730 C.2   126  LYS126      0.2616
     52  O         15.6170  -27.3910  -21.6310 O.2   126  LYS126     -0.2715
     53  CB        14.2770  -29.5170  -19.6600 C.3   126  LYS126      0.0311
     54  CG        13.4540  -30.7520  -19.2890 C.3   126  LYS126      0.0038
     55  CD        12.0810  -30.4090  -18.7100 C.3   126  LYS126      0.0206
     56  CE        12.1810  -29.6280  -17.4060 C.3   126  LYS126      0.1093
     57  NZ        10.8730  -29.5640  -16.6820 N.3   126  LYS126     -0.1314
     58  N         14.1350  -26.3910  -20.2990 N.am  127  THR127     -0.1951
     59  CA        14.9310  -25.1880  -20.1580 C.3   127  THR127      0.1897
     60  C         15.6850  -25.3610  -18.8570 C.2   127  THR127      0.2313
     61  O         15.4630  -26.3410  -18.1350 O.2   127  THR127     -0.2863
     62  CB        14.0720  -23.8880  -20.1000 C.3   127  THR127      0.1794
     63  OG1       13.4220  -23.7920  -18.8330 O.3   127  THR127     -0.2208
     64  CG2       13.0250  -23.8380  -21.2260 C.3   127  THR127      0.0378
     65  N         15.6320  -22.7790  -16.6020 N.3   129  GLU129     -0.1245
     66  CA        15.0390  -21.7340  -15.7780 C.3   129  GLU129      0.1567
     67  C         15.9670  -20.5460  -15.5970 C.2   129  GLU129      0.2260
     68  O         16.0020  -19.9350  -14.5260 O.2   129  GLU129     -0.2867
     69  CB        14.6770  -22.2980  -14.4010 C.3   129  GLU129      0.0388
     70  CG        13.6960  -23.4480  -14.4460 C.3   129  GLU129      0.1160
     71  CD        12.2630  -23.0030  -14.6510 C.2   129  GLU129      0.3649
     72  OE1       11.9570  -21.7920  -14.5120 O.co2 129  GLU129     -0.2457
     73  OE2       11.4350  -23.8910  -14.9360 O.co2 129  GLU129     -0.2457
@<TRIPOS>BOND
     1    42    41    2
     2    25    24    2
     3    20    19    1
     4    20    21    1
     5    41    40    1
     6    34    33    2
     7    19    16    1
     8    33    32    1
     9    33    39   am
    10    38    36    1
    11    24    31   am
    12    24    23    1
    13    21    15    1
    14    32    31    1
    15    32    35    1
    16    26    23    1
    17    26    27    1
    18    40    39    1
    19    40    43    1
    20    22    23    1
    21    22    17   am
    22    16    17    1
    23    16    15    1
    24    17    18    2
    25    35    36    1
    26    36    37    1
    27    27    28    1
    28    29    28    1
    29    29    30    1
    30     5     2    1
    31    48    45    1
    32     8     9    2
    33     8     7    1
    34    44    45    1
    35     2     3    1
    36     2     1    1
    37    45    46    1
    38     4     3    2
    39     3     6   am
    40     6     7    1
    41     7    10    1
    42    46    49   am
    43    46    47    2
    44    10    11    1
    45    49    50    1
    46    52    51    2
    47    11    12    1
    48    64    62    1
    49    51    50    1
    50    51    58   am
    51    50    53    1
    52    58    59    1
    53    12    14   am
    54    12    13    2
    55    59    62    1
    56    59    60    1
    57    62    63    1
    58    53    54    1
    59    54    55    1
    60    60    61    2
    61    55    56    1
    62    56    57    1
    63    65    66    1
    64    66    67    1
    65    66    69    1
    66    67    68    2
    67    73    71   ar
    68    71    72   ar
    69    71    70    1
    70    70    69    1
