@<TRIPOS>MOLECULE
tmp/3iewA00.pdb
 81 77 0 0 0
SMALL
GASTEIGER

@<TRIPOS>ATOM
      1  N         19.8430  -30.0300   -3.3760 N.3   103  ALA103     -0.1231
      2  CA        19.5140  -28.7740   -2.7320 C.3   103  ALA103      0.1694
      3  C         20.5150  -28.4840   -1.6020 C.2   103  ALA103      0.2591
      4  O         20.7970  -29.3570   -0.7900 O.2   103  ALA103     -0.2718
      5  CB        18.0990  -28.8390   -2.1780 C.3   103  ALA103      0.0304
      6  N         21.0290  -27.2540   -1.5510 N.am  104  GLN104     -0.1979
      7  CA        21.9110  -26.8050   -0.4480 C.3   104  GLN104      0.1601
      8  C         21.1420  -26.8390    0.8690 C.2   104  GLN104      0.2287
      9  O         21.6570  -27.2860    1.8950 O.2   104  GLN104     -0.2864
     10  CB        22.4290  -25.3820   -0.7390 C.3   104  GLN104      0.0394
     11  CG        23.4990  -24.8220    0.2350 C.3   104  GLN104      0.0908
     12  CD        22.9210  -24.0180    1.4080 C.2   104  GLN104      0.2608
     13  OE1       21.8350  -23.4030    1.3100 O.2   104  GLN104     -0.2717
     14  NE2       23.6510  -24.0170    2.5280 N.am  104  GLN104     -0.0878
     15  N         16.6080  -26.5880    2.3790 N.3   106  PRO106     -0.2102
     16  CA        16.8000  -27.0220    3.7740 C.3   106  PRO106      0.1504
     17  C         17.1810  -28.4900    3.8410 C.2   106  PRO106      0.2576
     18  O         17.3150  -29.1320    2.7880 O.2   106  PRO106     -0.2718
     19  CB        15.4220  -26.7820    4.4140 C.3   106  PRO106      0.0282
     20  CG        14.4340  -26.8840    3.2610 C.3   106  PRO106      0.0208
     21  CD        15.1780  -26.5320    2.0020 C.3   106  PRO106      0.0893
     22  N         17.3510  -29.0090    5.0570 N.am  107  LYS107     -0.1966
     23  CA        17.5740  -30.4450    5.2620 C.3   107  LYS107      0.1728
     24  C         16.3180  -31.1630    4.7870 C.2   107  LYS107      0.2616
     25  O         15.2250  -30.8300    5.2360 O.2   107  LYS107     -0.2715
     26  CB        17.7860  -30.7930    6.7460 C.3   107  LYS107      0.0311
     27  CG        18.8690  -30.0080    7.4930 C.3   107  LYS107      0.0038
     28  CD        20.2580  -30.5990    7.2830 C.3   107  LYS107      0.0206
     29  CE        21.3220  -29.7460    7.9860 C.3   107  LYS107      0.1093
     30  NZ        22.6350  -29.9040    7.3040 N.3   107  LYS107     -0.1314
     31  N         16.4680  -32.1460    3.9040 N.am  108  LEU108     -0.1963
     32  CA        15.3060  -32.8560    3.3330 C.3   108  LEU108      0.1728
     33  C         15.0300  -34.2130    3.9900 C.2   108  LEU108      0.2616
     34  O         13.9400  -34.7850    3.8330 O.2   108  LEU108     -0.2715
     35  CB        15.4910  -33.0250    1.8270 C.3   108  LEU108      0.0311
     36  CG        15.6140  -31.7430    0.9940 C.3   108  LEU108      0.0022
     37  CD1       15.9750  -32.1190   -0.4360 C.3   108  LEU108      0.0001
     38  CD2       14.3460  -30.8850    1.0130 C.3   108  LEU108      0.0001
     39  N         16.0020  -34.7150    4.7530 N.am  109  ALA109     -0.1977
     40  CA        15.8850  -36.0210    5.4060 C.3   109  ALA109      0.1597
     41  C         14.5710  -36.1950    6.1760 C.2   109  ALA109      0.2287
     42  O         13.8990  -37.2070    6.0140 O.2   109  ALA109     -0.2864
     43  CB        17.0920  -36.2780    6.3390 C.3   109  ALA109      0.0319
     44  N         11.7330  -36.9180    3.5110 N.3   112  ILE112     -0.1245
     45  CA        11.9360  -37.8830    2.4340 C.3   112  ILE112      0.1561
     46  C         10.9490  -39.0490    2.4490 C.2   112  ILE112      0.2260
     47  O         10.4030  -39.4260    1.4000 O.2   112  ILE112     -0.2867
     48  CB        13.3720  -38.4590    2.4470 C.3   112  ILE112      0.0252
     49  CG1       14.3790  -37.4030    2.0070 C.3   112  ILE112      0.0019
     50  CG2       13.4680  -39.6470    1.4920 C.3   112  ILE112      0.0019
     51  CD1       14.5150  -37.2890    0.5090 C.3   112  ILE112      0.0001
     52  N         18.5660  -37.5580   -1.5100 N.3   134  ALA134     -0.1231
     53  CA        18.8500  -36.1290   -1.3730 C.3   134  ALA134      0.1694
     54  C         20.3580  -35.8980   -1.3300 C.2   134  ALA134      0.2592
     55  O         21.0700  -36.6130   -0.6260 O.2   134  ALA134     -0.2718
     56  CB        18.2000  -35.5830   -0.1060 C.3   134  ALA134      0.0304
     57  N         20.8240  -34.9060   -2.0790 N.am  135  LYS135     -0.1966
     58  CA        22.2350  -34.5190   -2.1340 C.3   135  LYS135      0.1728
     59  C         22.3560  -33.0040   -1.9890 C.2   135  LYS135      0.2616
     60  O         21.5130  -32.2780   -2.5160 O.2   135  LYS135     -0.2715
     61  CB        22.8500  -34.8950   -3.4920 C.3   135  LYS135      0.0311
     62  CG        22.8310  -36.3810   -3.8220 C.3   135  LYS135      0.0038
     63  CD        24.2160  -37.0020   -3.8670 C.3   135  LYS135      0.0206
     64  CE        24.9180  -37.0170   -2.5440 C.3   135  LYS135      0.1093
     65  NZ        26.3860  -37.1140   -2.7450 N.3   135  LYS135     -0.1314
     66  N         23.4020  -32.5350   -1.2950 N.am  136  THR136     -0.1951
     67  CA        23.8560  -31.1560   -1.4530 C.3   136  THR136      0.1897
     68  C         24.6580  -31.1770   -2.7400 C.2   136  THR136      0.2313
     69  O         24.9160  -32.2580   -3.2900 O.2   136  THR136     -0.2863
     70  CB        24.7690  -30.6580   -0.2720 C.3   136  THR136      0.1794
     71  OG1       26.0690  -31.2570   -0.3670 O.3   136  THR136     -0.2208
     72  CG2       24.1570  -30.9940    1.0900 C.3   136  THR136      0.0378
     73  N         27.7540  -29.8850   -2.7550 N.3   138  GLU138     -0.1245
     74  CA        29.0680  -29.5410   -2.1850 C.3   138  GLU138      0.1567
     75  C         29.4510  -28.0620   -2.3840 C.2   138  GLU138      0.2260
     76  O         30.5930  -27.7500   -2.7060 O.2   138  GLU138     -0.2867
     77  CB        30.1530  -30.4670   -2.7670 C.3   138  GLU138      0.0388
     78  CG        30.0020  -31.9180   -2.3410 C.3   138  GLU138      0.1160
     79  CD        30.2600  -32.1350   -0.8690 C.2   138  GLU138      0.3649
     80  OE1       30.9890  -31.3280   -0.2620 O.co2 138  GLU138     -0.2457
     81  OE2       29.7450  -33.1230   -0.3150 O.co2 138  GLU138     -0.2457
@<TRIPOS>BOND
     1    63    62    1
     2    63    64    1
     3    62    61    1
     4    61    58    1
     5     1     2    1
     6    69    68    2
     7    77    78    1
     8    77    74    1
     9    73    74    1
    10    65    64    1
    11    68    67    1
    12     2     5    1
    13     2     3    1
    14    76    75    2
    15    60    59    2
    16    75    74    1
    17    78    79    1
    18    58    57    1
    19    58    59    1
    20    57    54   am
    21    59    66   am
    22     3     6   am
    23     3     4    2
    24     6     7    1
    25    52    53    1
    26    67    66    1
    27    67    70    1
    28    53    54    1
    29    53    56    1
    30    54    55    2
    31    79    81   ar
    32    79    80   ar
    33    10     7    1
    34    10    11    1
    35     7     8    1
    36    37    36    1
    37    71    70    1
    38    70    72    1
    39    11    12    1
    40    51    49    1
    41     8     9    2
    42    36    38    1
    43    36    35    1
    44    13    12    2
    45    47    46    2
    46    12    14   am
    47    50    48    1
    48    35    32    1
    49    21    15    1
    50    21    20    1
    51    49    48    1
    52    15    16    1
    53    45    48    1
    54    45    46    1
    55    45    44    1
    56    18    17    2
    57    20    19    1
    58    32    31    1
    59    32    33    1
    60    16    17    1
    61    16    19    1
    62    34    33    2
    63    17    22   am
    64    31    24   am
    65    33    39   am
    66    39    40    1
    67    24    25    2
    68    24    23    1
    69    22    23    1
    70    23    26    1
    71    40    41    1
    72    40    43    1
    73    42    41    2
    74    26    27    1
    75    28    27    1
    76    28    29    1
    77    30    29    1
