@<TRIPOS>MOLECULE
tmp/3iewA01.pdb
 107 103 0 0 0
SMALL
GASTEIGER

@<TRIPOS>ATOM
      1  N         14.5940  -32.0460  -13.8250 N.3    11  ASP11      -0.1225
      2  CA        13.9510  -30.7510  -13.6760 C.3    11  ASP11       0.1805
      3  C         14.7720  -29.8510  -12.7520 C.2    11  ASP11       0.2598
      4  O         15.5350  -30.3350  -11.9140 O.2    11  ASP11      -0.2718
      5  CB        12.5150  -30.9340  -13.1510 C.3    11  ASP11       0.1424
      6  CG        11.6270  -29.6970  -13.3800 C.2    11  ASP11       0.3668
      7  OD1       11.9180  -28.8480  -14.2720 O.co2  11  ASP11      -0.2456
      8  OD2       10.6330  -29.5790  -12.6400 O.co2  11  ASP11      -0.2456
      9  N         14.6210  -28.5430  -12.9330 N.am   12  VAL12      -0.1966
     10  CA        15.1670  -27.5460  -12.0030 C.3    12  VAL12       0.1727
     11  C         14.1850  -26.3810  -11.8950 C.2    12  VAL12       0.2616
     12  O         13.4350  -26.1130  -12.8290 O.2    12  VAL12      -0.2715
     13  CB        16.5410  -27.0520  -12.4750 C.3    12  VAL12       0.0290
     14  CG1       16.4020  -26.1950  -13.7220 C.3    12  VAL12       0.0023
     15  CG2       17.2640  -26.2980  -11.3530 C.3    12  VAL12       0.0023
     16  N         14.1730  -25.7260  -10.7380 N.am   13  HIS13      -0.1973
     17  CA        13.3780  -24.5260  -10.5000 C.3    13  HIS13       0.1656
     18  C         14.1440  -23.5590   -9.6050 C.2    13  HIS13       0.2291
     19  O         14.9010  -23.9820   -8.7090 O.2    13  HIS13      -0.2864
     20  CB        12.0390  -24.8610   -9.8300 C.3    13  HIS13       0.0771
     21  CG        11.0200  -25.3970  -10.7790 C.ar   13  HIS13       0.0820
     22  ND1       10.2210  -24.5750  -11.5350 N.ar   13  HIS13      -0.2267
     23  CD2       10.6910  -26.6680  -11.1200 C.ar   13  HIS13       0.1154
     24  CE1        9.4460  -25.3140  -12.3110 C.ar   13  HIS13       0.1986
     25  NE2        9.7170  -26.5890  -12.0850 N.ar   13  HIS13      -0.2212
     26  N          7.5450  -21.5600  -10.4680 N.3    36  GLY36      -0.1210
     27  CA         7.1320  -22.1590  -11.7350 C.3    36  GLY36       0.1956
     28  C          5.6720  -21.8400  -12.0020 C.2    36  GLY36       0.2612
     29  O          5.0260  -21.1860  -11.1800 O.2    36  GLY36      -0.2717
     30  N          5.1540  -22.3070  -13.1390 N.am   37  HIS37      -0.1961
     31  CA         3.7490  -22.0790  -13.5260 C.3    37  HIS37       0.1787
     32  C          2.7720  -22.9040  -12.6620 C.2    37  HIS37       0.2620
     33  O          1.7750  -22.3770  -12.1480 O.2    37  HIS37      -0.2715
     34  CB         3.5710  -22.3980  -15.0240 C.3    37  HIS37       0.0785
     35  CG         2.1720  -22.2080  -15.5300 C.ar   37  HIS37       0.0821
     36  ND1        1.6730  -20.9750  -15.8970 N.ar   37  HIS37      -0.2267
     37  CD2        1.1670  -23.0960  -15.7320 C.ar   37  HIS37       0.1154
     38  CE1        0.4230  -21.1100  -16.3070 C.ar   37  HIS37       0.1986
     39  NE2        0.0890  -22.3870  -16.2120 N.ar   37  HIS37      -0.2212
     40  N          3.0740  -24.1940  -12.4970 N.am   38  SER38      -0.1950
     41  CA         2.3700  -25.0540  -11.5430 C.3    38  SER38       0.1924
     42  C          2.9460  -24.8100  -10.1290 C.2    38  SER38       0.2314
     43  O          3.6340  -23.8020   -9.9000 O.2    38  SER38      -0.2863
     44  CB         2.5140  -26.5230  -11.9660 C.3    38  SER38       0.2116
     45  OG         3.8840  -26.9140  -12.0110 O.3    38  SER38      -0.2180
     46  N          5.3820  -26.0380   -9.0150 N.3    40  ALA40      -0.1245
     47  CA         6.8370  -26.0800   -9.1770 C.3    40  ALA40       0.1562
     48  C          7.5180  -27.2710   -8.4680 C.2    40  ALA40       0.2260
     49  O          8.6900  -27.1790   -8.0980 O.2    40  ALA40      -0.2867
     50  CB         7.4680  -24.7490   -8.6930 C.3    40  ALA40       0.0290
     51  N          7.9390  -33.4690  -11.2030 N.3    45  HIS45      -0.1241
     52  CA         8.0590  -33.2230  -12.6350 C.3    45  HIS45       0.1621
     53  C          9.1230  -34.1170  -13.2790 C.2    45  HIS45       0.2264
     54  O          8.9290  -34.6270  -14.3850 O.2    45  HIS45      -0.2867
     55  CB         8.3720  -31.7620  -12.8900 C.3    45  HIS45       0.0745
     56  CG         7.2840  -30.8480  -12.4250 C.ar   45  HIS45       0.0817
     57  ND1        7.4130  -29.4810  -12.4070 N.ar   45  HIS45      -0.2268
     58  CD2        6.0420  -31.1180  -11.9580 C.ar   45  HIS45       0.1154
     59  CE1        6.2940  -28.9450  -11.9580 C.ar   45  HIS45       0.1986
     60  NE2        5.4500  -29.9190  -11.6720 N.ar   45  HIS45      -0.2212
     61  N          8.3370  -36.8590  -16.1190 N.3    49  ASP49      -0.1239
     62  CA         9.0880  -36.9300  -17.3780 C.3    49  ASP49       0.1674
     63  C          9.6850  -38.3060  -17.5950 C.2    49  ASP49       0.2266
     64  O          9.6550  -38.8430  -18.6990 O.2    49  ASP49      -0.2867
     65  CB        10.1960  -35.8570  -17.4470 C.3    49  ASP49       0.1410
     66  CG         9.9140  -34.7700  -18.4990 C.2    49  ASP49       0.3668
     67  OD1        8.9590  -34.9100  -19.2930 O.co2  49  ASP49      -0.2456
     68  OD2       10.6690  -33.7850  -18.5530 O.co2  49  ASP49      -0.2456
     69  N          7.0320  -35.7140  -23.5040 N.3    59  ASP59      -0.1225
     70  CA         7.4360  -35.0900  -22.2400 C.3    59  ASP59       0.1805
     71  C          6.3020  -34.3250  -21.5820 C.2    59  ASP59       0.2598
     72  O          5.1920  -34.2450  -22.1240 O.2    59  ASP59      -0.2718
     73  CB         8.6930  -34.2250  -22.4490 C.3    59  ASP59       0.1424
     74  CG         8.4770  -33.0460  -23.3910 C.2    59  ASP59       0.3668
     75  OD1        7.3420  -32.5520  -23.4940 O.co2  59  ASP59      -0.2456
     76  OD2        9.4650  -32.5980  -24.0250 O.co2  59  ASP59      -0.2456
     77  N          6.5880  -33.7740  -20.4040 N.am   60  ILE60      -0.1966
     78  CA         5.5700  -33.1760  -19.5600 C.3    60  ILE60       0.1727
     79  C          4.9090  -31.9780  -20.2740 C.2    60  ILE60       0.2617
     80  O          3.6910  -31.8190  -20.2200 O.2    60  ILE60      -0.2715
     81  CB         6.1700  -32.8300  -18.1590 C.3    60  ILE60       0.0290
     82  CG1        5.0810  -32.6160  -17.1220 C.3    60  ILE60       0.0022
     83  CG2        7.1260  -31.6600  -18.2320 C.3    60  ILE60       0.0023
     84  CD1        5.6350  -32.4000  -15.7080 C.3    60  ILE60       0.0001
     85  N          5.7010  -31.1900  -21.0010 N.am   61  GLY61      -0.1940
     86  CA         5.1770  -30.0880  -21.8280 C.3    61  GLY61       0.2014
     87  C          4.1860  -30.5210  -22.8970 C.2    61  GLY61       0.2638
     88  O          3.1810  -29.8600  -23.1130 O.2    61  GLY61      -0.2714
     89  N          4.4360  -31.6460  -23.5560 N.am   62  ARG62      -0.1977
     90  CA         3.4820  -32.1520  -24.5510 C.3    62  ARG62       0.1597
     91  C          2.0930  -32.4160  -23.9230 C.2    62  ARG62       0.2287
     92  O          1.0560  -32.1600  -24.5480 O.2    62  ARG62      -0.2864
     93  CB         4.0180  -33.4340  -25.2100 C.3    62  ARG62       0.0334
     94  CG         3.0080  -34.1240  -26.1230 C.3    62  ARG62       0.0492
     95  CD         3.5840  -35.3590  -26.7510 C.3    62  ARG62       0.2205
     96  NE         2.5870  -36.3960  -26.8890 N.pl3  62  ARG62      -0.0865
     97  CZ         2.8250  -37.5910  -27.4050 C.cat  62  ARG62       0.5346
     98  NH1        1.8410  -38.4750  -27.4760 N.pl3  62  ARG62       0.1354
     99  NH2        4.0390  -37.9080  -27.8560 N.pl3  62  ARG62       0.1354
    100  N          2.6650  -25.4950  -20.2450 N.3    66  ASP66      -0.1239
    101  CA         2.7260  -24.2430  -19.4540 C.3    66  ASP66       0.1674
    102  C          2.1080  -23.0120  -20.1700 C.2    66  ASP66       0.2266
    103  O          1.8900  -21.9680  -19.5380 O.2    66  ASP66      -0.2867
    104  CB         4.1610  -23.9380  -18.9630 C.3    66  ASP66       0.1410
    105  CG         5.1710  -23.7180  -20.1090 C.2    66  ASP66       0.3668
    106  OD1        4.8860  -24.0830  -21.2760 O.co2  66  ASP66      -0.2456
    107  OD2        6.2700  -23.1820  -19.8300 O.co2  66  ASP66      -0.2456
@<TRIPOS>BOND
     1    99    97    1
     2    98    97    1
     3    97    96    2
     4    96    95    1
     5    95    94    1
     6    94    93    1
     7    93    90    1
     8    90    91    1
     9    90    89    1
    10    92    91    2
    11    76    74   ar
    12    89    87   am
    13    69    70    1
    14    75    74   ar
    15    74    73    1
    16    88    87    2
    17    87    86    1
    18    73    70    1
    19    70    71    1
    20    72    71    2
    21    86    85    1
    22    71    77   am
    23   106   105   ar
    24    85    79   am
    25    77    78    1
    26    79    80    2
    27    79    78    1
    28   100   101    1
    29   102   103    2
    30   102   101    1
    31   105   107   ar
    32   105   104    1
    33    78    81    1
    34   101   104    1
    35    67    66   ar
    36    64    63    2
    37    68    66   ar
    38    66    65    1
    39    83    81    1
    40    81    82    1
    41    63    62    1
    42    65    62    1
    43    62    61    1
    44    82    84    1
    45    38    39   ar
    46    38    36   ar
    47    39    37   ar
    48    36    35   ar
    49    37    35   ar
    50    35    34    1
    51    34    31    1
    52    54    53    2
    53     7     6   ar
    54     1     2    1
    55    14    13    1
    56     2     5    1
    57     2     3    1
    58    31    30    1
    59    31    32    1
    60     6     5    1
    61     6     8   ar
    62    53    52    1
    63    30    28   am
    64     9     3   am
    65     9    10    1
    66    55    52    1
    67    55    56    1
    68    12    11    2
    69     3     4    2
    70    32    40   am
    71    32    33    2
    72    52    51    1
    73    40    41    1
    74    13    10    1
    75    13    15    1
    76    56    57   ar
    77    56    58   ar
    78    57    59   ar
    79    24    25   ar
    80    24    22   ar
    81    25    23   ar
    82    45    44    1
    83    10    11    1
    84    28    27    1
    85    28    29    2
    86    44    41    1
    87    58    60   ar
    88    59    60   ar
    89    11    16   am
    90    27    26    1
    91    41    42    1
    92    22    21   ar
    93    23    21   ar
    94    21    20    1
    95    16    17    1
    96    17    20    1
    97    17    18    1
    98    42    43    2
    99    18    19    2
   100    47    46    1
   101    47    50    1
   102    47    48    1
   103    48    49    2
