@<TRIPOS>MOLECULE
tmp/3if2A00.pdb
 131 123 0 0 0
SMALL
GASTEIGER

@<TRIPOS>ATOM
      1  N         17.7950   56.2720   77.2390 N.3    37  GLY37      -0.1225
      2  CA        18.6240   57.4550   77.0320 C.3    37  GLY37       0.1811
      3  C         17.9230   58.5450   76.2240 C.2    37  GLY37       0.2280
      4  O         18.5720   59.5100   75.7980 O.2    37  GLY37      -0.2866
      5  N         24.0930   61.7820   63.7150 N.3   110  GLY110     -0.1210
      6  CA        24.1540   61.6730   65.1820 C.3   110  GLY110      0.1956
      7  C         25.6210   61.5800   65.6200 C.2   110  GLY110      0.2613
      8  O         26.5000   61.2650   64.8020 O.2   110  GLY110     -0.2717
      9  N         25.9140   61.8910   66.8830 N.am  111  SER111     -0.1938
     10  CA        27.2920   61.7750   67.4130 C.3   111  SER111      0.2055
     11  C         27.8150   60.3350   67.4110 C.2   111  SER111      0.2642
     12  O         29.0040   60.1300   67.3610 O.2   111  SER111     -0.2714
     13  CB        27.4220   62.3860   68.8110 C.3   111  SER111      0.2130
     14  OG        27.4440   63.7910   68.7070 O.3   111  SER111     -0.2179
     15  N         26.9140   59.3420   67.4490 N.am  112  GLN112     -0.1976
     16  CA        27.2900   57.9150   67.3800 C.3   112  GLN112      0.1601
     17  C         28.0490   57.6170   66.0670 C.2   112  GLN112      0.2287
     18  O         29.0510   56.8880   66.0550 O.2   112  GLN112     -0.2864
     19  CB        26.0470   57.0210   67.4650 C.3   112  GLN112      0.0394
     20  CG        26.3290   55.4900   67.5850 C.3   112  GLN112      0.0908
     21  CD        27.0050   55.0990   68.8770 C.2   112  GLN112      0.2608
     22  OE1       26.9210   55.8180   69.8820 O.2   112  GLN112     -0.2717
     23  NE2       27.6630   53.9430   68.8680 N.am  112  GLN112     -0.0878
     24  N         31.4690   58.8720   66.4450 N.3   115  PHE115     -0.1241
     25  CA        32.3770   57.9860   67.1950 C.3   115  PHE115      0.1605
     26  C         32.7820   56.7680   66.3970 C.2   115  PHE115      0.2264
     27  O         33.9230   56.3310   66.5240 O.2   115  PHE115     -0.2867
     28  CB        31.8330   57.5890   68.5620 C.3   115  PHE115      0.0534
     29  CG        31.3350   58.7410   69.3390 C.ar  115  PHE115     -0.0203
     30  CD1       32.1400   59.8680   69.5530 C.ar  115  PHE115     -0.0042
     31  CD2       30.0440   58.7370   69.8420 C.ar  115  PHE115     -0.0042
     32  CE1       31.6560   60.9600   70.2690 C.ar  115  PHE115     -0.0003
     33  CE2       29.5670   59.8060   70.5340 C.ar  115  PHE115     -0.0003
     34  CZ        30.3740   60.9230   70.7550 C.ar  115  PHE115     -0.0000
     35  N         30.5810   56.0140   78.5510 N.3   144  TYR144     -0.1241
     36  CA        29.4350   55.7240   77.7020 C.3   144  TYR144      0.1605
     37  C         29.3990   54.3150   77.1200 C.2   144  TYR144      0.2264
     38  O         30.3350   53.8990   76.4320 O.2   144  TYR144     -0.2867
     39  CB        29.3570   56.7710   76.5880 C.3   144  TYR144      0.0534
     40  CG        28.2040   56.6240   75.6190 C.ar  144  TYR144     -0.0201
     41  CD1       26.8920   56.4060   76.0660 C.ar  144  TYR144     -0.0009
     42  CD2       28.4200   56.7710   74.2390 C.ar  144  TYR144     -0.0009
     43  CE1       25.8370   56.2770   75.1380 C.ar  144  TYR144      0.0417
     44  CE2       27.3910   56.6750   73.3180 C.ar  144  TYR144      0.0417
     45  CZ        26.1060   56.4360   73.7590 C.ar  144  TYR144      0.1957
     46  OH        25.1390   56.3290   72.8060 O.3   144  TYR144     -0.2866
     47  N         33.5040   61.7760   77.7400 N.3   202  SER202     -0.1217
     48  CA        32.2440   62.4980   77.7190 C.3   202  SER202      0.1889
     49  C         32.2180   63.4820   78.8820 C.2   202  SER202      0.2288
     50  O         32.6600   63.1390   79.9830 O.2   202  SER202     -0.2866
     51  CB        31.0520   61.5410   77.7580 C.3   202  SER202      0.2089
     52  OG        31.1580   60.5780   78.7810 O.3   202  SER202     -0.2183
     53  N         29.3770   66.4950   80.2440 N.3   204  PRO204     -0.2116
     54  CA        29.2130   65.5040   81.3270 C.3   204  PRO204      0.1372
     55  C         29.1250   64.0680   80.8100 C.2   204  PRO204      0.2244
     56  O         28.8130   63.8320   79.6330 O.2   204  PRO204     -0.2868
     57  CB        27.9280   65.9180   82.0450 C.3   204  PRO204      0.0268
     58  CG        27.2910   66.9710   81.2170 C.3   204  PRO204      0.0207
     59  CD        28.2470   67.4440   80.1760 C.3   204  PRO204      0.0892
     60  N         27.8930   60.0940   80.5750 N.3   206  ASN206     -0.1240
     61  CA        26.8540   59.0700   80.5980 C.3   206  ASN206      0.1653
     62  C         27.7490   57.9030   81.0270 C.2   206  ASN206      0.2266
     63  O         28.7260   57.6180   80.3310 O.2   206  ASN206     -0.2867
     64  CB        26.2510   58.8570   79.1840 C.3   206  ASN206      0.1155
     65  CG        25.2050   57.7220   79.1150 C.2   206  ASN206      0.2627
     66  OD1       25.1480   56.8790   79.9850 O.2   206  ASN206     -0.2716
     67  ND2       24.3940   57.7000   78.0540 N.am  206  ASN206     -0.0877
     68  N         33.3060   64.5010   73.9670 N.3   233  ASP233     -0.1239
     69  CA        31.8930   64.2770   73.6600 C.3   233  ASP233      0.1674
     70  C         31.0350   65.2110   74.5170 C.2   233  ASP233      0.2266
     71  O         30.9060   64.9660   75.7240 O.2   233  ASP233     -0.2867
     72  CB        31.6060   62.7860   73.9240 C.3   233  ASP233      0.1410
     73  CG        30.1510   62.3720   73.7430 C.2   233  ASP233      0.3668
     74  OD1       29.2620   63.1700   73.3560 O.co2 233  ASP233     -0.2456
     75  OD2       29.9210   61.1550   73.9460 O.co2 233  ASP233     -0.2456
     76  N         27.7040   65.6880   74.2070 N.3   235  ALA235     -0.1231
     77  CA        26.2860   65.3830   73.9650 C.3   235  ALA235      0.1694
     78  C         25.3450   66.1680   74.9160 C.2   235  ALA235      0.2592
     79  O         24.3540   66.7260   74.4570 O.2   235  ALA235     -0.2718
     80  CB        26.0380   63.8950   74.0610 C.3   235  ALA235      0.0304
     81  N         25.7250   66.2700   76.1990 N.am  236  TYR236     -0.1976
     82  CA        24.9480   66.9360   77.2750 C.3   236  TYR236      0.1639
     83  C         25.5440   68.2510   77.7750 C.2   236  TYR236      0.2290
     84  O         24.9870   68.8570   78.6990 O.2   236  TYR236     -0.2864
     85  CB        24.8580   65.9880   78.5020 C.3   236  TYR236      0.0560
     86  CG        24.2460   64.6330   78.2290 C.ar  236  TYR236     -0.0198
     87  CD1       22.8650   64.4590   78.1490 C.ar  236  TYR236     -0.0009
     88  CD2       25.0540   63.5160   78.0430 C.ar  236  TYR236     -0.0009
     89  CE1       22.2980   63.1720   77.8710 C.ar  236  TYR236      0.0417
     90  CE2       24.5100   62.2580   77.7640 C.ar  236  TYR236      0.0417
     91  CZ        23.1360   62.0840   77.6800 C.ar  236  TYR236      0.1957
     92  OH        22.6190   60.8210   77.4190 O.3   236  TYR236     -0.2866
     93  N         25.8860   67.4500   69.6110 N.3   260  SER260     -0.1217
     94  CA        24.7140   66.7670   69.0800 C.3   260  SER260      0.1889
     95  C         23.4630   67.6120   69.2930 C.2   260  SER260      0.2288
     96  O         23.4240   68.4320   70.2200 O.2   260  SER260     -0.2866
     97  CB        24.5430   65.4390   69.7990 C.3   260  SER260      0.2089
     98  OG        23.4940   64.6770   69.2640 O.3   260  SER260     -0.2183
     99  N         20.6250   65.8640   69.6170 N.3   262  SER262     -0.1202
    100  CA        19.7620   64.8660   70.2700 C.3   262  SER262      0.2020
    101  C         19.2630   65.2900   71.6500 C.2   262  SER262      0.2618
    102  O         18.0610   65.2260   71.9370 O.2   262  SER262     -0.2717
    103  CB        20.4880   63.5230   70.3770 C.3   262  SER262      0.2103
    104  OG        20.8270   63.0550   69.0990 O.3   262  SER262     -0.2182
    105  N         20.1700   65.8080   72.4580 N.am  263  LYS263     -0.1979
    106  CA        19.8330   66.1370   73.8450 C.3   263  LYS263      0.1596
    107  C         19.2550   67.5230   74.0730 C.2   263  LYS263      0.2287
    108  O         18.8990   67.8520   75.2020 O.2   263  LYS263     -0.2864
    109  CB        21.0020   65.7570   74.7560 C.3   263  LYS263      0.0298
    110  CG        21.5530   64.3000   74.4890 C.3   263  LYS263      0.0038
    111  CD        20.5280   63.1650   74.7300 C.3   263  LYS263      0.0206
    112  CE        21.0030   61.8150   74.1990 C.3   263  LYS263      0.1093
    113  NZ        22.4170   61.5350   74.5330 N.3   263  LYS263     -0.1314
    114  N         16.5100   64.0210   68.8740 N.3   267  PRO267     -0.2116
    115  CA        17.2480   62.7930   68.6180 C.3   267  PRO267      0.1372
    116  C         16.7820   62.0430   67.3830 C.2   267  PRO267      0.2244
    117  O         17.5950   61.3560   66.7610 O.2   267  PRO267     -0.2868
    118  CB        16.9880   61.9700   69.8750 C.3   267  PRO267      0.0268
    119  CG        15.6260   62.3590   70.2650 C.3   267  PRO267      0.0207
    120  CD        15.6040   63.8360   70.0280 C.3   267  PRO267      0.0892
    121  N         18.8450   62.7780   64.0890 N.3   269  ARG269     -0.1245
    122  CA        20.1930   62.2310   63.9290 C.3   269  ARG269      0.1563
    123  C         21.2000   63.2350   63.3940 C.2   269  ARG269      0.2260
    124  O         21.7020   63.0650   62.2900 O.2   269  ARG269     -0.2867
    125  CB        20.1830   60.9550   63.0380 C.3   269  ARG269      0.0307
    126  CG        19.1020   59.8910   63.3050 C.3   269  ARG269      0.0489
    127  CD        19.3430   58.9640   64.4980 C.3   269  ARG269      0.2205
    128  NE        19.6540   59.7260   65.6580 N.pl3 269  ARG269     -0.0865
    129  CZ        20.7900   59.7490   66.3530 C.cat 269  ARG269      0.5346
    130  NH1       21.8140   58.8890   66.1990 N.pl3 269  ARG269      0.1354
    131  NH2       20.8280   60.6490   67.3150 N.pl3 269  ARG269      0.1354
@<TRIPOS>BOND
     1   124   123    2
     2   125   126    1
     3   125   122    1
     4   126   127    1
     5   123   122    1
     6     5     6    1
     7   122   121    1
     8   127   128    1
     9     8     7    2
    10     6     7    1
    11     7     9   am
    12   128   129    2
    13    18    17    2
    14    17    16    1
    15   130   129    1
    16   129   131    1
    17    26    27    2
    18    26    25    1
    19    24    25    1
    20   117   116    2
    21     9    10    1
    22    25    28    1
    23    12    11    2
    24    16    15    1
    25    16    19    1
    26   116   115    1
    27    11    10    1
    28    11    15   am
    29    10    13    1
    30    19    20    1
    31    20    21    1
    32    28    29    1
    33   115   114    1
    34   115   118    1
    35    14    13    1
    36    23    21   am
    37   114   120    1
    38    21    22    2
    39    94    95    1
    40    94    93    1
    41    94    97    1
    42   104   103    1
    43    98    97    1
    44    95    96    2
    45    29    30   ar
    46    29    31   ar
    47    30    32   ar
    48    99   100    1
    49    31    33   ar
    50   118   119    1
    51   120   119    1
    52    32    34   ar
    53   100   103    1
    54   100   101    1
    55    33    34   ar
    56   101   102    2
    57   101   105   am
    58   105   106    1
    59    46    45    1
    60    44    45   ar
    61    44    42   ar
    62    74    73   ar
    63    69    72    1
    64    69    68    1
    65    69    70    1
    66    73    72    1
    67    73    75   ar
    68    45    43   ar
    69   106   107    1
    70   106   109    1
    71    77    80    1
    72    77    76    1
    73    77    78    1
    74   107   108    2
    75   112   113    1
    76   112   111    1
    77    42    40   ar
    78    79    78    2
    79   110   111    1
    80   110   109    1
    81    70    71    2
    82    78    81   am
    83    43    41   ar
    84    40    41   ar
    85    40    39    1
    86     4     3    2
    87    81    82    1
    88     3     2    1
    89    38    37    2
    90    39    36    1
    91     2     1    1
    92    37    36    1
    93    82    83    1
    94    82    85    1
    95    92    91    1
    96    91    90   ar
    97    91    89   ar
    98    36    35    1
    99    48    47    1
   100    48    51    1
   101    48    49    1
   102    51    52    1
   103    90    88   ar
   104    83    84    2
   105    89    87   ar
   106    88    86   ar
   107    67    65   am
   108    87    86   ar
   109    86    85    1
   110    49    50    2
   111    65    64    1
   112    65    66    2
   113    64    61    1
   114    56    55    2
   115    59    53    1
   116    59    58    1
   117    53    54    1
   118    63    62    2
   119    60    61    1
   120    61    62    1
   121    55    54    1
   122    58    57    1
   123    54    57    1
