@<TRIPOS>MOLECULE
tmp/3if6B01.pdb
 98 98 0 0 0
SMALL
GASTEIGER

@<TRIPOS>ATOM
      1  N        -57.0700  -13.7540  -10.5430 N.3    73  TRP73      -0.1241
      2  CA       -56.0330  -14.7050  -10.1660 C.3    73  TRP73       0.1605
      3  C        -56.4500  -15.4310   -8.8980 C.2    73  TRP73       0.2264
      4  O        -56.8620  -14.8000   -7.9250 O.2    73  TRP73      -0.2867
      5  CB       -54.7140  -13.9350   -9.9110 C.3    73  TRP73       0.0550
      6  CG       -53.5520  -14.7840   -9.4820 C.ar   73  TRP73       0.0003
      7  CD1      -52.8780  -14.7270   -8.2870 C.ar   73  TRP73       0.0946
      8  CD2      -52.9130  -15.8130  -10.2590 C.ar   73  TRP73       0.0152
      9  NE1      -51.8770  -15.6730   -8.2680 N.ar   73  TRP73      -0.2442
     10  CE2      -51.8690  -16.3410   -9.4710 C.ar   73  TRP73       0.0810
     11  CE3      -53.1300  -16.3400  -11.5410 C.ar   73  TRP73       0.0012
     12  CZ2      -51.0450  -17.3760   -9.9260 C.ar   73  TRP73       0.0191
     13  CZ3      -52.3080  -17.3640  -11.9900 C.ar   73  TRP73       0.0001
     14  CH2      -51.2800  -17.8740  -11.1850 C.ar   73  TRP73       0.0015
     15  N        -46.2970  -10.6200   -8.6660 N.3    80  PHE80      -0.1227
     16  CA       -46.2640  -10.1340  -10.0280 C.3    80  PHE80       0.1736
     17  C        -47.3110   -9.0620  -10.1320 C.2    80  PHE80       0.2595
     18  O        -48.2620   -9.0510   -9.3660 O.2    80  PHE80      -0.2718
     19  CB       -46.5120  -11.2550  -11.0470 C.3    80  PHE80       0.0547
     20  CG       -47.9260  -11.8300  -11.0490 C.ar   80  PHE80      -0.0202
     21  CD1      -48.2250  -12.9750  -10.3340 C.ar   80  PHE80      -0.0042
     22  CD2      -48.9300  -11.2640  -11.8310 C.ar   80  PHE80      -0.0042
     23  CE1      -49.5130  -13.5130  -10.3760 C.ar   80  PHE80      -0.0003
     24  CE2      -50.2240  -11.7940  -11.8720 C.ar   80  PHE80      -0.0003
     25  CZ       -50.5210  -12.9030  -11.1710 C.ar   80  PHE80      -0.0000
     26  N        -47.1250   -8.1700  -11.0930 N.am   81  ALA81      -0.1980
     27  CA       -47.9320   -6.9870  -11.2290 C.3    81  ALA81       0.1597
     28  C        -49.3980   -7.3320  -11.5620 C.2    81  ALA81       0.2287
     29  O        -49.6690   -8.1670  -12.4340 O.2    81  ALA81      -0.2864
     30  CB       -47.3090   -6.0540  -12.2870 C.3    81  ALA81       0.0319
     31  N        -52.2220   -4.2670  -20.5670 N.3    95  ASN95      -0.1225
     32  CA       -51.0860   -4.6520  -19.7510 C.3    95  ASN95       0.1785
     33  C        -50.6630   -6.0660  -20.0820 C.2    95  ASN95       0.2598
     34  O        -51.4620   -6.8910  -20.5660 O.2    95  ASN95      -0.2718
     35  CB       -51.5040   -4.6860  -18.2790 C.3    95  ASN95       0.1169
     36  CG       -52.1320   -3.3800  -17.7910 C.2    95  ASN95       0.2627
     37  OD1      -51.3940   -2.4380  -17.4850 O.2    95  ASN95      -0.2716
     38  ND2      -53.4890   -3.3300  -17.6790 N.am   95  ASN95      -0.0877
     39  N        -49.4250   -6.3870  -19.7360 N.am   96  SER96      -0.1938
     40  CA       -49.0410   -7.7960  -19.6280 C.3    96  SER96       0.2055
     41  C        -50.0310   -8.5580  -18.7200 C.2    96  SER96       0.2644
     42  O        -50.2520   -8.1830  -17.5890 O.2    96  SER96      -0.2714
     43  CB       -47.6130   -7.9360  -19.1060 C.3    96  SER96       0.2130
     44  OG       -47.2610   -9.3070  -19.1610 O.3    96  SER96      -0.2179
     45  N        -50.6190   -9.6370  -19.2280 N.am   97  THR97      -0.1936
     46  CA       -51.6000  -10.4080  -18.4610 C.3    97  THR97       0.2028
     47  C        -51.5400  -11.8670  -18.9010 C.2    97  THR97       0.2642
     48  O        -52.4900  -12.3920  -19.4690 O.2    97  THR97      -0.2714
     49  CB       -53.0520   -9.7860  -18.5890 C.3    97  THR97       0.1808
     50  OG1      -52.9810   -8.3460  -18.4940 O.3    97  THR97      -0.2208
     51  CG2      -54.0010  -10.3250  -17.4640 C.3    97  THR97       0.0379
     52  N        -50.4210  -12.5460  -18.6460 N.am   98  VAL98      -0.1963
     53  CA       -50.2150  -13.8130  -19.3790 C.3    98  VAL98       0.1727
     54  C        -51.2360  -14.9420  -19.1020 C.2    98  VAL98       0.2616
     55  O        -51.7100  -15.5870  -20.0620 O.2    98  VAL98      -0.2715
     56  CB       -48.6940  -14.2850  -19.5540 C.3    98  VAL98       0.0290
     57  CG1      -47.7090  -13.1350  -19.3490 C.3    98  VAL98       0.0023
     58  CG2      -48.3400  -15.4920  -18.7430 C.3    98  VAL98       0.0023
     59  N        -51.5610  -15.1730  -17.8250 N.am   99  TRP99      -0.1974
     60  CA       -52.5060  -16.2060  -17.4450 C.3    99  TRP99       0.1640
     61  C        -53.9010  -16.1470  -18.0950 C.2    99  TRP99       0.2290
     62  O        -54.5090  -17.2020  -18.3610 O.2    99  TRP99      -0.2864
     63  CB       -52.6150  -16.2820  -15.9260 C.3    99  TRP99       0.0576
     64  CG       -53.4910  -15.2840  -15.2480 C.ar   99  TRP99       0.0006
     65  CD1      -53.1240  -14.0810  -14.7070 C.ar   99  TRP99       0.0946
     66  CD2      -54.8870  -15.4350  -14.9800 C.ar   99  TRP99       0.0152
     67  NE1      -54.2090  -13.4640  -14.1380 N.ar   99  TRP99      -0.2442
     68  CE2      -55.3060  -14.2740  -14.2830 C.ar   99  TRP99       0.0810
     69  CE3      -55.8250  -16.4380  -15.2650 C.ar   99  TRP99       0.0012
     70  CZ2      -56.6270  -14.0870  -13.8660 C.ar   99  TRP99       0.0191
     71  CZ3      -57.1420  -16.2590  -14.8530 C.ar   99  TRP99       0.0001
     72  CH2      -57.5360  -15.0720  -14.1650 C.ar   99  TRP99       0.0015
     73  N        -53.6340  -17.3460  -21.6870 N.3   102  GLU102     -0.1231
     74  CA       -53.3030  -18.7630  -21.5760 C.3   102  GLU102      0.1699
     75  C        -54.5340  -19.5900  -21.2240 C.2   102  GLU102      0.2592
     76  O        -54.7300  -20.6590  -21.8040 O.2   102  GLU102     -0.2718
     77  CB       -52.2090  -18.9870  -20.5400 C.3   102  GLU102      0.0402
     78  CG       -50.8740  -18.6160  -21.0700 C.3   102  GLU102      0.1161
     79  CD       -49.7650  -18.8300  -20.1120 C.2   102  GLU102      0.3649
     80  OE1      -50.0230  -19.0290  -18.9080 O.co2 102  GLU102     -0.2457
     81  OE2      -48.6110  -18.7980  -20.5820 O.co2 102  GLU102     -0.2457
     82  N        -55.3550  -19.0930  -20.2940 N.am  103  LEU103     -0.1980
     83  CA       -56.6680  -19.6930  -20.0270 C.3   103  LEU103      0.1596
     84  C        -57.6340  -19.6280  -21.2410 C.2   103  LEU103      0.2287
     85  O        -58.4350  -20.5400  -21.4340 O.2   103  LEU103     -0.2864
     86  CB       -57.3160  -19.1080  -18.7540 C.3   103  LEU103      0.0297
     87  CG       -58.8230  -19.3150  -18.4710 C.3   103  LEU103      0.0022
     88  CD1      -59.2220  -20.8040  -18.2700 C.3   103  LEU103      0.0001
     89  CD2      -59.2530  -18.4650  -17.2790 C.3   103  LEU103      0.0001
     90  N        -56.3980  -22.4720  -23.4050 N.3   106  LYS106     -0.1245
     91  CA       -56.9490  -23.6780  -22.7830 C.3   106  LYS106      0.1561
     92  C        -58.3850  -23.9880  -23.3030 C.2   106  LYS106      0.2260
     93  O        -58.6180  -25.0390  -23.9280 O.2   106  LYS106     -0.2867
     94  CB       -56.9360  -23.4850  -21.2550 C.3   106  LYS106      0.0271
     95  CG       -56.3400  -24.6150  -20.4090 C.3   106  LYS106      0.0035
     96  CD       -54.8030  -24.7710  -20.6070 C.3   106  LYS106      0.0206
     97  CE       -53.9170  -23.6730  -19.9190 C.3   106  LYS106      0.1093
     98  NZ       -53.1790  -22.8050  -20.9070 N.3   106  LYS106     -0.1314
@<TRIPOS>BOND
     1    93    92    2
     2    90    91    1
     3    92    91    1
     4    91    94    1
     5    76    75    2
     6    73    74    1
     7    74    75    1
     8    74    77    1
     9    85    84    2
    10    94    95    1
    11    84    83    1
    12    75    82   am
    13    78    77    1
    14    78    79    1
    15    98    97    1
    16    96    95    1
    17    96    97    1
    18    81    79   ar
    19    31    32    1
    20    34    33    2
    21    82    83    1
    22    79    80   ar
    23    33    32    1
    24    33    39   am
    25    55    54    2
    26    83    86    1
    27    32    35    1
    28    39    40    1
    29    40    43    1
    30    40    41    1
    31    56    53    1
    32    56    57    1
    33    56    58    1
    34    48    47    2
    35    53    54    1
    36    53    52    1
    37    45    41   am
    38    45    46    1
    39    44    43    1
    40    54    59   am
    41    47    52   am
    42    47    46    1
    43    86    87    1
    44    41    42    2
    45    49    50    1
    46    49    46    1
    47    49    51    1
    48    87    88    1
    49    87    89    1
    50    62    61    2
    51    35    36    1
    52    61    60    1
    53    59    60    1
    54    36    38   am
    55    36    37    2
    56    60    63    1
    57    63    64    1
    58    69    66   ar
    59    69    71   ar
    60    64    66   ar
    61    64    65   ar
    62    66    68   ar
    63    71    72   ar
    64    65    67   ar
    65    68    67   ar
    66    68    70   ar
    67    72    70   ar
    68    29    28    2
    69    30    27    1
    70    13    11   ar
    71    13    14   ar
    72    24    22   ar
    73    24    25   ar
    74    22    20   ar
    75    28    27    1
    76    11     8   ar
    77    27    26    1
    78    14    12   ar
    79    25    23   ar
    80    26    17   am
    81    20    19    1
    82    20    21   ar
    83    19    16    1
    84     1     2    1
    85    23    21   ar
    86     8     6   ar
    87     8    10   ar
    88     2     5    1
    89     2     3    1
    90    17    16    1
    91    17    18    2
    92    16    15    1
    93    12    10   ar
    94     5     6    1
    95     6     7   ar
    96    10     9   ar
    97     3     4    2
    98     7     9   ar
