@<TRIPOS>MOLECULE
tmp/3if6B00.pdb
 101 97 0 0 0
SMALL
GASTEIGER

@<TRIPOS>ATOM
      1  N        -47.4460  -10.2120  -28.2160 N.3    48  SER48      -0.1217
      2  CA       -48.6680   -9.6060  -27.7320 C.3    48  SER48       0.1889
      3  C        -49.5190   -8.9620  -28.7850 C.2    48  SER48       0.2288
      4  O        -50.5960   -8.5840  -28.5030 O.2    48  SER48      -0.2866
      5  CB       -48.4480   -8.7230  -26.5190 C.3    48  SER48       0.2089
      6  OG       -48.2710   -9.5010  -25.3600 O.3    48  SER48      -0.2183
      7  N        -52.9030  -10.7070  -29.3760 N.3    51  LYS51      -0.1245
      8  CA       -54.0490  -10.4530  -28.4610 C.3    51  LYS51       0.1561
      9  C        -55.2340   -9.9660  -29.2720 C.2    51  LYS51       0.2260
     10  O        -56.3870  -10.2280  -28.9180 O.2    51  LYS51      -0.2867
     11  CB       -53.7090   -9.4440  -27.3620 C.3    51  LYS51       0.0271
     12  CG       -52.8300   -9.9810  -26.2250 C.3    51  LYS51       0.0035
     13  CD       -52.5030   -8.8430  -25.2520 C.3    51  LYS51       0.0206
     14  CE       -51.9180   -9.3490  -23.9500 C.3    51  LYS51       0.1093
     15  NZ       -51.5820   -8.2060  -23.0570 N.3    51  LYS51      -0.1314
     16  N        -55.7730   -6.4230  -22.3780 N.3    93  MET93      -0.1230
     17  CA       -55.3090   -5.9500  -23.6800 C.3    93  MET93       0.1702
     18  C        -54.2190   -4.9330  -23.4910 C.2    93  MET93       0.2592
     19  O        -53.2990   -4.8710  -24.2870 O.2    93  MET93      -0.2718
     20  CB       -56.4440   -5.3290  -24.4700 C.3    93  MET93       0.0401
     21  CG       -56.0510   -4.8100  -25.8500 C.3    93  MET93       0.0596
     22  SD       -55.6790   -6.1160  -27.0330 S.3    93  MET93      -0.1393
     23  CE       -57.2920   -6.5980  -27.6270 C.3    93  MET93       0.0692
     24  N        -54.3260   -4.1640  -22.4050 N.am   94  ARG94      -0.1966
     25  CA       -53.4980   -2.9930  -22.1730 C.3    94  ARG94       0.1729
     26  C        -52.1730   -3.3460  -21.5300 C.2    94  ARG94       0.2616
     27  O        -51.1410   -2.7990  -21.9080 O.2    94  ARG94      -0.2715
     28  CB       -54.2390   -1.9790  -21.2940 C.3    94  ARG94       0.0348
     29  CG       -55.3010   -1.1970  -22.0130 C.3    94  ARG94       0.0492
     30  CD       -56.1280   -0.4140  -21.0070 C.3    94  ARG94       0.2205
     31  NE       -56.8640    0.6480  -21.6710 N.pl3  94  ARG94      -0.0865
     32  CZ       -57.6720    1.5320  -21.0870 C.cat  94  ARG94       0.5346
     33  NH1      -57.9300    1.5120  -19.7820 N.pl3  94  ARG94       0.1354
     34  NH2      -58.2590    2.4250  -21.8500 N.pl3  94  ARG94       0.1354
     35  N        -52.2220   -4.2670  -20.5670 N.am   95  ASN95      -0.1958
     36  CA       -51.0860   -4.6520  -19.7510 C.3    95  ASN95       0.1819
     37  C        -50.6630   -6.0660  -20.0820 C.2    95  ASN95       0.2622
     38  O        -51.4620   -6.8910  -20.5660 O.2    95  ASN95      -0.2715
     39  CB       -51.5040   -4.6860  -18.2790 C.3    95  ASN95       0.1195
     40  CG       -52.1320   -3.3800  -17.7910 C.2    95  ASN95       0.2630
     41  OD1      -51.3940   -2.4380  -17.4850 O.2    95  ASN95      -0.2716
     42  ND2      -53.4890   -3.3300  -17.6790 N.am   95  ASN95      -0.0877
     43  N        -49.4250   -6.3870  -19.7360 N.am   96  SER96      -0.1950
     44  CA       -49.0410   -7.7960  -19.6280 C.3    96  SER96       0.1924
     45  C        -50.0310   -8.5580  -18.7200 C.2    96  SER96       0.2314
     46  O        -50.2520   -8.1830  -17.5890 O.2    96  SER96      -0.2863
     47  CB       -47.6130   -7.9360  -19.1060 C.3    96  SER96       0.2116
     48  OG       -47.2610   -9.3070  -19.1610 O.3    96  SER96      -0.2180
     49  N        -51.3640   -2.0030  -30.8170 N.3   186  LYS186     -0.1231
     50  CA       -50.8440   -2.9650  -29.8630 C.3   186  LYS186      0.1693
     51  C        -49.3140   -3.1000  -30.0500 C.2   186  LYS186      0.2593
     52  O        -48.8220   -3.2680  -31.1790 O.2   186  LYS186     -0.2718
     53  CB       -51.5160   -4.3060  -30.0810 C.3   186  LYS186      0.0285
     54  CG       -51.2600   -5.3440  -28.9940 C.3   186  LYS186      0.0035
     55  CD       -51.8450   -4.8970  -27.6700 C.3   186  LYS186      0.0206
     56  CE       -51.1270   -5.5610  -26.5470 C.3   186  LYS186      0.1093
     57  NZ       -50.1820   -4.6590  -25.9090 N.3   186  LYS186     -0.1314
     58  N        -48.5650   -2.9720  -28.9510 N.am  187  THR187     -0.1939
     59  CA       -47.1280   -3.1210  -28.9680 C.3   187  THR187      0.2028
     60  C        -46.8300   -4.6090  -28.8350 C.2   187  THR187      0.2643
     61  O        -47.6730   -5.3840  -28.3650 O.2   187  THR187     -0.2714
     62  CB       -46.4210   -2.2750  -27.8510 C.3   187  THR187      0.1808
     63  OG1      -46.9710   -2.5990  -26.5720 O.3   187  THR187     -0.2208
     64  CG2      -46.5840   -0.7770  -28.0780 C.3   187  THR187      0.0379
     65  N        -45.6550   -5.0240  -29.2870 N.am  188  GLY188     -0.1939
     66  CA       -45.2550   -6.4420  -29.2060 C.3   188  GLY188      0.2014
     67  C        -43.8030   -6.5270  -28.7760 C.2   188  GLY188      0.2638
     68  O        -43.0260   -5.6450  -29.0990 O.2   188  GLY188     -0.2714
     69  N        -43.4360   -7.5520  -28.0140 N.am  189  TRP189     -0.1973
     70  CA       -42.0180   -7.7480  -27.6500 C.3   189  TRP189      0.1640
     71  C        -41.7650   -9.2230  -27.3820 C.2   189  TRP189      0.2290
     72  O        -42.2790   -9.7890  -26.3910 O.2   189  TRP189     -0.2864
     73  CB       -41.5480   -6.8890  -26.4560 C.3   189  TRP189      0.0576
     74  CG       -40.0510   -7.0540  -26.1870 C.ar  189  TRP189      0.0006
     75  CD1      -39.0570   -7.0390  -27.1240 C.ar  189  TRP189      0.0946
     76  CD2      -39.3830   -7.2440  -24.9040 C.ar  189  TRP189      0.0152
     77  NE1      -37.8370   -7.1970  -26.5230 N.ar  189  TRP189     -0.2442
     78  CE2      -37.9980   -7.3630  -25.1740 C.ar  189  TRP189      0.0810
     79  CE3      -39.8270   -7.3610  -23.5700 C.ar  189  TRP189      0.0012
     80  CZ2      -37.0330   -7.5770  -24.1580 C.ar  189  TRP189      0.0191
     81  CZ3      -38.8620   -7.5650  -22.5450 C.ar  189  TRP189      0.0001
     82  CH2      -37.4820   -7.6620  -22.8580 C.ar  189  TRP189      0.0015
     83  N        -37.2800   -0.4890  -26.1090 N.3   222  LEU222     -0.1245
     84  CA       -38.7060   -0.6790  -26.3300 C.3   222  LEU222      0.1561
     85  C        -39.4060    0.6150  -26.7190 C.2   222  LEU222      0.2260
     86  O        -40.3460    0.5880  -27.4960 O.2   222  LEU222     -0.2867
     87  CB       -39.3410   -1.3620  -25.1070 C.3   222  LEU222      0.0270
     88  CG       -39.7220   -2.8690  -25.1300 C.3   222  LEU222      0.0019
     89  CD1      -38.8430   -3.8020  -25.9830 C.3   222  LEU222      0.0001
     90  CD2      -39.9710   -3.4560  -23.7120 C.3   222  LEU222      0.0001
     91  N        -40.0800    1.4310  -30.5720 N.3   225  ARG225     -0.1245
     92  CA       -41.1410    0.8980  -31.3860 C.3   225  ARG225      0.1563
     93  C        -42.0840    2.0260  -31.7620 C.2   225  ARG225      0.2260
     94  O        -42.2300    2.3270  -32.9530 O.2   225  ARG225     -0.2867
     95  CB       -41.8700   -0.2430  -30.6880 C.3   225  ARG225      0.0307
     96  CG       -40.9830   -1.4440  -30.4040 C.3   225  ARG225      0.0489
     97  CD       -41.7200   -2.3720  -29.4980 C.3   225  ARG225      0.2205
     98  NE       -41.9960   -1.6800  -28.2500 N.pl3 225  ARG225     -0.0865
     99  CZ       -42.6800   -2.1980  -27.2430 C.cat 225  ARG225      0.5346
    100  NH1      -43.1730   -3.4180  -27.3470 N.pl3 225  ARG225      0.1354
    101  NH2      -42.8660   -1.4850  -26.1500 N.pl3 225  ARG225      0.1354
@<TRIPOS>BOND
     1    94    93    2
     2    93    92    1
     3    92    95    1
     4    92    91    1
     5    52    51    2
     6    49    50    1
     7    95    96    1
     8    96    97    1
     9    53    50    1
    10    53    54    1
    11    51    50    1
    12    51    58   am
    13    97    98    1
    14     7     8    1
    15    65    66    1
    16    65    60   am
    17     9    10    2
    18     9     8    1
    19    66    67    1
    20    68    67    2
    21    54    55    1
    22    59    58    1
    23    59    60    1
    24    59    62    1
    25    60    61    2
    26     3     4    2
    27     3     2    1
    28    67    69   am
    29     8    11    1
    30    98    99    2
    31     1     2    1
    32    64    62    1
    33    69    70    1
    34    62    63    1
    35     2     5    1
    36    55    56    1
    37    70    71    1
    38    70    73    1
    39    23    22    1
    40    86    85    2
    41    71    72    2
    42    11    12    1
    43   100    99    1
    44    99   101    1
    45    75    77   ar
    46    75    74   ar
    47    22    21    1
    48    85    84    1
    49    56    57    1
    50    77    78   ar
    51     5     6    1
    52    73    74    1
    53    84    83    1
    54    84    87    1
    55    12    13    1
    56    74    76   ar
    57    89    88    1
    58    21    20    1
    59    13    14    1
    60    78    76   ar
    61    78    80   ar
    62    88    87    1
    63    88    90    1
    64    76    79   ar
    65    20    17    1
    66    19    18    2
    67    80    82   ar
    68    14    15    1
    69    17    18    1
    70    17    16    1
    71    79    81   ar
    72    18    24   am
    73    82    81   ar
    74    24    25    1
    75    25    26    1
    76    25    28    1
    77    29    28    1
    78    29    30    1
    79    27    26    2
    80    34    32    1
    81    31    32    2
    82    31    30    1
    83    26    35   am
    84    32    33    1
    85    35    36    1
    86    38    37    2
    87    37    36    1
    88    37    43   am
    89    36    39    1
    90    43    44    1
    91    44    47    1
    92    44    45    1
    93    48    47    1
    94    45    46    2
    95    39    40    1
    96    40    42   am
    97    40    41    2
