@<TRIPOS>MOLECULE
tmp/3if7A00.pdb
 156 144 0 0 0
SMALL
GASTEIGER

@<TRIPOS>ATOM
      1  N        -24.8510   22.4220   -6.0400 N.3     9  GLU9       -0.1245
      2  CA       -24.9970   22.1850   -7.5100 C.3     9  GLU9        0.1567
      3  C        -26.1850   21.2740   -7.8870 C.2     9  GLU9        0.2260
      4  O        -26.8920   21.5750   -8.8620 O.2     9  GLU9       -0.2867
      5  CB       -23.7400   21.5720   -8.0530 C.3     9  GLU9        0.0388
      6  CG       -22.5930   22.5730   -7.9810 C.3     9  GLU9        0.1160
      7  CD       -21.2120   21.8940   -7.9870 C.2     9  GLU9        0.3649
      8  OE1      -21.1360   20.6450   -8.0360 O.co2   9  GLU9       -0.2457
      9  OE2      -20.1870   22.6180   -7.9720 O.co2   9  GLU9       -0.2457
     10  N        -29.2300   11.1290   -7.5970 N.3    70  MET70      -0.1245
     11  CA       -27.9310   11.6690   -8.0320 C.3    70  MET70       0.1570
     12  C        -26.7630   11.1330   -7.2440 C.2    70  MET70       0.2261
     13  O        -25.7210   10.8820   -7.8100 O.2    70  MET70      -0.2867
     14  CB       -27.8080   13.1860   -7.8260 C.3    70  MET70       0.0387
     15  CG       -28.8470   14.0420   -8.4540 C.3    70  MET70       0.0595
     16  SD       -28.7360   13.8840  -10.2190 S.3    70  MET70      -0.1393
     17  CE       -27.4360   15.0060  -10.6080 C.3    70  MET70       0.0692
     18  N        -24.6890    6.2350  -11.6770 N.3    74  MET74      -0.1245
     19  CA       -24.8270    4.9320  -12.3110 C.3    74  MET74       0.1570
     20  C        -23.8100    3.9400  -11.7150 C.2    74  MET74       0.2261
     21  O        -22.8940    4.3080  -10.9730 O.2    74  MET74      -0.2867
     22  CB       -24.6320    5.0490  -13.8320 C.3    74  MET74       0.0387
     23  CG       -25.3360    6.2200  -14.5180 C.3    74  MET74       0.0595
     24  SD       -26.9840    5.8230  -15.1430 S.3    74  MET74      -0.1393
     25  CE       -28.0030    6.4950  -13.8040 C.3    74  MET74       0.0692
     26  N        -28.2650    4.0730  -22.3380 N.3    80  GLU80      -0.1231
     27  CA       -28.8240    5.3070  -21.8490 C.3    80  GLU80       0.1699
     28  C        -27.7140    6.3780  -21.7780 C.2    80  GLU80       0.2592
     29  O        -27.9540    7.5770  -21.9640 O.2    80  GLU80      -0.2718
     30  CB       -29.2920    5.1020  -20.4230 C.3    80  GLU80       0.0402
     31  CG       -30.3850    4.0730  -20.2810 C.3    80  GLU80       0.1161
     32  CD       -31.6900    4.4380  -20.9110 C.2    80  GLU80       0.3649
     33  OE1      -31.9290    5.6290  -21.2410 O.co2  80  GLU80      -0.2457
     34  OE2      -32.5280    3.5250  -20.9730 O.co2  80  GLU80      -0.2457
     35  N        -26.5210    5.9430  -21.3900 N.am   81  ILE81      -0.1980
     36  CA       -25.3910    6.8770  -21.2720 C.3    81  ILE81       0.1595
     37  C        -24.9870    7.3770  -22.6080 C.2    81  ILE81       0.2287
     38  O        -24.7230    8.5360  -22.7310 O.2    81  ILE81      -0.2864
     39  CB       -24.1520    6.2640  -20.5290 C.3    81  ILE81       0.0276
     40  CG1      -24.5820    5.8340  -19.1580 C.3    81  ILE81       0.0022
     41  CG2      -22.9790    7.2940  -20.4500 C.3    81  ILE81       0.0022
     42  CD1      -23.5630    4.9260  -18.5150 C.3    81  ILE81       0.0001
     43  N        -27.5070    9.9270  -23.5630 N.3    84  ALA84      -0.1245
     44  CA       -27.3190   11.1440  -22.8550 C.3    84  ALA84       0.1562
     45  C        -26.1530   11.8970  -23.4650 C.2    84  ALA84       0.2260
     46  O        -26.2260   13.0950  -23.5940 O.2    84  ALA84      -0.2867
     47  CB       -27.0730   10.9430  -21.3750 C.3    84  ALA84       0.0290
     48  N        -25.7800   16.0880  -25.6150 N.3    88  PHE88      -0.1241
     49  CA       -24.8320   17.1870  -25.5350 C.3    88  PHE88       0.1605
     50  C        -24.0010   17.3330  -26.7940 C.2    88  PHE88       0.2264
     51  O        -23.8010   18.4530  -27.2880 O.2    88  PHE88      -0.2867
     52  CB       -23.8830   16.9270  -24.3470 C.3    88  PHE88       0.0534
     53  CG       -24.5460   17.0740  -23.0240 C.ar   88  PHE88      -0.0203
     54  CD1      -24.6820   18.3420  -22.4220 C.ar   88  PHE88      -0.0042
     55  CD2      -25.0820   16.0040  -22.3730 C.ar   88  PHE88      -0.0042
     56  CE1      -25.3030   18.4750  -21.2150 C.ar   88  PHE88      -0.0003
     57  CE2      -25.7360   16.1170  -21.1370 C.ar   88  PHE88      -0.0003
     58  CZ       -25.8480   17.3590  -20.5570 C.ar   88  PHE88      -0.0000
     59  N        -17.9360   16.8530  -26.4790 N.3    96  ILE96      -0.1245
     60  CA       -18.7770   17.8980  -26.0040 C.3    96  ILE96       0.1561
     61  C        -17.9600   19.1450  -25.7650 C.2    96  ILE96       0.2260
     62  O        -17.0680   19.1460  -24.9420 O.2    96  ILE96      -0.2867
     63  CB       -19.5170   17.5450  -24.7200 C.3    96  ILE96       0.0252
     64  CG1      -20.4150   16.2690  -24.8630 C.3    96  ILE96       0.0019
     65  CG2      -20.3890   18.6950  -24.2190 C.3    96  ILE96       0.0019
     66  CD1      -20.8230   15.6800  -23.5480 C.3    96  ILE96       0.0001
     67  N        -22.2930   22.5230  -24.5270 N.3   101  LEU101     -0.1245
     68  CA       -22.8420   22.4920  -23.1770 C.3   101  LEU101      0.1561
     69  C        -23.6920   23.7800  -22.9030 C.2   101  LEU101      0.2260
     70  O        -24.7670   23.7690  -22.3830 O.2   101  LEU101     -0.2867
     71  CB       -21.7180   22.3920  -22.1860 C.3   101  LEU101      0.0270
     72  CG       -22.2380   22.4660  -20.7880 C.3   101  LEU101      0.0019
     73  CD1      -23.2460   21.3990  -20.4430 C.3   101  LEU101      0.0001
     74  CD2      -21.0170   22.2130  -19.8450 C.3   101  LEU101      0.0001
     75  N        -18.5510   29.8370  -15.7660 N.3   116  GLU116     -0.1245
     76  CA       -19.3380   28.7610  -15.2310 C.3   116  GLU116      0.1567
     77  C        -19.3060   27.6090  -16.2140 C.2   116  GLU116      0.2260
     78  O        -19.0990   26.4910  -15.7850 O.2   116  GLU116     -0.2867
     79  CB       -20.7720   29.2050  -14.9210 C.3   116  GLU116      0.0388
     80  CG       -20.8180   30.0750  -13.6530 C.3   116  GLU116      0.1160
     81  CD       -22.1680   30.8090  -13.3730 C.2   116  GLU116      0.3649
     82  OE1      -22.9710   31.0290  -14.2950 O.co2 116  GLU116     -0.2457
     83  OE2      -22.4230   31.1800  -12.1930 O.co2 116  GLU116     -0.2457
     84  N        -15.8930   25.9750  -16.0420 N.3   119  GLU119     -0.1231
     85  CA       -15.8410   25.2270  -14.7820 C.3   119  GLU119      0.1699
     86  C        -16.5400   23.8840  -14.9000 C.2   119  GLU119      0.2592
     87  O        -16.0410   22.8550  -14.4240 O.2   119  GLU119     -0.2718
     88  CB       -16.4720   25.9870  -13.6160 C.3   119  GLU119      0.0402
     89  CG       -15.6050   26.9610  -12.8760 C.3   119  GLU119      0.1161
     90  CD       -16.2980   27.5400  -11.6630 C.2   119  GLU119      0.3649
     91  OE1      -16.0140   27.0440  -10.5200 O.co2 119  GLU119     -0.2457
     92  OE2      -17.1250   28.4820  -11.8560 O.co2 119  GLU119     -0.2457
     93  N        -17.7030   23.8700  -15.5390 N.am  120  MET120     -0.1965
     94  CA       -18.3970   22.5920  -15.7560 C.3   120  MET120      0.1736
     95  C        -17.6120   21.6180  -16.6170 C.2   120  MET120      0.2616
     96  O        -17.4470   20.4680  -16.2640 O.2   120  MET120     -0.2715
     97  CB       -19.7990   22.8350  -16.3860 C.3   120  MET120      0.0427
     98  CG       -20.6750   23.5140  -15.4420 C.3   120  MET120      0.0599
     99  SD       -22.2760   23.9430  -16.2190 S.3   120  MET120     -0.1393
    100  CE       -23.0490   22.3650  -16.2760 C.3   120  MET120      0.0692
    101  N        -17.1130   22.0750  -17.7530 N.am  121  ILE121     -0.1977
    102  CA       -16.2490   21.2760  -18.6090 C.3   121  ILE121      0.1596
    103  C        -15.0160   20.7690  -17.8310 C.2   121  ILE121      0.2287
    104  O        -14.7340   19.5540  -17.8460 O.2   121  ILE121     -0.2864
    105  CB       -15.8470   22.0300  -19.8140 C.3   121  ILE121      0.0276
    106  CG1      -17.0700   22.3880  -20.7000 C.3   121  ILE121      0.0022
    107  CG2      -14.7250   21.2970  -20.5940 C.3   121  ILE121      0.0022
    108  CD1      -17.6710   21.2830  -21.5200 C.3   121  ILE121      0.0001
    109  N        -14.6110   20.1520  -14.6880 N.3   123  GLU123     -0.1231
    110  CA       -14.9240   19.1200  -13.7570 C.3   123  GLU123      0.1699
    111  C        -14.9900   17.7300  -14.3960 C.2   123  GLU123      0.2592
    112  O        -14.5780   16.7590  -13.7870 O.2   123  GLU123     -0.2718
    113  CB       -16.2460   19.4090  -13.0540 C.3   123  GLU123      0.0402
    114  CG       -16.2280   20.5880  -12.1720 C.3   123  GLU123      0.1161
    115  CD       -16.0400   20.1890  -10.7320 C.2   123  GLU123      0.3649
    116  OE1      -15.3960   19.1270  -10.5280 O.co2 123  GLU123     -0.2457
    117  OE2      -16.5070   20.9350   -9.8220 O.co2 123  GLU123     -0.2457
    118  N        -15.4730   17.6060  -15.6290 N.am  124  ALA124     -0.1980
    119  CA       -15.5260   16.3400  -16.2760 C.3   124  ALA124      0.1597
    120  C        -14.3170   16.0320  -17.1360 C.2   124  ALA124      0.2287
    121  O        -14.0620   14.8810  -17.4640 O.2   124  ALA124     -0.2864
    122  CB       -16.7570   16.3300  -17.2170 C.3   124  ALA124      0.0319
    123  N        -15.3130   17.2690  -23.4600 N.3   132  VAL132     -0.1245
    124  CA       -15.6600   16.0590  -22.7990 C.3   132  VAL132      0.1561
    125  C        -15.9120   14.9540  -23.8210 C.2   132  VAL132      0.2260
    126  O        -16.8330   15.0620  -24.5870 O.2   132  VAL132     -0.2867
    127  CB       -16.8400   16.2190  -21.8580 C.3   132  VAL132      0.0252
    128  CG1      -17.1690   14.9160  -21.1630 C.3   132  VAL132      0.0019
    129  CG2      -16.5550   17.3830  -20.8090 C.3   132  VAL132      0.0019
    130  N        -17.2330   11.3200  -20.0410 N.3   137  PHE137     -0.1241
    131  CA       -18.6300   11.4060  -19.6640 C.3   137  PHE137      0.1605
    132  C        -19.0890   10.1820  -18.8690 C.2   137  PHE137      0.2264
    133  O        -19.7860   10.3470  -17.8820 O.2   137  PHE137     -0.2867
    134  CB       -19.4290   11.5590  -20.9930 C.3   137  PHE137      0.0534
    135  CG       -20.8950   11.8400  -20.8330 C.ar  137  PHE137     -0.0203
    136  CD1      -21.3170   13.1590  -20.6900 C.ar  137  PHE137     -0.0042
    137  CD2      -21.7930   10.8630  -20.8800 C.ar  137  PHE137     -0.0042
    138  CE1      -22.6710   13.5060  -20.5300 C.ar  137  PHE137     -0.0003
    139  CE2      -23.1730   11.1840  -20.8470 C.ar  137  PHE137     -0.0003
    140  CZ       -23.5940   12.5150  -20.6160 C.ar  137  PHE137     -0.0000
    141  N        -17.8430   10.3550  -15.2950 N.3   140  MET140     -0.1230
    142  CA       -18.5880   11.3330  -14.5110 C.3   140  MET140      0.1702
    143  C        -19.9100   10.7360  -13.9410 C.2   140  MET140      0.2592
    144  O        -20.3100   10.9970  -12.8050 O.2   140  MET140     -0.2718
    145  CB       -18.8320   12.5540  -15.4270 C.3   140  MET140      0.0401
    146  CG       -19.8340   13.5740  -15.0340 C.3   140  MET140      0.0596
    147  SD       -20.1210   14.5160  -16.5210 S.3   140  MET140     -0.1393
    148  CE       -21.6160   13.6580  -17.1350 C.3   140  MET140      0.0692
    149  N        -20.5230    9.8810  -14.7350 N.am  141  MET141     -0.1979
    150  CA       -21.8740    9.3360  -14.5080 C.3   141  MET141      0.1605
    151  C        -21.8010    8.1920  -13.5510 C.2   141  MET141      0.2287
    152  O        -22.7970    7.7880  -12.9760 O.2   141  MET141     -0.2864
    153  CB       -22.3970    8.7040  -15.8130 C.3   141  MET141      0.0413
    154  CG       -22.9480    9.5750  -16.8670 C.3   141  MET141      0.0598
    155  SD       -23.8450   10.8550  -16.1290 S.3   141  MET141     -0.1393
    156  CE       -24.9240    9.8780  -15.0690 C.3   141  MET141      0.0692
@<TRIPOS>BOND
     1    51    50    2
     2    50    49    1
     3    59    60    1
     4    60    61    1
     5    60    63    1
     6    61    62    2
     7    48    49    1
     8    49    52    1
     9    64    63    1
    10    64    66    1
    11    63    65    1
    12   126   125    2
    13    67    68    1
    14    52    53    1
    15   125   124    1
    16    46    45    2
    17    43    44    1
    18    45    44    1
    19   123   124    1
    20    68    69    1
    21    68    71    1
    22    53    54   ar
    23    53    55   ar
    24    69    70    2
    25    44    47    1
    26   124   127    1
    27    38    37    2
    28    37    36    1
    29    54    56   ar
    30    55    57   ar
    31    26    27    1
    32    71    72    1
    33    29    28    2
    34   127   128    1
    35   127   129    1
    36    27    28    1
    37    27    30    1
    38    28    35   am
    39   108   106    1
    40    35    36    1
    41    36    39    1
    42    33    32   ar
    43    56    58   ar
    44    57    58   ar
    45   134   135    1
    46   134   131    1
    47    34    32   ar
    48    32    31    1
    49   137   139   ar
    50   137   135   ar
    51   139   140   ar
    52   135   136   ar
    53    72    73    1
    54    72    74    1
    55   106   105    1
    56   136   138   ar
    57   140   138   ar
    58   107   105    1
    59    39    41    1
    60    39    40    1
    61    30    31    1
    62   130   131    1
    63   105   102    1
    64   131   132    1
    65    40    42    1
    66   132   133    2
    67   102   103    1
    68   102   101    1
    69   104   103    2
    70   101    95   am
    71   121   120    2
    72   122   119    1
    73   120   119    1
    74   148   147    1
    75   154   155    1
    76   154   153    1
    77    95    96    2
    78    95    94    1
    79   147   146    1
    80    97    94    1
    81    97    98    1
    82   100    99    1
    83   119   118    1
    84    99    98    1
    85    77    78    2
    86    77    76    1
    87   155   156    1
    88    84    85    1
    89   153   150    1
    90    75    76    1
    91    94    93    1
    92   118   111   am
    93    93    86   am
    94   145   146    1
    95   145   142    1
    96   141   142    1
    97    76    79    1
    98    24    23    1
    99    24    25    1
   100    79    80    1
   101    86    85    1
   102    86    87    2
   103    85    88    1
   104   149   150    1
   105   149   143   am
   106   109   110    1
   107    23    22    1
   108   142   143    1
   109   150   151    1
   110   111   112    2
   111   111   110    1
   112    82    81   ar
   113   143   144    2
   114    22    19    1
   115   110   113    1
   116    80    81    1
   117    88    89    1
   118   151   152    2
   119    81    83   ar
   120   113   114    1
   121    89    90    1
   122    19    20    1
   123    19    18    1
   124   114   115    1
   125    92    90   ar
   126    20    21    2
   127    90    91   ar
   128   115   116   ar
   129   115   117   ar
   130    17    16    1
   131    16    15    1
   132     4     3    2
   133    15    14    1
   134     5     6    1
   135     5     2    1
   136     8     7   ar
   137    11    14    1
   138    11    10    1
   139    11    12    1
   140     7     6    1
   141     7     9   ar
   142     3     2    1
   143    13    12    2
   144     2     1    1
