@<TRIPOS>MOLECULE
tmp/3if7A01.pdb
 192 178 0 0 0
SMALL
GASTEIGER

@<TRIPOS>ATOM
      1  N        -24.8510   22.4220   -6.0400 N.3     9  GLU9       -0.1231
      2  CA       -24.9970   22.1850   -7.5100 C.3     9  GLU9        0.1699
      3  C        -26.1850   21.2740   -7.8870 C.2     9  GLU9        0.2592
      4  O        -26.8920   21.5750   -8.8620 O.2     9  GLU9       -0.2718
      5  CB       -23.7400   21.5720   -8.0530 C.3     9  GLU9        0.0402
      6  CG       -22.5930   22.5730   -7.9810 C.3     9  GLU9        0.1161
      7  CD       -21.2120   21.8940   -7.9870 C.2     9  GLU9        0.3649
      8  OE1      -21.1360   20.6450   -8.0360 O.co2   9  GLU9       -0.2457
      9  OE2      -20.1870   22.6180   -7.9720 O.co2   9  GLU9       -0.2457
     10  N        -26.3940   20.1440   -7.1850 N.am   10  PHE10      -0.1976
     11  CA       -27.5700   19.2680   -7.4450 C.3    10  PHE10       0.1639
     12  C        -28.8710   20.0390   -7.1800 C.2    10  PHE10       0.2290
     13  O        -29.9000   19.7850   -7.8590 O.2    10  PHE10      -0.2864
     14  CB       -27.5600   17.9740   -6.6380 C.3    10  PHE10       0.0560
     15  CG       -26.5570   16.9770   -7.0920 C.ar   10  PHE10      -0.0200
     16  CD1      -26.4590   16.6330   -8.4180 C.ar   10  PHE10      -0.0042
     17  CD2      -25.6620   16.4550   -6.2130 C.ar   10  PHE10      -0.0042
     18  CE1      -25.5050   15.7320   -8.8270 C.ar   10  PHE10      -0.0003
     19  CE2      -24.7180   15.5510   -6.6150 C.ar   10  PHE10      -0.0003
     20  CZ       -24.6360   15.1840   -7.9110 C.ar   10  PHE10      -0.0000
     21  N        -29.2440   23.3130   -7.6490 N.3    12  GLU12      -0.1231
     22  CA       -29.4190   24.1040   -8.8330 C.3    12  GLU12       0.1699
     23  C        -29.9750   23.2430  -10.0160 C.2    12  GLU12       0.2592
     24  O        -30.8390   23.6710  -10.7550 O.2    12  GLU12      -0.2718
     25  CB       -28.1550   24.7830   -9.2510 C.3    12  GLU12       0.0402
     26  CG       -28.4050   25.6890  -10.3760 C.3    12  GLU12       0.1161
     27  CD       -29.1680   27.0320  -10.0350 C.2    12  GLU12       0.3649
     28  OE1      -29.4240   27.3640   -8.8550 O.co2  12  GLU12      -0.2457
     29  OE2      -29.5270   27.7660  -11.0050 O.co2  12  GLU12      -0.2457
     30  N        -29.4810   22.0370  -10.2050 N.am   13  ALA13      -0.1980
     31  CA       -29.9990   21.1570  -11.2520 C.3    13  ALA13       0.1597
     32  C        -31.5010   20.8820  -10.9840 C.2    13  ALA13       0.2287
     33  O        -32.3390   20.8870  -11.8760 O.2    13  ALA13      -0.2864
     34  CB       -29.2450   19.8830  -11.2960 C.3    13  ALA13       0.0319
     35  N        -33.8040   23.4700  -12.2470 N.3    16  LEU16      -0.1231
     36  CA       -34.0190   23.4520  -13.7350 C.3    16  LEU16       0.1693
     37  C        -35.1550   22.5190  -14.1550 C.2    16  LEU16       0.2592
     38  O        -35.8050   22.6780  -15.2460 O.2    16  LEU16      -0.2718
     39  CB       -32.7720   23.0130  -14.4880 C.3    16  LEU16       0.0284
     40  CG       -31.6030   23.9660  -14.3200 C.3    16  LEU16       0.0019
     41  CD1      -30.5270   23.6170  -15.3320 C.3    16  LEU16       0.0001
     42  CD2      -32.0590   25.4510  -14.5170 C.3    16  LEU16       0.0001
     43  N        -35.4210   21.5420  -13.3620 N.am   17  PHE17      -0.1976
     44  CA       -36.5610   20.6770  -13.5870 C.3    17  PHE17       0.1639
     45  C        -37.8180   21.2860  -12.9830 C.2    17  PHE17       0.2290
     46  O        -38.9230   21.2010  -13.5420 O.2    17  PHE17      -0.2864
     47  CB       -36.3240   19.3000  -12.9460 C.3    17  PHE17       0.0560
     48  CG       -35.3620   18.4250  -13.6280 C.ar   17  PHE17      -0.0200
     49  CD1      -34.0420   18.4690  -13.3920 C.ar   17  PHE17      -0.0042
     50  CD2      -35.8510   17.4080  -14.4710 C.ar   17  PHE17      -0.0042
     51  CE1      -33.1650   17.6320  -14.0750 C.ar   17  PHE17      -0.0003
     52  CE2      -35.0100   16.4990  -15.0820 C.ar   17  PHE17      -0.0003
     53  CZ       -33.6690   16.6220  -14.9070 C.ar   17  PHE17      -0.0000
     54  N        -37.3050   16.6750  -20.7530 N.3    34  MET34      -0.1245
     55  CA       -36.9260   15.6320  -21.6920 C.3    34  MET34       0.1570
     56  C        -37.0390   16.1160  -23.1360 C.2    34  MET34       0.2261
     57  O        -36.1580   15.9110  -23.9530 O.2    34  MET34      -0.2867
     58  CB       -37.7710   14.3450  -21.4790 C.3    34  MET34       0.0387
     59  CG       -37.4550   13.5900  -20.2510 C.3    34  MET34       0.0595
     60  SD       -35.7880   12.9330  -20.3660 S.3    34  MET34      -0.1393
     61  CE       -36.1090   11.6830  -21.5760 C.3    34  MET34       0.0692
     62  N        -34.3640   18.4160  -24.2600 N.3    37  LEU37      -0.1245
     63  CA       -33.1650   17.5540  -24.5230 C.3    37  LEU37       0.1561
     64  C        -33.3450   16.5720  -25.6660 C.2    37  LEU37       0.2260
     65  O        -32.5780   15.5770  -25.7300 O.2    37  LEU37      -0.2867
     66  CB       -32.7840   16.8110  -23.2850 C.3    37  LEU37       0.0270
     67  CG       -32.5550   17.6190  -22.0540 C.3    37  LEU37       0.0019
     68  CD1      -32.4130   16.8490  -20.7650 C.3    37  LEU37       0.0001
     69  CD2      -31.3210   18.4350  -22.2130 C.3    37  LEU37       0.0001
     70  N        -35.7530   14.4010  -26.3940 N.3    39  GLN39      -0.1245
     71  CA       -36.3560   13.0750  -26.1260 C.3    39  GLN39       0.1566
     72  C        -37.8510   13.2270  -26.2560 C.2    39  GLN39       0.2260
     73  O        -38.3280   14.3560  -26.2220 O.2    39  GLN39      -0.2867
     74  CB       -35.9880   12.5530  -24.7540 C.3    39  GLN39       0.0367
     75  CG       -34.5080   12.6970  -24.4680 C.3    39  GLN39       0.0905
     76  CD       -33.6780   11.7960  -25.3190 C.2    39  GLN39       0.2608
     77  OE1      -34.0070   10.6170  -25.5320 O.2    39  GLN39      -0.2717
     78  NE2      -32.5750   12.3360  -25.8340 N.am   39  GLN39      -0.0878
     79  N        -40.6290   11.1140  -24.5280 N.3    41  PRO41      -0.2116
     80  CA       -41.2720   10.1040  -23.7270 C.3    41  PRO41       0.1372
     81  C        -42.8070   10.3470  -23.7540 C.2    41  PRO41       0.2244
     82  O        -43.2200   11.4710  -23.7930 O.2    41  PRO41      -0.2868
     83  CB       -40.6980   10.3600  -22.3230 C.3    41  PRO41       0.0268
     84  CG       -40.4670   11.8700  -22.3760 C.3    41  PRO41       0.0207
     85  CD       -39.9070   12.0990  -23.6690 C.3    41  PRO41       0.0892
     86  N        -44.5050    6.5200  -19.9890 N.3    45  GLU45      -0.1245
     87  CA       -43.0860    6.5270  -19.7570 C.3    45  GLU45       0.1567
     88  C        -42.6500    7.5020  -18.6730 C.2    45  GLU45       0.2260
     89  O        -41.7700    7.1640  -17.8270 O.2    45  GLU45      -0.2867
     90  CB       -42.3380    6.7630  -21.0640 C.3    45  GLU45       0.0388
     91  CG       -42.3400    5.4130  -21.8180 C.3    45  GLU45       0.1160
     92  CD       -41.4500    5.3680  -23.0370 C.2    45  GLU45       0.3649
     93  OE1      -40.7980    6.3540  -23.4240 O.co2  45  GLU45      -0.2457
     94  OE2      -41.3810    4.2480  -23.6230 O.co2  45  GLU45      -0.2457
     95  N        -40.7760    6.7420  -15.1530 N.3    49  MET49      -0.1245
     96  CA       -39.4980    7.4030  -14.7630 C.3    49  MET49       0.1570
     97  C        -39.6830    7.9780  -13.3830 C.2    49  MET49       0.2261
     98  O        -38.8220    7.7830  -12.5040 O.2    49  MET49      -0.2867
     99  CB       -39.1180    8.5020  -15.7560 C.3    49  MET49       0.0387
    100  CG       -38.5420    7.9720  -16.9990 C.3    49  MET49       0.0595
    101  SD       -38.3630    9.2740  -18.2640 S.3    49  MET49      -0.1393
    102  CE       -38.4800    8.3260  -19.7890 C.3    49  MET49       0.0692
    103  N        -28.2650    4.0730  -22.3380 N.3    80  GLU80      -0.1245
    104  CA       -28.8240    5.3070  -21.8490 C.3    80  GLU80       0.1567
    105  C        -27.7140    6.3780  -21.7780 C.2    80  GLU80       0.2260
    106  O        -27.9540    7.5770  -21.9640 O.2    80  GLU80      -0.2867
    107  CB       -29.2920    5.1020  -20.4230 C.3    80  GLU80       0.0388
    108  CG       -30.3850    4.0730  -20.2810 C.3    80  GLU80       0.1160
    109  CD       -31.6900    4.4380  -20.9110 C.2    80  GLU80       0.3649
    110  OE1      -31.9290    5.6290  -21.2410 O.co2  80  GLU80      -0.2457
    111  OE2      -32.5280    3.5250  -20.9730 O.co2  80  GLU80      -0.2457
    112  N        -27.0030    7.6550  -25.1780 N.3    83  GLU83      -0.1231
    113  CA       -28.0810    8.5960  -25.5380 C.3    83  GLU83       0.1699
    114  C        -27.9090    9.9480  -24.8530 C.2    83  GLU83       0.2592
    115  O        -28.1170   11.0070  -25.5090 O.2    83  GLU83      -0.2718
    116  CB       -29.4210    8.0000  -25.2260 C.3    83  GLU83       0.0402
    117  CG       -29.6380    6.8150  -26.1260 C.3    83  GLU83       0.1161
    118  CD       -30.7130    5.8210  -25.6560 C.2    83  GLU83       0.3649
    119  OE1      -31.2100    5.9110  -24.4920 O.co2  83  GLU83      -0.2457
    120  OE2      -31.0110    4.9030  -26.4520 O.co2  83  GLU83      -0.2457
    121  N        -27.5070    9.9270  -23.5630 N.am   84  ALA84      -0.1980
    122  CA       -27.3190   11.1440  -22.8550 C.3    84  ALA84       0.1597
    123  C        -26.1530   11.8970  -23.4650 C.2    84  ALA84       0.2287
    124  O        -26.2260   13.0950  -23.5940 O.2    84  ALA84      -0.2864
    125  CB       -27.0730   10.9430  -21.3750 C.3    84  ALA84       0.0319
    126  N        -27.1750   13.8250  -26.4620 N.3    87  VAL87      -0.1231
    127  CA       -27.9080   15.0770  -26.0930 C.3    87  VAL87       0.1692
    128  C        -26.9870   16.2720  -26.1190 C.2    87  VAL87       0.2592
    129  O        -27.3690   17.3710  -26.5390 O.2    87  VAL87      -0.2718
    130  CB       -28.5730   15.0200  -24.7130 C.3    87  VAL87       0.0266
    131  CG1      -29.0040   16.4250  -24.1540 C.3    87  VAL87       0.0020
    132  CG2      -29.7670   14.0360  -24.6840 C.3    87  VAL87       0.0020
    133  N        -25.7800   16.0880  -25.6150 N.am   88  PHE88      -0.1976
    134  CA       -24.8320   17.1870  -25.5350 C.3    88  PHE88       0.1639
    135  C        -24.0010   17.3330  -26.7940 C.2    88  PHE88       0.2290
    136  O        -23.8010   18.4530  -27.2880 O.2    88  PHE88      -0.2864
    137  CB       -23.8830   16.9270  -24.3470 C.3    88  PHE88       0.0560
    138  CG       -24.5460   17.0740  -23.0240 C.ar   88  PHE88      -0.0200
    139  CD1      -24.6820   18.3420  -22.4220 C.ar   88  PHE88      -0.0042
    140  CD2      -25.0820   16.0040  -22.3730 C.ar   88  PHE88      -0.0042
    141  CE1      -25.3030   18.4750  -21.2150 C.ar   88  PHE88      -0.0003
    142  CE2      -25.7360   16.1170  -21.1370 C.ar   88  PHE88      -0.0003
    143  CZ       -25.8480   17.3590  -20.5570 C.ar   88  PHE88      -0.0000
    144  N        -22.2930   22.5230  -24.5270 N.3   101  LEU101     -0.1245
    145  CA       -22.8420   22.4920  -23.1770 C.3   101  LEU101      0.1561
    146  C        -23.6920   23.7800  -22.9030 C.2   101  LEU101      0.2260
    147  O        -24.7670   23.7690  -22.3830 O.2   101  LEU101     -0.2867
    148  CB       -21.7180   22.3920  -22.1860 C.3   101  LEU101      0.0270
    149  CG       -22.2380   22.4660  -20.7880 C.3   101  LEU101      0.0019
    150  CD1      -23.2460   21.3990  -20.4430 C.3   101  LEU101      0.0001
    151  CD2      -21.0170   22.2130  -19.8450 C.3   101  LEU101      0.0001
    152  N        -27.6740   24.0260  -21.8270 N.3   105  MET105     -0.1245
    153  CA       -28.0670   24.6310  -20.5990 C.3   105  MET105      0.1570
    154  C        -29.0620   25.7400  -20.9720 C.2   105  MET105      0.2261
    155  O        -30.0140   25.9370  -20.2590 O.2   105  MET105     -0.2867
    156  CB       -26.8520   25.1760  -19.8300 C.3   105  MET105      0.0387
    157  CG       -25.9260   24.0860  -19.3620 C.3   105  MET105      0.0595
    158  SD       -26.6570   22.8820  -18.2750 S.3   105  MET105     -0.1393
    159  CE       -26.7430   23.9640  -16.8810 C.3   105  MET105      0.0692
    160  N        -32.4830   24.3630  -21.4430 N.3   108  LEU108     -0.1245
    161  CA       -33.0720   24.0050  -20.1050 C.3   108  LEU108      0.1561
    162  C        -33.4410   25.2640  -19.3380 C.2   108  LEU108      0.2260
    163  O        -33.9160   25.1620  -18.1830 O.2   108  LEU108     -0.2867
    164  CB       -32.1130   23.1580  -19.2290 C.3   108  LEU108      0.0270
    165  CG       -31.8740   21.7350  -19.7120 C.3   108  LEU108      0.0019
    166  CD1      -30.5600   21.1800  -18.9960 C.3   108  LEU108      0.0001
    167  CD2      -33.0840   20.7710  -19.4750 C.3   108  LEU108      0.0001
    168  N        -31.2840   27.6400  -18.2870 N.3   110  GLU110     -0.1245
    169  CA       -30.2160   28.0800  -17.4090 C.3   110  GLU110      0.1567
    170  C        -29.2600   28.9750  -18.2050 C.2   110  GLU110      0.2260
    171  O        -28.5900   28.5150  -19.1710 O.2   110  GLU110     -0.2867
    172  CB       -29.4330   26.8970  -16.8600 C.3   110  GLU110      0.0388
    173  CG       -28.3830   27.2570  -15.8160 C.3   110  GLU110      0.1160
    174  CD       -28.9470   27.3620  -14.3870 C.2   110  GLU110      0.3649
    175  OE1      -28.1280   27.2320  -13.4400 O.co2 110  GLU110     -0.2457
    176  OE2      -30.1820   27.5790  -14.2080 O.co2 110  GLU110     -0.2457
    177  N        -25.8970   30.8000  -17.9880 N.3   112  LEU112     -0.1245
    178  CA       -24.5970   30.6990  -17.3490 C.3   112  LEU112      0.1561
    179  C        -23.5580   31.6800  -17.9250 C.2   112  LEU112      0.2260
    180  O        -23.5000   31.9030  -19.1350 O.2   112  LEU112     -0.2867
    181  CB       -24.0380   29.2860  -17.5650 C.3   112  LEU112      0.0270
    182  CG       -24.7170   28.1360  -16.8390 C.3   112  LEU112      0.0019
    183  CD1      -24.4940   26.8910  -17.6200 C.3   112  LEU112      0.0001
    184  CD2      -24.2170   27.9500  -15.4080 C.3   112  LEU112      0.0001
    185  N        -17.7030   23.8700  -15.5390 N.3   120  MET120     -0.1245
    186  CA       -18.3970   22.5920  -15.7560 C.3   120  MET120      0.1570
    187  C        -17.6120   21.6180  -16.6170 C.2   120  MET120      0.2261
    188  O        -17.4470   20.4680  -16.2640 O.2   120  MET120     -0.2867
    189  CB       -19.7990   22.8350  -16.3860 C.3   120  MET120      0.0387
    190  CG       -20.6750   23.5140  -15.4420 C.3   120  MET120      0.0595
    191  SD       -22.2760   23.9430  -16.2190 S.3   120  MET120     -0.1393
    192  CE       -23.0490   22.3650  -16.2760 C.3   120  MET120      0.0692
@<TRIPOS>BOND
     1   136   135    2
     2   135   134    1
     3   129   128    2
     4   126   127    1
     5   120   118   ar
     6    70    71    1
     7    72    73    2
     8    72    71    1
     9    71    74    1
    10   117   118    1
    11   117   116    1
    12   128   127    1
    13   128   133   am
    14   127   130    1
    15    78    76   am
    16    65    64    2
    17    64    63    1
    18   118   119   ar
    19   133   134    1
    20   113   116    1
    21   113   112    1
    22   113   114    1
    23   134   137    1
    24    77    76    2
    25   115   114    2
    26    76    75    1
    27   114   121   am
    28    74    75    1
    29   130   132    1
    30   130   131    1
    31    79    80    1
    32    79    85    1
    33   144   145    1
    34    63    62    1
    35    63    66    1
    36   137   138    1
    37    57    56    2
    38    82    81    2
    39    81    80    1
    40    80    83    1
    41    85    84    1
    42    94    92   ar
    43   124   123    2
    44   121   122    1
    45   123   122    1
    46    93    92   ar
    47    66    67    1
    48   145   146    1
    49   145   148    1
    50    56    55    1
    51    92    91    1
    52   138   139   ar
    53   138   140   ar
    54   146   147    2
    55   122   125    1
    56   139   141   ar
    57    84    83    1
    58   140   142   ar
    59   103   104    1
    60    69    67    1
    61   148   149    1
    62    67    68    1
    63   106   105    2
    64   104   105    1
    65   104   107    1
    66   152   153    1
    67    91    90    1
    68    55    58    1
    69    55    54    1
    70    61    60    1
    71    58    59    1
    72   160   161    1
    73   110   109   ar
    74   141   143   ar
    75   142   143   ar
    76    90    87    1
    77   111   109   ar
    78   154   153    1
    79   154   155    2
    80   109   108    1
    81   149   150    1
    82   149   151    1
    83   153   156    1
    84   107   108    1
    85    60    59    1
    86   161   162    1
    87   161   164    1
    88    86    87    1
    89   156   157    1
    90   102   101    1
    91    87    88    1
    92   165   167    1
    93   165   164    1
    94   165   166    1
    95   157   158    1
    96   162   163    2
    97   171   170    2
    98   180   179    2
    99    88    89    2
   100   168   169    1
   101   158   159    1
   102   101   100    1
   103   170   169    1
   104   177   178    1
   105   179   178    1
   106   183   182    1
   107   181   178    1
   108   181   182    1
   109   169   172    1
   110   100    99    1
   111   172   173    1
   112   182   184    1
   113   187   188    2
   114   187   186    1
   115   189   186    1
   116   189   190    1
   117   192   191    1
   118   191   190    1
   119   173   174    1
   120   186   185    1
   121    99    96    1
   122    41    40    1
   123    38    37    2
   124    95    96    1
   125    52    53   ar
   126    52    50   ar
   127    53    51   ar
   128    96    97    1
   129    42    40    1
   130    39    40    1
   131    39    36    1
   132    50    48   ar
   133   174   176   ar
   134   174   175   ar
   135    37    36    1
   136    37    43   am
   137    51    49   ar
   138    36    35    1
   139    48    49   ar
   140    48    47    1
   141    44    43    1
   142    44    45    1
   143    44    47    1
   144    46    45    2
   145    97    98    2
   146    33    32    2
   147    34    31    1
   148    31    32    1
   149    31    30    1
   150    29    27   ar
   151    24    23    2
   152    26    27    1
   153    26    25    1
   154    30    23   am
   155    27    28   ar
   156    23    22    1
   157    25    22    1
   158     4     3    2
   159    22    21    1
   160    18    16   ar
   161    18    20   ar
   162    16    15   ar
   163     5     6    1
   164     5     2    1
   165     8     7   ar
   166     7     6    1
   167     7     9   ar
   168    20    19   ar
   169     3     2    1
   170     3    10   am
   171    13    12    2
   172     2     1    1
   173    11    10    1
   174    11    12    1
   175    11    14    1
   176    15    14    1
   177    15    17   ar
   178    19    17   ar
