@<TRIPOS>MOLECULE
tmp/3if7A02.pdb
 151 140 0 0 0
SMALL
GASTEIGER

@<TRIPOS>ATOM
      1  N        -24.8510   22.4220   -6.0400 N.3     9  GLU9       -0.1231
      2  CA       -24.9970   22.1850   -7.5100 C.3     9  GLU9        0.1699
      3  C        -26.1850   21.2740   -7.8870 C.2     9  GLU9        0.2592
      4  O        -26.8920   21.5750   -8.8620 O.2     9  GLU9       -0.2718
      5  CB       -23.7400   21.5720   -8.0530 C.3     9  GLU9        0.0402
      6  CG       -22.5930   22.5730   -7.9810 C.3     9  GLU9        0.1161
      7  CD       -21.2120   21.8940   -7.9870 C.2     9  GLU9        0.3649
      8  OE1      -21.1360   20.6450   -8.0360 O.co2   9  GLU9       -0.2457
      9  OE2      -20.1870   22.6180   -7.9720 O.co2   9  GLU9       -0.2457
     10  N        -26.3940   20.1440   -7.1850 N.am   10  PHE10      -0.1976
     11  CA       -27.5700   19.2680   -7.4450 C.3    10  PHE10       0.1639
     12  C        -28.8710   20.0390   -7.1800 C.2    10  PHE10       0.2290
     13  O        -29.9000   19.7850   -7.8590 O.2    10  PHE10      -0.2864
     14  CB       -27.5600   17.9740   -6.6380 C.3    10  PHE10       0.0560
     15  CG       -26.5570   16.9770   -7.0920 C.ar   10  PHE10      -0.0200
     16  CD1      -26.4590   16.6330   -8.4180 C.ar   10  PHE10      -0.0042
     17  CD2      -25.6620   16.4550   -6.2130 C.ar   10  PHE10      -0.0042
     18  CE1      -25.5050   15.7320   -8.8270 C.ar   10  PHE10      -0.0003
     19  CE2      -24.7180   15.5510   -6.6150 C.ar   10  PHE10      -0.0003
     20  CZ       -24.6360   15.1840   -7.9110 C.ar   10  PHE10      -0.0000
     21  N        -29.4810   22.0370  -10.2050 N.3    13  ALA13      -0.1245
     22  CA       -29.9990   21.1570  -11.2520 C.3    13  ALA13       0.1562
     23  C        -31.5010   20.8820  -10.9840 C.2    13  ALA13       0.2260
     24  O        -32.3390   20.8870  -11.8760 O.2    13  ALA13      -0.2867
     25  CB       -29.2450   19.8830  -11.2960 C.3    13  ALA13       0.0290
     26  N        -35.4210   21.5420  -13.3620 N.3    17  PHE17      -0.1241
     27  CA       -36.5610   20.6770  -13.5870 C.3    17  PHE17       0.1605
     28  C        -37.8180   21.2860  -12.9830 C.2    17  PHE17       0.2264
     29  O        -38.9230   21.2010  -13.5420 O.2    17  PHE17      -0.2867
     30  CB       -36.3240   19.3000  -12.9460 C.3    17  PHE17       0.0534
     31  CG       -35.3620   18.4250  -13.6280 C.ar   17  PHE17      -0.0203
     32  CD1      -34.0420   18.4690  -13.3920 C.ar   17  PHE17      -0.0042
     33  CD2      -35.8510   17.4080  -14.4710 C.ar   17  PHE17      -0.0042
     34  CE1      -33.1650   17.6320  -14.0750 C.ar   17  PHE17      -0.0003
     35  CE2      -35.0100   16.4990  -15.0820 C.ar   17  PHE17      -0.0003
     36  CZ       -33.6690   16.6220  -14.9070 C.ar   17  PHE17      -0.0000
     37  N        -40.9470   17.9930   -8.6160 N.3    25  ILE25      -0.1245
     38  CA       -40.9120   17.7890  -10.0840 C.3    25  ILE25       0.1561
     39  C        -42.0380   16.8180  -10.4400 C.2    25  ILE25       0.2260
     40  O        -42.0960   15.7010   -9.9230 O.2    25  ILE25      -0.2867
     41  CB       -39.6470   17.1480  -10.5460 C.3    25  ILE25       0.0252
     42  CG1      -38.4430   18.0060  -10.1560 C.3    25  ILE25       0.0019
     43  CG2      -39.6220   16.9260  -12.1250 C.3    25  ILE25       0.0019
     44  CD1      -37.1010   17.2580  -10.2970 C.3    25  ILE25       0.0001
     45  N        -40.9740   17.0080  -15.9730 N.3    30  LEU30      -0.1245
     46  CA       -40.0380   16.0660  -16.5120 C.3    30  LEU30       0.1561
     47  C        -40.1660   15.9460  -18.0640 C.2    30  LEU30       0.2260
     48  O        -39.2110   15.9130  -18.8060 O.2    30  LEU30      -0.2867
     49  CB       -40.1330   14.7110  -15.8280 C.3    30  LEU30       0.0270
     50  CG       -39.2010   13.6460  -16.3440 C.3    30  LEU30       0.0019
     51  CD1      -37.6670   13.9590  -16.1470 C.3    30  LEU30       0.0001
     52  CD2      -39.5240   12.3410  -15.6810 C.3    30  LEU30       0.0001
     53  N        -37.3050   16.6750  -20.7530 N.3    34  MET34      -0.1245
     54  CA       -36.9260   15.6320  -21.6920 C.3    34  MET34       0.1570
     55  C        -37.0390   16.1160  -23.1360 C.2    34  MET34       0.2261
     56  O        -36.1580   15.9110  -23.9530 O.2    34  MET34      -0.2867
     57  CB       -37.7710   14.3450  -21.4790 C.3    34  MET34       0.0387
     58  CG       -37.4550   13.5900  -20.2510 C.3    34  MET34       0.0595
     59  SD       -35.7880   12.9330  -20.3660 S.3    34  MET34      -0.1393
     60  CE       -36.1090   11.6830  -21.5760 C.3    34  MET34       0.0692
     61  N        -34.3640   18.4160  -24.2600 N.3    37  LEU37      -0.1245
     62  CA       -33.1650   17.5540  -24.5230 C.3    37  LEU37       0.1561
     63  C        -33.3450   16.5720  -25.6660 C.2    37  LEU37       0.2260
     64  O        -32.5780   15.5770  -25.7300 O.2    37  LEU37      -0.2867
     65  CB       -32.7840   16.8110  -23.2850 C.3    37  LEU37       0.0270
     66  CG       -32.5550   17.6190  -22.0540 C.3    37  LEU37       0.0019
     67  CD1      -32.4130   16.8490  -20.7650 C.3    37  LEU37       0.0001
     68  CD2      -31.3210   18.4350  -22.2130 C.3    37  LEU37       0.0001
     69  N        -40.7760    6.7420  -15.1530 N.3    49  MET49      -0.1230
     70  CA       -39.4980    7.4030  -14.7630 C.3    49  MET49       0.1702
     71  C        -39.6830    7.9780  -13.3830 C.2    49  MET49       0.2592
     72  O        -38.8220    7.7830  -12.5040 O.2    49  MET49      -0.2718
     73  CB       -39.1180    8.5020  -15.7560 C.3    49  MET49       0.0401
     74  CG       -38.5420    7.9720  -16.9990 C.3    49  MET49       0.0596
     75  SD       -38.3630    9.2740  -18.2640 S.3    49  MET49      -0.1393
     76  CE       -38.4800    8.3260  -19.7890 C.3    49  MET49       0.0692
     77  N        -40.7350    8.7320  -13.1410 N.am   50  ILE50      -0.1980
     78  CA       -40.9670    9.3110  -11.8190 C.3    50  ILE50       0.1595
     79  C        -41.0730    8.1930  -10.7760 C.2    50  ILE50       0.2287
     80  O        -40.4890    8.3380   -9.6750 O.2    50  ILE50      -0.2864
     81  CB       -42.2370   10.2320  -11.7580 C.3    50  ILE50       0.0276
     82  CG1      -42.1270   11.4920  -12.6540 C.3    50  ILE50       0.0022
     83  CG2      -42.5580   10.6890  -10.3100 C.3    50  ILE50       0.0022
     84  CD1      -41.2180   12.6470  -12.1620 C.3    50  ILE50       0.0001
     85  N        -39.6460    5.3700  -10.5890 N.3    52  GLU52      -0.1231
     86  CA       -38.3850    4.7510  -10.1870 C.3    52  GLU52       0.1699
     87  C        -37.7050    5.5580   -9.0980 C.2    52  GLU52       0.2592
     88  O        -36.9760    4.9530   -8.2710 O.2    52  GLU52      -0.2718
     89  CB       -37.4080    4.6010  -11.3500 C.3    52  GLU52       0.0402
     90  CG       -37.8620    3.5560  -12.3510 C.3    52  GLU52       0.1161
     91  CD       -38.0940    2.1440  -11.7570 C.2    52  GLU52       0.3649
     92  OE1      -37.4430    1.7530  -10.7670 O.co2  52  GLU52      -0.2457
     93  OE2      -38.9440    1.4040  -12.3160 O.co2  52  GLU52      -0.2457
     94  N        -37.9580    6.8590   -9.0860 N.am   53  VAL53      -0.1980
     95  CA       -37.2150    7.8510   -8.2370 C.3    53  VAL53       0.1595
     96  C        -38.0740    8.2070   -7.0200 C.2    53  VAL53       0.2287
     97  O        -37.6050    8.8080   -6.0360 O.2    53  VAL53      -0.2864
     98  CB       -36.8870    9.1630   -9.0800 C.3    53  VAL53       0.0276
     99  CG1      -36.2060    8.8520  -10.3580 C.3    53  VAL53       0.0022
    100  CG2      -38.0810    9.7880   -9.3880 C.3    53  VAL53       0.0022
    101  N        -41.4620   14.2520   -7.4960 N.3    61  ILE61      -0.1245
    102  CA       -40.0500   14.1170   -7.0200 C.3    61  ILE61       0.1561
    103  C        -39.6440   15.3450   -6.2330 C.2    61  ILE61       0.2260
    104  O        -39.6140   16.4020   -6.7850 O.2    61  ILE61      -0.2867
    105  CB       -39.0800   13.8680   -8.1390 C.3    61  ILE61       0.0252
    106  CG1      -39.4370   12.6300   -8.9590 C.3    61  ILE61       0.0019
    107  CG2      -37.6040   13.8330   -7.6430 C.3    61  ILE61       0.0019
    108  CD1      -39.6550   11.3970   -8.1130 C.3    61  ILE61       0.0001
    109  N        -34.5970   13.4950   -5.4450 N.3    66  PHE66      -0.1241
    110  CA       -33.6860   13.8010   -6.5800 C.3    66  PHE66       0.1605
    111  C        -32.2070   13.5700   -6.1720 C.2    66  PHE66       0.2264
    112  O        -31.4160   12.9100   -6.8650 O.2    66  PHE66      -0.2867
    113  CB       -33.9390   15.2010   -6.9920 C.3    66  PHE66       0.0534
    114  CG       -33.1150   15.7140   -8.1370 C.ar   66  PHE66      -0.0203
    115  CD1      -33.6320   15.6150   -9.4170 C.ar   66  PHE66      -0.0042
    116  CD2      -31.9440   16.3680   -7.9790 C.ar   66  PHE66      -0.0042
    117  CE1      -32.9600   16.1280  -10.4660 C.ar   66  PHE66      -0.0003
    118  CE2      -31.2610   16.9040   -9.0040 C.ar   66  PHE66      -0.0003
    119  CZ       -31.7540   16.7930  -10.2600 C.ar   66  PHE66      -0.0000
    120  N        -31.3040    9.9370   -5.9170 N.3    69  MET69      -0.1230
    121  CA       -30.9490    9.4370   -7.2940 C.3    69  MET69       0.1702
    122  C        -29.6050    9.8570   -7.7510 C.2    69  MET69       0.2592
    123  O        -28.8510    9.0100   -8.2690 O.2    69  MET69      -0.2718
    124  CB       -32.0070    9.9410   -8.2900 C.3    69  MET69       0.0401
    125  CG       -31.6150    9.7890   -9.7520 C.3    69  MET69       0.0596
    126  SD       -32.7410   10.7780  -10.7650 S.3    69  MET69      -0.1393
    127  CE       -31.8260   12.3320  -10.9350 C.3    69  MET69       0.0692
    128  N        -29.2300   11.1290   -7.5970 N.am   70  MET70      -0.1979
    129  CA       -27.9310   11.6690   -8.0320 C.3    70  MET70       0.1605
    130  C        -26.7630   11.1330   -7.2440 C.2    70  MET70       0.2287
    131  O        -25.7210   10.8820   -7.8100 O.2    70  MET70      -0.2864
    132  CB       -27.8080   13.1860   -7.8260 C.3    70  MET70       0.0413
    133  CG       -28.8470   14.0420   -8.4540 C.3    70  MET70       0.0598
    134  SD       -28.7360   13.8840  -10.2190 S.3    70  MET70      -0.1393
    135  CE       -27.4360   15.0060  -10.6080 C.3    70  MET70       0.0692
    136  N        -24.6890    6.2350  -11.6770 N.3    74  MET74      -0.1245
    137  CA       -24.8270    4.9320  -12.3110 C.3    74  MET74       0.1570
    138  C        -23.8100    3.9400  -11.7150 C.2    74  MET74       0.2261
    139  O        -22.8940    4.3080  -10.9730 O.2    74  MET74      -0.2867
    140  CB       -24.6320    5.0490  -13.8320 C.3    74  MET74       0.0387
    141  CG       -25.3360    6.2200  -14.5180 C.3    74  MET74       0.0595
    142  SD       -26.9840    5.8230  -15.1430 S.3    74  MET74      -0.1393
    143  CE       -28.0030    6.4950  -13.8040 C.3    74  MET74       0.0692
    144  N        -20.5230    9.8810  -14.7350 N.3   141  MET141     -0.1245
    145  CA       -21.8740    9.3360  -14.5080 C.3   141  MET141      0.1570
    146  C        -21.8010    8.1920  -13.5510 C.2   141  MET141      0.2261
    147  O        -22.7970    7.7880  -12.9760 O.2   141  MET141     -0.2867
    148  CB       -22.3970    8.7040  -15.8130 C.3   141  MET141      0.0387
    149  CG       -22.9480    9.5750  -16.8670 C.3   141  MET141      0.0595
    150  SD       -23.8450   10.8550  -16.1290 S.3   141  MET141     -0.1393
    151  CE       -24.9240    9.8780  -15.0690 C.3   141  MET141      0.0692
@<TRIPOS>BOND
     1    64    63    2
     2    63    62    1
     3    62    61    1
     4    62    65    1
     5    56    55    2
     6    65    66    1
     7    55    54    1
     8    68    66    1
     9    66    67    1
    10    54    57    1
    11    54    53    1
    12    60    59    1
    13    57    58    1
    14    59    58    1
    15    76    75    1
    16    48    47    2
    17    75    74    1
    18    47    46    1
    19    74    73    1
    20   149   150    1
    21   149   148    1
    22    46    45    1
    23    46    49    1
    24    50    51    1
    25    50    49    1
    26    50    52    1
    27   150   151    1
    28   148   145    1
    29    73    70    1
    30    69    70    1
    31   142   141    1
    32   142   143    1
    33    35    36   ar
    34    35    33   ar
    35    36    34   ar
    36    70    71    1
    37   144   145    1
    38   141   140    1
    39   145   146    1
    40    33    31   ar
    41    34    32   ar
    42   140   137    1
    43    31    32   ar
    44    31    30    1
    45    27    26    1
    46    27    28    1
    47    27    30    1
    48   146   147    2
    49    29    28    2
    50    71    77   am
    51    71    72    2
    52    77    78    1
    53    82    84    1
    54    82    81    1
    55    90    91    1
    56    90    89    1
    57    93    91   ar
    58   137   138    1
    59   137   136    1
    60    43    41    1
    61    24    23    2
    62    78    81    1
    63    78    79    1
    64    81    83    1
    65    91    92   ar
    66   138   139    2
    67    89    86    1
    68    25    22    1
    69    22    23    1
    70    22    21    1
    71   127   126    1
    72    79    80    2
    73   126   125    1
    74   135   134    1
    75    85    86    1
    76    41    42    1
    77    41    38    1
    78   117   119   ar
    79   117   115   ar
    80    39    38    1
    81    39    40    2
    82    99    98    1
    83    44    42    1
    84   119   118   ar
    85   134   133    1
    86    86    87    1
    87    38    37    1
    88   125   124    1
    89   115   114   ar
    90   100    98    1
    91    87    94   am
    92    87    88    2
    93    94    95    1
    94    98    95    1
    95   118   116   ar
    96   106   105    1
    97   106   108    1
    98     4     3    2
    99    18    16   ar
   100    18    20   ar
   101   133   132    1
   102    16    15   ar
   103   124   121    1
   104   123   122    2
   105    95    96    1
   106   105   107    1
   107   105   102    1
   108   114   116   ar
   109   114   113    1
   110     5     6    1
   111     5     2    1
   112     8     7   ar
   113   129   132    1
   114   129   128    1
   115   129   130    1
   116     7     6    1
   117     7     9   ar
   118    20    19   ar
   119     3     2    1
   120     3    10   am
   121    13    12    2
   122   131   130    2
   123   122   128   am
   124   122   121    1
   125     2     1    1
   126   101   102    1
   127    11    10    1
   128    11    12    1
   129    11    14    1
   130   121   120    1
   131    15    14    1
   132    15    17   ar
   133   102   103    1
   134    96    97    2
   135   113   110    1
   136   112   111    2
   137   104   103    2
   138    19    17   ar
   139   110   111    1
   140   110   109    1
