@<TRIPOS>MOLECULE
tmp/3ifoE00.pdb
 88 86 0 0 0
SMALL
GASTEIGER

@<TRIPOS>ATOM
      1  N         -6.0800  -17.7280   -9.5550 N.3    30  ILE30      -0.1231
      2  CA        -6.1150  -18.1330  -10.9470 C.3    30  ILE30       0.1692
      3  C         -7.3590  -17.5160  -11.6050 C.2    30  ILE30       0.2592
      4  O         -8.4340  -17.4640  -11.0160 O.2    30  ILE30      -0.2718
      5  CB        -6.1160  -19.6530  -11.0940 C.3    30  ILE30       0.0266
      6  CG1       -5.8950  -20.0340  -12.5540 C.3    30  ILE30       0.0019
      7  CG2       -7.4260  -20.2420  -10.5620 C.3    30  ILE30       0.0020
      8  CD1       -5.3820  -21.4340  -12.7270 C.3    30  ILE30       0.0001
      9  N         -7.1890  -17.0070  -12.8160 N.am   31  HIS31      -0.1962
     10  CA        -8.2680  -16.3310  -13.5390 C.3    31  HIS31       0.1787
     11  C         -8.9930  -17.3370  -14.4160 C.2    31  HIS31       0.2621
     12  O         -8.4050  -18.3380  -14.8320 O.2    31  HIS31      -0.2715
     13  CB        -7.6610  -15.2110  -14.3880 C.3    31  HIS31       0.0785
     14  CG        -8.6570  -14.3820  -15.1300 C.ar   31  HIS31       0.0821
     15  ND1       -9.1980  -14.7730  -16.3350 N.ar   31  HIS31      -0.2267
     16  CD2       -9.1800  -13.1610  -14.8610 C.ar   31  HIS31       0.1154
     17  CE1      -10.0310  -13.8420  -16.7640 C.ar   31  HIS31       0.1986
     18  NE2      -10.0350  -12.8520  -15.8900 N.ar   31  HIS31      -0.2212
     19  N        -10.2620  -17.0860  -14.7100 N.am   32  SER32      -0.1936
     20  CA       -11.0030  -18.0180  -15.5640 C.3    32  SER32       0.2055
     21  C        -10.2860  -18.3190  -16.8910 C.2    32  SER32       0.2643
     22  O        -10.5190  -19.3680  -17.5010 O.2    32  SER32      -0.2714
     23  CB       -12.4360  -17.5420  -15.8050 C.3    32  SER32       0.2130
     24  OG       -12.4540  -16.3340  -16.5390 O.3    32  SER32      -0.2179
     25  N         -9.3950  -17.4290  -17.3260 N.am   33  ASN33      -0.1971
     26  CA        -8.6740  -17.6660  -18.5810 C.3    33  ASN33       0.1688
     27  C         -7.4560  -18.5770  -18.4480 C.2    33  ASN33       0.2292
     28  O         -6.7540  -18.8140  -19.4180 O.2    33  ASN33      -0.2864
     29  CB        -8.3370  -16.3640  -19.3350 C.3    33  ASN33       0.1181
     30  CG        -7.2000  -15.5620  -18.6960 C.2    33  ASN33       0.2629
     31  OD1       -6.4440  -16.0550  -17.8610 O.2    33  ASN33      -0.2716
     32  ND2       -7.0780  -14.3070  -19.1100 N.am   33  ASN33      -0.0877
     33  N         -2.5950  -14.0250  -12.3640 N.3    37  TYR37      -0.1241
     34  CA        -2.0280  -12.6900  -12.4260 C.3    37  TYR37       0.1605
     35  C         -1.4920  -12.3140  -11.0610 C.2    37  TYR37       0.2264
     36  O         -2.1190  -11.5950  -10.2810 O.2    37  TYR37      -0.2867
     37  CB        -3.0390  -11.6790  -12.9640 C.3    37  TYR37       0.0534
     38  CG        -3.4610  -12.0090  -14.3840 C.ar   37  TYR37      -0.0201
     39  CD1       -4.6610  -12.6640  -14.6350 C.ar   37  TYR37      -0.0009
     40  CD2       -2.6370  -11.7050  -15.4670 C.ar   37  TYR37      -0.0009
     41  CE1       -5.0650  -12.9830  -15.9340 C.ar   37  TYR37       0.0417
     42  CE2       -3.0210  -12.0260  -16.7680 C.ar   37  TYR37       0.0417
     43  CZ        -4.2370  -12.6670  -16.9910 C.ar   37  TYR37       0.1957
     44  OH        -4.6300  -12.9870  -18.2710 O.3    37  TYR37      -0.2866
     45  N          1.8050  -10.6290   -9.3640 N.3    39  GLU39      -0.1245
     46  CA         2.9220   -9.7780   -9.7110 C.3    39  GLU39       0.1567
     47  C          3.6900   -9.3650   -8.4590 C.2    39  GLU39       0.2260
     48  O          3.1050   -9.2550   -7.3740 O.2    39  GLU39      -0.2867
     49  CB         2.3820   -8.5420  -10.4360 C.3    39  GLU39       0.0388
     50  CG         1.7890   -8.9130  -11.7990 C.3    39  GLU39       0.1160
     51  CD         0.5060   -8.1650  -12.1250 C.2    39  GLU39       0.3649
     52  OE1        0.4900   -6.9200  -12.0340 O.co2  39  GLU39      -0.2457
     53  OE2       -0.4810   -8.8310  -12.4920 O.co2  39  GLU39      -0.2457
     54  N         -3.9830   -9.3840   -9.7880 N.3    96  GLY96      -0.1210
     55  CA        -4.7820   -8.6490  -10.7420 C.3    96  GLY96       0.1956
     56  C         -5.9100   -9.4530  -11.3680 C.2    96  GLY96       0.2613
     57  O         -6.4260   -9.0820  -12.4210 O.2    96  GLY96      -0.2717
     58  N         -6.3180  -10.5260  -10.7010 N.am   97  SER97      -0.1938
     59  CA        -7.3780  -11.3990  -11.2140 C.3    97  SER97       0.2055
     60  C         -8.7600  -11.0060  -10.7050 C.2    97  SER97       0.2643
     61  O         -9.7470  -11.0800  -11.4410 O.2    97  SER97      -0.2714
     62  CB        -7.1060  -12.8600  -10.8210 C.3    97  SER97       0.2130
     63  OG        -5.8710  -13.3220  -11.3500 O.3    97  SER97      -0.2179
     64  N         -8.8400  -10.6180   -9.4370 N.am   98  HIS98      -0.1959
     65  CA       -10.1290  -10.3060   -8.8330 C.3    98  HIS98       0.1787
     66  C        -10.2370   -8.8450   -8.4360 C.2    98  HIS98       0.2620
     67  O         -9.2670   -8.2480   -7.9600 O.2    98  HIS98      -0.2715
     68  CB       -10.3890  -11.2280   -7.6440 C.3    98  HIS98       0.0785
     69  CG       -10.1240  -12.6710   -7.9510 C.ar   98  HIS98       0.0821
     70  ND1      -10.8520  -13.3770   -8.8840 N.ar   98  HIS98      -0.2267
     71  CD2       -9.1900  -13.5290   -7.4770 C.ar   98  HIS98       0.1154
     72  CE1      -10.3880  -14.6120   -8.9610 C.ar   98  HIS98       0.1986
     73  NE2       -9.3810  -14.7310   -8.1170 N.ar   98  HIS98      -0.2212
     74  N        -11.4260   -8.2880   -8.6490 N.am   99  VAL99      -0.1977
     75  CA       -11.7160   -6.8870   -8.3730 C.3    99  VAL99       0.1596
     76  C        -12.3180   -6.7620   -6.9730 C.2    99  VAL99       0.2287
     77  O        -13.2370   -7.4910   -6.6520 O.2    99  VAL99      -0.2864
     78  CB       -12.7010   -6.3390   -9.4070 C.3    99  VAL99       0.0276
     79  CG1      -13.1220   -4.9110   -9.0510 C.3    99  VAL99       0.0022
     80  CG2      -12.0760   -6.3980  -10.7960 C.3    99  VAL99       0.0022
     81  N         -8.4950   -5.1470   -7.4980 N.3   101  LEU101     -0.1245
     82  CA        -7.1010   -5.5930   -7.5270 C.3   101  LEU101      0.1561
     83  C         -6.4430   -5.1470   -6.2250 C.2   101  LEU101      0.2260
     84  O         -6.7300   -4.0580   -5.7410 O.2   101  LEU101     -0.2867
     85  CB        -6.3670   -4.9470   -8.7110 C.3   101  LEU101      0.0270
     86  CG        -6.6130   -5.5800  -10.0920 C.3   101  LEU101      0.0019
     87  CD1       -7.9820   -6.1370  -10.2330 C.3   101  LEU101      0.0001
     88  CD2       -6.2830   -4.6520  -11.2520 C.3   101  LEU101      0.0001
@<TRIPOS>BOND
     1    28    27    2
     2    29    30    1
     3    29    26    1
     4    32    30   am
     5    30    31    2
     6    26    27    1
     7    26    25    1
     8    44    43    1
     9    22    21    2
    10    25    21   am
    11    43    42   ar
    12    43    41   ar
    13    21    20    1
    14    42    40   ar
    15    17    15   ar
    16    17    18   ar
    17    24    23    1
    18    15    14   ar
    19    41    39   ar
    20    18    16   ar
    21    23    20    1
    22    20    19    1
    23    40    38   ar
    24    14    16   ar
    25    14    13    1
    26    12    11    2
    27    19    11   am
    28    39    38   ar
    29    11    10    1
    30    13    10    1
    31    38    37    1
    32    10     9    1
    33    37    34    1
    34     9     3   am
    35     8     6    1
    36     6     5    1
    37    53    51   ar
    38    34    33    1
    39    34    35    1
    40    57    56    2
    41    51    52   ar
    42    51    50    1
    43    50    49    1
    44     3     4    2
    45     3     2    1
    46    61    60    2
    47    56    55    1
    48    56    58   am
    49    63    62    1
    50    88    86    1
    51    59    62    1
    52    59    60    1
    53    59    58    1
    54     5     2    1
    55     5     7    1
    56    35    36    2
    57     2     1    1
    58    80    78    1
    59    55    54    1
    60    60    64   am
    61    49    46    1
    62    87    86    1
    63    86    85    1
    64    46    45    1
    65    46    47    1
    66    64    65    1
    67    78    79    1
    68    78    75    1
    69    72    70   ar
    70    72    73   ar
    71    70    69   ar
    72    65    66    1
    73    65    68    1
    74    85    82    1
    75    74    66   am
    76    74    75    1
    77    47    48    2
    78    66    67    2
    79    75    76    1
    80    73    71   ar
    81    69    68    1
    82    69    71   ar
    83    82    81    1
    84    82    83    1
    85    76    77    2
    86    83    84    2
