@<TRIPOS>MOLECULE
tmp/3ifzA00.pdb
 96 90 0 0 0
SMALL
GASTEIGER

@<TRIPOS>ATOM
      1  N          7.5620    9.5770   17.7420 N.3    39  GLY39      -0.1210
      2  CA         7.9010    8.2470   18.2250 C.3    39  GLY39       0.1956
      3  C          6.7550    7.2440   18.3160 C.2    39  GLY39       0.2612
      4  O          6.9050    6.1810   18.9290 O.2    39  GLY39      -0.2717
      5  N          5.6200    7.5670   17.6980 N.am   40  LEU40      -0.1965
      6  CA         4.4420    6.7030   17.7700 C.3    40  LEU40       0.1728
      7  C          4.0660    5.9970   16.4720 C.2    40  LEU40       0.2616
      8  O          4.3900    6.4490   15.3700 O.2    40  LEU40      -0.2715
      9  CB         3.2220    7.5050   18.2260 C.3    40  LEU40       0.0311
     10  CG         3.2670    8.2310   19.5630 C.3    40  LEU40       0.0022
     11  CD1        2.1480    9.2700   19.6170 C.3    40  LEU40       0.0001
     12  CD2        3.1170    7.2260   20.6910 C.3    40  LEU40       0.0001
     13  N          3.3200    4.9070   16.6270 N.am   41  LYS41      -0.1977
     14  CA         2.7610    4.1690   15.5030 C.3    41  LYS41       0.1596
     15  C          1.2950    4.6040   15.4450 C.2    41  LYS41       0.2287
     16  O          0.7600    5.1420   16.4150 O.2    41  LYS41      -0.2864
     17  CB         2.8900    2.6670   15.7250 C.3    41  LYS41       0.0298
     18  CG         4.3270    2.1860   15.7440 C.3    41  LYS41       0.0038
     19  CD         4.4080    0.6760   15.7590 C.3    41  LYS41       0.0206
     20  CE         5.4620    0.1910   16.7390 C.3    41  LYS41       0.1093
     21  NZ         5.4850   -1.2900   16.8210 N.3    41  LYS41      -0.1314
     22  N         -1.1720    3.7670   18.5640 N.3    44  HIS44      -0.1241
     23  CA        -0.9460    4.5400   19.7690 C.3    44  HIS44       0.1621
     24  C         -1.3650    5.9870   19.6100 C.2    44  HIS44       0.2264
     25  O         -2.0150    6.5490   20.4870 O.2    44  HIS44      -0.2867
     26  CB         0.5090    4.4250   20.1860 C.3    44  HIS44       0.0745
     27  CG         0.9740    3.0090   20.3250 C.ar   44  HIS44       0.0817
     28  ND1        1.9350    2.4520   19.5080 N.ar   44  HIS44      -0.2268
     29  CD2        0.5680    2.0190   21.1570 C.ar   44  HIS44       0.1154
     30  CE1        2.1050    1.1810   19.8340 C.ar   44  HIS44       0.1986
     31  NE2        1.2930    0.8960   20.8350 N.ar   44  HIS44      -0.2212
     32  N         -0.5490   -1.4220   27.2640 N.3    90  ARG90      -0.1231
     33  CA         0.9060   -1.2940   27.1680 C.3    90  ARG90       0.1694
     34  C          1.4380    0.0870   27.5620 C.2    90  ARG90       0.2591
     35  O          2.5190    0.1920   28.1340 O.2    90  ARG90      -0.2718
     36  CB         1.4100   -1.6680   25.7690 C.3    90  ARG90       0.0321
     37  CG         0.9480   -3.0370   25.2850 C.3    90  ARG90       0.0489
     38  CD         1.9750   -3.7210   24.3940 C.3    90  ARG90       0.2205
     39  NE         2.1290   -5.1300   24.7530 N.pl3  90  ARG90      -0.0865
     40  CZ         2.8610   -6.0040   24.0700 C.cat  90  ARG90       0.5346
     41  NH1        3.5130   -5.6200   22.9800 N.pl3  90  ARG90       0.1354
     42  NH2        2.9410   -7.2640   24.4820 N.pl3  90  ARG90       0.1354
     43  N          0.6830    1.1370   27.2460 N.am   91  MET91      -0.1979
     44  CA         1.1020    2.5140   27.5140 C.3    91  MET91       0.1605
     45  C          0.8810    2.9550   28.9610 C.2    91  MET91       0.2287
     46  O          1.1610    4.0960   29.3310 O.2    91  MET91      -0.2864
     47  CB         0.3800    3.4740   26.5640 C.3    91  MET91       0.0413
     48  CG         0.9320    3.4680   25.1560 C.3    91  MET91       0.0598
     49  SD         0.2150    4.7590   24.1220 S.3    91  MET91      -0.1393
     50  CE        -1.5500    4.2250   24.0550 C.3    91  MET91       0.0692
     51  N          7.0520    1.2690   29.9090 N.3    97  LEU97      -0.1245
     52  CA         7.3330    2.6340   29.4680 C.3    97  LEU97       0.1561
     53  C          8.1130    3.4420   30.4960 C.2    97  LEU97       0.2260
     54  O          7.6610    3.6300   31.6280 O.2    97  LEU97      -0.2867
     55  CB         6.0400    3.3760   29.1260 C.3    97  LEU97       0.0270
     56  CG         5.4420    3.1830   27.7340 C.3    97  LEU97       0.0019
     57  CD1        4.7390    4.4430   27.2720 C.3    97  LEU97       0.0001
     58  CD2        6.4460    2.6970   26.7160 C.3    97  LEU97       0.0001
     59  N          2.2440    7.0600   29.2170 N.3   101  LEU101     -0.1245
     60  CA         1.3600    8.0350   28.5790 C.3   101  LEU101      0.1561
     61  C         -0.0700    7.8610   29.0540 C.2   101  LEU101      0.2260
     62  O         -0.8930    8.7710   28.9550 O.2   101  LEU101     -0.2867
     63  CB         1.4340    7.9000   27.0570 C.3   101  LEU101      0.0270
     64  CG         2.8500    8.1010   26.4970 C.3   101  LEU101      0.0019
     65  CD1        2.8990    7.7750   25.0190 C.3   101  LEU101      0.0001
     66  CD2        3.3520    9.5230   26.7720 C.3   101  LEU101      0.0001
     67  N          9.6080   11.9600   22.8730 N.3   164  ASN164     -0.1240
     68  CA         9.0560   10.6290   23.1020 C.3   164  ASN164      0.1653
     69  C          9.7630    9.4380   22.4470 C.2   164  ASN164      0.2266
     70  O          9.9570    8.4070   23.0890 O.2   164  ASN164     -0.2867
     71  CB         7.5630   10.6120   22.7770 C.3   164  ASN164      0.1155
     72  CG         6.8940    9.3190   23.1980 C.2   164  ASN164      0.2627
     73  OD1        6.9450    8.9350   24.3630 O.2   164  ASN164     -0.2716
     74  ND2        6.3100    8.6140   22.2400 N.am  164  ASN164     -0.0877
     75  N         10.8450    7.0380   25.4200 N.3   168  ASN168     -0.1225
     76  CA        10.1930    5.7580   25.6650 C.3   168  ASN168      0.1785
     77  C         10.7300    4.6450   24.7710 C.2   168  ASN168      0.2598
     78  O         10.5460    3.4670   25.0630 O.2   168  ASN168     -0.2718
     79  CB         8.6780    5.8890   25.5190 C.3   168  ASN168      0.1169
     80  CG         8.0190    6.4140   26.7750 C.2   168  ASN168      0.2627
     81  OD1        8.2610    5.9080   27.8650 O.2   168  ASN168     -0.2716
     82  ND2        7.2080    7.4560   26.6360 N.am  168  ASN168     -0.0877
     83  N         11.4120    5.0170   23.6930 N.am  169  GLY169     -0.1942
     84  CA        11.9700    4.0380   22.7790 C.3   169  GLY169      0.2014
     85  C         10.8870    3.3880   21.9450 C.2   169  GLY169      0.2640
     86  O          9.7570    3.8690   21.8960 O.2   169  GLY169     -0.2714
     87  N         11.2320    2.2900   21.2840 N.am  170  SER170     -0.1935
     88  CA        10.2790    1.5810   20.4430 C.3   170  SER170      0.2055
     89  C         10.8200    0.2470   19.9290 C.2   170  SER170      0.2643
     90  O         12.0230    0.0820   19.7400 O.2   170  SER170     -0.2714
     91  CB         9.8440    2.4710   19.2780 C.3   170  SER170      0.2130
     92  OG         8.4300    2.5630   19.2000 O.3   170  SER170     -0.2179
     93  N          9.9160   -0.7030   19.7140 N.am  171  GLY171     -0.1954
     94  CA        10.2530   -2.0240   19.2140 C.3   171  GLY171      0.1869
     95  C          9.1390   -2.5730   18.3390 C.2   171  GLY171      0.2309
     96  O          8.0150   -2.7850   18.8080 O.2   171  GLY171     -0.2863
@<TRIPOS>BOND
     1     8     7    2
     2    15    14    1
     3    15    16    2
     4    14    17    1
     5    14    13    1
     6    17    18    1
     7    18    19    1
     8    19    20    1
     9     7    13   am
    10     7     6    1
    11    20    21    1
    12     5     6    1
    13     5     3   am
    14     1     2    1
    15     6     9    1
    16     2     3    1
    17     9    10    1
    18     3     4    2
    19    95    96    2
    20    95    94    1
    21    22    23    1
    22    92    91    1
    23    94    93    1
    24    91    88    1
    25    28    30   ar
    26    28    27   ar
    27    10    11    1
    28    10    12    1
    29    24    23    1
    30    24    25    2
    31    93    89   am
    32    90    89    2
    33    23    26    1
    34    30    31   ar
    35    89    88    1
    36    26    27    1
    37    27    29   ar
    38    88    87    1
    39    31    29   ar
    40    87    85   am
    41    86    85    2
    42    85    84    1
    43    74    72   am
    44    69    70    2
    45    69    68    1
    46    71    68    1
    47    71    72    1
    48    84    83    1
    49    67    68    1
    50    41    40    1
    51    72    73    2
    52    83    77   am
    53    50    49    1
    54    40    42    1
    55    40    39    2
    56    49    48    1
    57    38    39    1
    58    38    37    1
    59    77    78    2
    60    77    76    1
    61    65    64    1
    62    48    47    1
    63    37    36    1
    64    75    76    1
    65    79    76    1
    66    79    80    1
    67    36    33    1
    68    64    66    1
    69    64    63    1
    70    47    44    1
    71    82    80   am
    72    58    56    1
    73    80    81    2
    74    63    60    1
    75    33    32    1
    76    33    34    1
    77    43    44    1
    78    43    34   am
    79    57    56    1
    80    44    45    1
    81    34    35    2
    82    56    55    1
    83    60    61    1
    84    60    59    1
    85    62    61    2
    86    45    46    2
    87    55    52    1
    88    52    51    1
    89    52    53    1
    90    53    54    2
