@<TRIPOS>MOLECULE
tmp/3ig5A00.pdb
 146 135 0 0 0
SMALL
GASTEIGER

@<TRIPOS>ATOM
      1  N         -8.1520   40.3290  -17.1140 N.3    49  GLU49      -0.1245
      2  CA        -7.3020   39.5660  -16.2400 C.3    49  GLU49       0.1567
      3  C         -5.9370   40.2940  -16.3290 C.2    49  GLU49       0.2260
      4  O         -5.3530   40.3710  -17.4360 O.2    49  GLU49      -0.2867
      5  CB        -7.2620   38.1910  -16.8200 C.3    49  GLU49       0.0388
      6  CG        -6.7630   37.1030  -15.9210 C.3    49  GLU49       0.1160
      7  CD        -7.1160   35.7020  -16.4980 C.2    49  GLU49       0.3649
      8  OE1       -6.2690   34.7900  -16.3940 O.co2  49  GLU49      -0.2457
      9  OE2       -8.2390   35.5260  -17.0550 O.co2  49  GLU49      -0.2457
     10  N         -1.8590   40.9140  -14.7390 N.3    51  GLU51      -0.1245
     11  CA        -0.8310   40.3390  -13.9410 C.3    51  GLU51       0.1567
     12  C          0.1270   41.4250  -13.4820 C.2    51  GLU51       0.2260
     13  O          0.4700   42.3420  -14.2470 O.2    51  GLU51      -0.2867
     14  CB        -0.1450   39.2320  -14.7520 C.3    51  GLU51       0.0388
     15  CG        -1.0910   38.0860  -15.0070 C.3    51  GLU51       0.1160
     16  CD        -0.6800   37.1930  -16.1290 C.2    51  GLU51       0.3649
     17  OE1        0.1880   37.5980  -16.9320 O.co2  51  GLU51      -0.2457
     18  OE2       -1.2250   36.0640  -16.2050 O.co2  51  GLU51      -0.2457
     19  N          0.0090   33.0290  -10.0670 N.3    94  GLU94      -0.1245
     20  CA         0.5770   32.8510  -11.3890 C.3    94  GLU94       0.1567
     21  C          1.9430   32.1450  -11.2760 C.2    94  GLU94       0.2260
     22  O          2.4370   31.9260  -10.1740 O.2    94  GLU94      -0.2867
     23  CB         0.6880   34.1570  -12.1630 C.3    94  GLU94       0.0388
     24  CG        -0.2410   34.2520  -13.3800 C.3    94  GLU94       0.1160
     25  CD        -0.1680   33.0480  -14.3850 C.2    94  GLU94       0.3649
     26  OE1        0.9090   32.4040  -14.6010 O.co2  94  GLU94      -0.2457
     27  OE2       -1.2270   32.7400  -14.9670 O.co2  94  GLU94      -0.2457
     28  N          4.6780   37.2620   -8.7120 N.3    99  MET99      -0.1245
     29  CA         3.5550   37.7350   -9.4870 C.3    99  MET99       0.1570
     30  C          2.2730   37.6360   -8.7010 C.2    99  MET99       0.2261
     31  O          2.1160   36.7690   -7.8050 O.2    99  MET99      -0.2867
     32  CB         3.3760   36.9340  -10.7700 C.3    99  MET99       0.0387
     33  CG         4.5360   37.0450  -11.7390 C.3    99  MET99       0.0595
     34  SD         4.4530   35.9390  -13.1330 S.3    99  MET99      -0.1393
     35  CE         3.3280   36.7490  -14.2500 C.3    99  MET99       0.0692
     36  N         -2.0000   37.8150   -9.8670 N.3   101  GLU101     -0.1245
     37  CA        -2.9590   38.0040  -10.9540 C.3   101  GLU101      0.1567
     38  C         -4.2590   38.4230  -10.3040 C.2   101  GLU101      0.2260
     39  O         -4.5570   37.9530   -9.1860 O.2   101  GLU101     -0.2867
     40  CB        -3.1400   36.7030  -11.7180 C.3   101  GLU101      0.0388
     41  CG        -4.3000   36.6990  -12.7070 C.3   101  GLU101      0.1160
     42  CD        -4.3290   35.3750  -13.4870 C.2   101  GLU101      0.3649
     43  OE1       -3.3390   35.1160  -14.2370 O.co2 101  GLU101     -0.2457
     44  OE2       -5.2910   34.5770  -13.3220 O.co2 101  GLU101     -0.2457
     45  N          6.9850   32.4400  -18.7420 N.3   260  MET260     -0.1245
     46  CA         5.8100   32.4500  -17.8830 C.3   260  MET260      0.1570
     47  C          6.0050   33.3350  -16.6940 C.2   260  MET260      0.2261
     48  O          5.0530   33.5850  -15.9550 O.2   260  MET260     -0.2867
     49  CB         5.4330   31.0480  -17.4720 C.3   260  MET260      0.0387
     50  CG         4.9150   30.2350  -18.6530 C.3   260  MET260      0.0595
     51  SD         3.2120   30.7680  -18.9870 S.3   260  MET260     -0.1393
     52  CE         2.6040   29.4810  -20.1300 C.3   260  MET260      0.0692
     53  N          6.6780   36.4280  -17.2860 N.3   262  CYS262     -0.1221
     54  CA         6.3020   37.7030  -17.9330 C.3   262  CYS262      0.1808
     55  C          4.8090   37.8900  -17.7570 C.2   262  CYS262      0.2602
     56  O          4.1020   36.9070  -17.5050 O.2   262  CYS262     -0.2717
     57  CB         6.5730   37.6230  -19.4100 C.3   262  CYS262      0.0970
     58  SG         8.2960   38.0070  -19.7670 S.3   262  CYS262     -0.0800
     59  N          4.3100   39.1200  -17.8950 N.am  263  SER263     -0.1938
     60  CA         2.8860   39.4040  -17.6500 C.3   263  SER263      0.2055
     61  C          2.1120   39.9030  -18.8850 C.2   263  SER263      0.2643
     62  O          2.7090   40.4690  -19.8110 O.2   263  SER263     -0.2714
     63  CB         2.7610   40.4260  -16.5380 C.3   263  SER263      0.2130
     64  OG         3.2740   39.9010  -15.3440 O.3   263  SER263     -0.2179
     65  N          0.7840   39.7360  -18.8840 N.am  264  CYS264     -0.1967
     66  CA        -0.0330   40.1360  -20.0220 C.3   264  CYS264      0.1712
     67  C         -1.3530   40.6750  -19.5610 C.2   264  CYS264      0.2296
     68  O         -1.7260   40.5170  -18.3910 O.2   264  CYS264     -0.2864
     69  CB        -0.2600   38.9780  -21.0080 C.3   264  CYS264      0.0983
     70  SG        -1.2090   37.5790  -20.2960 S.3   264  CYS264     -0.0798
     71  N         -5.2680   39.9790  -20.4900 N.3   266  GLN266     -0.1245
     72  CA        -6.1050   39.0470  -21.2320 C.3   266  GLN266      0.1566
     73  C         -7.5760   39.4430  -21.0270 C.2   266  GLN266      0.2260
     74  O         -7.9270   39.9140  -19.9380 O.2   266  GLN266     -0.2867
     75  CB        -5.8890   37.6220  -20.7490 C.3   266  GLN266      0.0367
     76  CG        -4.5520   37.0760  -21.1210 C.3   266  GLN266      0.0905
     77  CD        -4.2730   35.6950  -20.5280 C.2   266  GLN266      0.2608
     78  OE1       -5.0420   35.1750  -19.7260 O.2   266  GLN266     -0.2717
     79  NE2       -3.1780   35.0830  -20.9590 N.am  266  GLN266     -0.0878
     80  N          6.9420   40.0720  -25.9860 N.3   311  ARG311     -0.1301
     81  CA         7.3590   38.9320  -25.2140 C.3   311  ARG311      0.1248
     82  C          7.0260   37.6040  -25.8930 C.3   311  ARG311      0.2009
     83  O          7.4830   36.5000  -25.4040 O.3   311  ARG311     -0.2188
     84  CB         6.5290   38.9460  -23.9030 C.3   311  ARG311      0.0254
     85  CG         5.1060   38.3380  -24.1150 C.3   311  ARG311      0.0485
     86  CD         4.0930   38.8550  -23.0830 C.3   311  ARG311      0.2205
     87  NE         2.7610   38.2150  -23.2570 N.pl3 311  ARG311     -0.0865
     88  CZ         1.8610   38.6030  -24.1360 C.cat 311  ARG311      0.5346
     89  NH1        2.1580   39.5980  -24.9750 N.pl3 311  ARG311      0.1354
     90  NH2        0.6610   37.9930  -24.1850 N.pl3 311  ARG311      0.1354
     91  N          7.7980   33.5820  -24.3410 N.3   315  ILE315     -0.1245
     92  CA         6.8840   32.6730  -23.6900 C.3   315  ILE315      0.1561
     93  C          6.6220   31.3980  -24.5070 C.2   315  ILE315      0.2260
     94  O          6.3900   30.2960  -23.9280 O.2   315  ILE315     -0.2867
     95  CB         5.5610   33.3220  -23.3300 C.3   315  ILE315      0.0252
     96  CG1        5.7900   34.7820  -22.9530 C.3   315  ILE315      0.0019
     97  CG2        4.8370   32.4370  -22.2320 C.3   315  ILE315      0.0019
     98  CD1        4.7560   35.3580  -21.9990 C.3   315  ILE315      0.0001
     99  N          2.6390   26.5680  -26.7930 N.3   360  TYR360     -0.1241
    100  CA         2.3520   27.9840  -26.5370 C.3   360  TYR360      0.1605
    101  C          2.6100   28.6520  -27.9020 C.2   360  TYR360      0.2264
    102  O          3.7730   28.8200  -28.3130 O.2   360  TYR360     -0.2867
    103  CB         3.2420   28.5400  -25.3950 C.3   360  TYR360      0.0534
    104  CG         2.8560   29.9700  -25.0000 C.ar  360  TYR360     -0.0201
    105  CD1        2.3190   30.2730  -23.7590 C.ar  360  TYR360     -0.0009
    106  CD2        2.9650   30.9930  -25.9280 C.ar  360  TYR360     -0.0009
    107  CE1        1.9320   31.6270  -23.4450 C.ar  360  TYR360      0.0417
    108  CE2        2.5950   32.2940  -25.6530 C.ar  360  TYR360      0.0417
    109  CZ         2.0740   32.6100  -24.4190 C.ar  360  TYR360      0.1957
    110  OH         1.7440   33.9690  -24.2050 O.3   360  TYR360     -0.2866
    111  N         -1.6470   27.1180  -25.1760 N.3   443  TRP443     -0.1241
    112  CA        -1.7040   28.5440  -24.8200 C.3   443  TRP443      0.1605
    113  C         -1.6090   29.3520  -26.1110 C.2   443  TRP443      0.2264
    114  O         -0.5450   29.4430  -26.6860 O.2   443  TRP443     -0.2867
    115  CB        -0.4810   28.9330  -23.9680 C.3   443  TRP443      0.0550
    116  CG        -0.4160   28.3960  -22.5710 C.ar  443  TRP443      0.0003
    117  CD1       -1.0040   28.9110  -21.4720 C.ar  443  TRP443      0.0946
    118  CD2        0.3430   27.2650  -22.1310 C.ar  443  TRP443      0.0152
    119  NE1       -0.7060   28.1480  -20.3690 N.ar  443  TRP443     -0.2442
    120  CE2        0.1680   27.1640  -20.7400 C.ar  443  TRP443      0.0810
    121  CE3        1.1760   26.3270  -22.7970 C.ar  443  TRP443      0.0012
    122  CZ2        0.7770   26.1340  -19.9570 C.ar  443  TRP443      0.0191
    123  CZ3        1.7870   25.3030  -22.0540 C.ar  443  TRP443      0.0001
    124  CH2        1.5760   25.2150  -20.6240 C.ar  443  TRP443      0.0015
    125  N         -8.4640   31.8360  -27.1660 N.3   447  ARG447     -0.1245
    126  CA        -8.8360   30.5390  -26.6550 C.3   447  ARG447      0.1563
    127  C        -10.3580   30.4200  -26.7800 C.2   447  ARG447      0.2260
    128  O        -11.1100   31.3380  -26.4000 O.2   447  ARG447     -0.2867
    129  CB        -8.4220   30.3710  -25.2080 C.3   447  ARG447      0.0307
    130  CG        -8.7500   29.0050  -24.6270 C.3   447  ARG447      0.0489
    131  CD        -8.1700   28.8260  -23.2250 C.3   447  ARG447      0.2205
    132  NE        -6.7370   28.5760  -23.3480 N.pl3 447  ARG447     -0.0865
    133  CZ        -5.9070   28.4630  -22.3200 C.cat 447  ARG447      0.5346
    134  NH1       -6.3410   28.6020  -21.0660 N.pl3 447  ARG447      0.1354
    135  NH2       -4.6660   28.1970  -22.5700 N.pl3 447  ARG447      0.1354
    136  N         -5.9570   36.8370  -26.0060 N.3   470  ARG470     -0.1245
    137  CA        -4.7900   36.6610  -25.1540 C.3   470  ARG470      0.1563
    138  C         -3.4640   37.3770  -25.5340 C.2   470  ARG470      0.2260
    139  O         -2.4740   37.2500  -24.7850 O.2   470  ARG470     -0.2867
    140  CB        -4.5140   35.1740  -24.9890 C.3   470  ARG470      0.0307
    141  CG        -5.6740   34.4430  -24.3390 C.3   470  ARG470      0.0489
    142  CD        -5.5980   32.9990  -24.6210 C.3   470  ARG470      0.2205
    143  NE        -4.3220   32.4850  -24.1380 N.pl3 470  ARG470     -0.0865
    144  CZ        -4.0820   32.0710  -22.8930 C.cat 470  ARG470      0.5346
    145  NH1       -5.0550   32.0410  -21.9870 N.pl3 470  ARG470      0.1354
    146  NH2       -2.8550   31.6770  -22.5430 N.pl3 470  ARG470      0.1354
@<TRIPOS>BOND
     1   102   101    2
     2   101   100    1
     3   125   126    1
     4    99   100    1
     5   127   126    1
     6   127   128    2
     7   114   113    2
     8   126   129    1
     9   100   103    1
    10   113   112    1
    11   136   137    1
    12    80    81    1
    13   106   108   ar
    14   106   104   ar
    15    82    83    1
    16    82    81    1
    17   108   109   ar
    18   138   137    1
    19   138   139    2
    20   103   104    1
    21    81    84    1
    22   129   130    1
    23   111   112    1
    24   137   140    1
    25   104   105   ar
    26   140   141    1
    27    89    88    1
    28   112   115    1
    29   130   131    1
    30   142   141    1
    31   142   143    1
    32    93    94    2
    33    93    92    1
    34   109   110    1
    35   109   107   ar
    36    91    92    1
    37    90    88    1
    38   143   144    2
    39    88    87    2
    40    85    84    1
    41    85    86    1
    42   115   116    1
    43   105   107   ar
    44    92    95    1
    45   132   131    1
    46   132   133    2
    47    95    96    1
    48    95    97    1
    49    87    86    1
    50    96    98    1
    51   144   146    1
    52   144   145    1
    53   121   118   ar
    54   121   123   ar
    55   116   118   ar
    56   116   117   ar
    57   135   133    1
    58   133   134    1
    59   118   120   ar
    60   123   124   ar
    61   117   119   ar
    62    72    73    1
    63    72    75    1
    64    72    71    1
    65    76    75    1
    66    76    77    1
    67    73    74    2
    68    69    70    1
    69    69    66    1
    70    79    77   am
    71   120   119   ar
    72   120   122   ar
    73   124   122   ar
    74    77    78    2
    75    52    51    1
    76    66    67    1
    77    66    65    1
    78    62    61    2
    79    58    57    1
    80    67    68    2
    81    57    54    1
    82    51    50    1
    83    61    65   am
    84    61    60    1
    85    45    46    1
    86    50    49    1
    87    54    55    1
    88    54    53    1
    89    59    55   am
    90    59    60    1
    91    46    49    1
    92    46    47    1
    93    55    56    2
    94    60    63    1
    95     4     3    2
    96     1     2    1
    97     9     7   ar
    98    17    16   ar
    99     5     2    1
   100     5     6    1
   101    47    48    2
   102    63    64    1
   103     7     8   ar
   104     7     6    1
   105     3     2    1
   106    18    16   ar
   107    16    15    1
   108    15    14    1
   109    27    25   ar
   110    14    11    1
   111    10    11    1
   112    26    25   ar
   113    25    24    1
   114    35    34    1
   115    13    12    2
   116    43    42   ar
   117    11    12    1
   118    42    44   ar
   119    42    41    1
   120    24    23    1
   121    34    33    1
   122    41    40    1
   123    23    20    1
   124    33    32    1
   125    40    37    1
   126    20    21    1
   127    20    19    1
   128    21    22    2
   129    37    38    1
   130    37    36    1
   131    32    29    1
   132    38    39    2
   133    29    28    1
   134    29    30    1
   135    30    31    2
