@<TRIPOS>MOLECULE
tmp/3ig6D01.pdb
 168 163 0 0 0
SMALL
GASTEIGER

@<TRIPOS>ATOM
      1  N         13.5620  -11.7280    6.9570 N.3    88  THR88      -0.1203
      2  CA        12.1700  -11.6560    7.3760 C.3    88  THR88       0.1994
      3  C         11.9900  -11.8940    8.8750 C.2    88  THR88       0.2617
      4  O         10.8800  -11.8080    9.3890 O.2    88  THR88      -0.2717
      5  CB        11.3080  -12.6660    6.6140 C.3    88  THR88       0.1784
      6  OG1       11.8930  -13.9680    6.7220 O.3    88  THR88      -0.2211
      7  CG2       11.1930  -12.2640    5.1450 C.3    88  THR88       0.0376
      8  N         13.0830  -12.1920    9.5690 N.am   89  LEU89      -0.1979
      9  CA        13.0120  -12.5290   10.9890 C.3    89  LEU89       0.1596
     10  C         14.0210  -11.7120   11.7990 C.2    89  LEU89       0.2287
     11  O         13.6430  -10.9420   12.6800 O.2    89  LEU89      -0.2864
     12  CB        13.2960  -14.0240   11.1810 C.3    89  LEU89       0.0297
     13  CG        12.6070  -14.7770   12.3270 C.3    89  LEU89       0.0022
     14  CD1       13.4990  -15.9330   12.7800 C.3    89  LEU89       0.0001
     15  CD2       12.3180  -13.8440   13.4830 C.3    89  LEU89       0.0001
     16  N          3.0790   -3.2730   22.5810 N.3   139  LYS139     -0.1245
     17  CA         1.7960   -3.9560   22.7270 C.3   139  LYS139      0.1561
     18  C          1.7320   -4.8680   23.9550 C.2   139  LYS139      0.2260
     19  O          2.7360   -5.4560   24.3660 O.2   139  LYS139     -0.2867
     20  CB         1.4950   -4.7790   21.4730 C.3   139  LYS139      0.0271
     21  CG         1.2520   -3.9490   20.2180 C.3   139  LYS139      0.0035
     22  CD        -0.0390   -3.1420   20.3200 C.3   139  LYS139      0.0206
     23  CE        -0.2320   -2.2620   19.0930 C.3   139  LYS139      0.1093
     24  NZ        -0.2220   -3.0640   17.8410 N.3   139  LYS139     -0.1314
     25  N         -0.5630   -7.4260   24.2210 N.3   141  ASN141     -0.1225
     26  CA        -1.0040   -8.7590   23.8250 C.3   141  ASN141      0.1785
     27  C         -1.1280   -8.8140   22.3040 C.2   141  ASN141      0.2597
     28  O         -0.8780   -7.8180   21.6290 O.2   141  ASN141     -0.2718
     29  CB        -2.3510   -9.0850   24.4800 C.3   141  ASN141      0.1169
     30  CG        -3.4470   -8.1300   24.0620 C.2   141  ASN141      0.2627
     31  OD1       -3.5160   -7.7190   22.9060 O.2   141  ASN141     -0.2716
     32  ND2       -4.3160   -7.7720   25.0050 N.am  141  ASN141     -0.0877
     33  N         -1.5190   -9.9740   21.7770 N.am  142  SER142     -0.1952
     34  CA        -1.5150  -10.2170   20.3350 C.3   142  SER142      0.1924
     35  C         -2.6500   -9.5420   19.5690 C.2   142  SER142      0.2314
     36  O         -2.5900   -9.4270   18.3420 O.2   142  SER142     -0.2863
     37  CB        -1.5640  -11.7240   20.0600 C.3   142  SER142      0.2116
     38  OG        -0.4300  -12.3760   20.6030 O.3   142  SER142     -0.2180
     39  N         -4.4430   -6.4600   20.7000 N.3   144  ASP144     -0.1239
     40  CA        -4.5540   -5.0060   20.8480 C.3   144  ASP144      0.1674
     41  C         -4.0880   -4.3300   19.5660 C.2   144  ASP144      0.2266
     42  O         -3.1180   -4.7650   18.9390 O.2   144  ASP144     -0.2867
     43  CB        -3.6890   -4.4930   22.0060 C.3   144  ASP144      0.1410
     44  CG        -4.3390   -4.6800   23.3690 C.2   144  ASP144      0.3668
     45  OD1       -3.6190   -4.5380   24.3770 O.co2 144  ASP144     -0.2456
     46  OD2       -5.5540   -4.9570   23.4430 O.co2 144  ASP144     -0.2456
     47  N          7.2370  -10.8920   28.0460 N.3   189  ASP189     -0.1225
     48  CA         8.1640  -10.7030   26.9310 C.3   189  ASP189      0.1805
     49  C          8.0700   -9.2620   26.4500 C.2   189  ASP189      0.2598
     50  O          7.1260   -8.5510   26.7850 O.2   189  ASP189     -0.2718
     51  CB         7.7970  -11.6530   25.7820 C.3   189  ASP189      0.1424
     52  CG         8.9110  -11.7990   24.7430 C.2   189  ASP189      0.3668
     53  OD1       10.0240  -11.2740   24.9520 O.co2 189  ASP189     -0.2456
     54  OD2        8.6670  -12.4530   23.7040 O.co2 189  ASP189     -0.2456
     55  N          9.0580   -8.8350   25.6740 N.am  190  SER190     -0.1938
     56  CA         8.9540   -7.5760   24.9470 C.3   190  SER190      0.2055
     57  C          8.0780   -7.8380   23.7280 C.2   190  SER190      0.2643
     58  O          7.8580   -8.9890   23.3560 O.2   190  SER190     -0.2714
     59  CB        10.3480   -7.0940   24.5140 C.3   190  SER190      0.2130
     60  OG        11.0640   -8.1070   23.8220 O.3   190  SER190     -0.2179
     61  N          7.5600   -6.7840   23.1090 N.am  191  CYS191     -0.1953
     62  CA         6.7170   -6.9790   21.9420 C.3   191  CYS191      0.1843
     63  C          6.7790   -5.7880   21.0060 C.2   191  CYS191      0.2625
     64  O          7.5550   -4.8580   21.2140 O.2   191  CYS191     -0.2714
     65  CB         5.2690   -7.2260   22.3750 C.3   191  CYS191      0.0997
     66  SG         4.2410   -8.1090   21.1520 S.3   191  CYS191     -0.0797
     67  N          5.9500   -5.8250   19.9740 N.am  192  GLN192     -0.1977
     68  CA         5.9500   -4.7790   18.9690 C.3   192  GLN192      0.1601
     69  C          5.7840   -3.4190   19.6440 C.2   192  GLN192      0.2287
     70  O          4.8350   -3.2040   20.3960 O.2   192  GLN192     -0.2864
     71  CB         4.8150   -5.0220   17.9750 C.3   192  GLN192      0.0394
     72  CG         4.9010   -4.1700   16.7310 C.3   192  GLN192      0.0908
     73  CD         4.1030   -2.9010   16.8560 C.2   192  GLN192      0.2608
     74  OE1        2.8910   -2.9380   17.0790 O.2   192  GLN192     -0.2717
     75  NE2        4.7740   -1.7610   16.7150 N.am  192  GLN192     -0.0878
     76  N         10.8590   -2.2930   20.7060 N.3   195  SER195     -0.1217
     77  CA        12.1640   -2.2300   20.0490 C.3   195  SER195      0.1889
     78  C         12.9430   -0.9680   20.4230 C.2   195  SER195      0.2288
     79  O         12.3690    0.1110   20.5490 O.2   195  SER195     -0.2866
     80  CB        11.9960   -2.2810   18.5280 C.3   195  SER195      0.2089
     81  OG        11.5470   -3.5560   18.1090 O.3   195  SER195     -0.2183
     82  N         16.3340   -4.1030   22.8300 N.3   213  VAL213     -0.1231
     83  CA        15.2600   -4.9050   22.2430 C.3   213  VAL213      0.1692
     84  C         15.3280   -4.8430   20.7200 C.2   213  VAL213      0.2593
     85  O         15.2910   -3.7600   20.1410 O.2   213  VAL213     -0.2718
     86  CB        13.8830   -4.3860   22.7170 C.3   213  VAL213      0.0266
     87  CG1       12.7610   -5.2040   22.0990 C.3   213  VAL213      0.0020
     88  CG2       13.8170   -4.4420   24.2490 C.3   213  VAL213      0.0020
     89  N         15.4320   -5.9950   20.0640 N.am  214  SER214     -0.1938
     90  CA        15.6560   -5.9880   18.6150 C.3   214  SER214      0.2055
     91  C         14.6180   -6.7460   17.8060 C.2   214  SER214      0.2643
     92  O         13.9790   -6.1770   16.9190 O.2   214  SER214     -0.2714
     93  CB        17.0570   -6.5220   18.2930 C.3   214  SER214      0.2130
     94  OG        17.2900   -6.5370   16.8920 O.3   214  SER214     -0.2179
     95  N         14.4460   -8.0340   18.0850 N.am  215  TRP215     -0.1959
     96  CA        13.4660   -8.8040   17.3370 C.3   215  TRP215      0.1771
     97  C         13.0150  -10.0530   18.0690 C.2   215  TRP215      0.2620
     98  O         13.4920  -10.3590   19.1580 O.2   215  TRP215     -0.2715
     99  CB        14.0250   -9.1890   15.9620 C.3   215  TRP215      0.0590
    100  CG        15.2770  -10.0290   16.0090 C.ar  215  TRP215      0.0006
    101  CD1       16.5610   -9.5820   16.1230 C.ar  215  TRP215      0.0946
    102  CD2       15.3590  -11.4610   15.9120 C.ar  215  TRP215      0.0152
    103  NE1       17.4380  -10.6440   16.1010 N.ar  215  TRP215     -0.2442
    104  CE2       16.7240  -11.8070   15.9730 C.ar  215  TRP215      0.0810
    105  CE3       14.4110  -12.4800   15.7770 C.ar  215  TRP215      0.0012
    106  CZ2       17.1660  -13.1330   15.9040 C.ar  215  TRP215      0.0191
    107  CZ3       14.8520  -13.8000   15.7100 C.ar  215  TRP215      0.0001
    108  CH2       16.2150  -14.1100   15.7740 C.ar  215  TRP215      0.0015
    109  N         12.0800  -10.7620   17.4520 N.am  216  GLY216     -0.1940
    110  CA        11.6550  -12.0460   17.9620 C.3   216  GLY216      0.2014
    111  C         10.6020  -12.6170   17.0400 C.2   216  GLY216      0.2639
    112  O         10.0190  -11.8910   16.2390 O.2   216  GLY216     -0.2714
    113  N         10.3640  -13.9180   17.1400 N.am  217  ARG217     -0.1963
    114  CA         9.2170  -14.5270   16.4860 C.3   217  ARG217      0.1729
    115  C          8.0310  -14.3930   17.4410 C.2   217  ARG217      0.2617
    116  O          7.9490  -15.0960   18.4470 O.2   217  ARG217     -0.2715
    117  CB         9.5060  -16.0060   16.1980 C.3   217  ARG217      0.0348
    118  CG         8.6010  -16.6300   15.1460 C.3   217  ARG217      0.0492
    119  CD         7.1630  -16.6800   15.6130 C.3   217  ARG217      0.2205
    120  NE         6.2270  -16.7090   14.4920 N.pl3 217  ARG217     -0.0865
    121  CZ         4.9070  -16.7890   14.6260 C.cat 217  ARG217      0.5346
    122  NH1        4.3640  -16.8490   15.8340 N.pl3 217  ARG217      0.1354
    123  NH2        4.1310  -16.8130   13.5510 N.pl3 217  ARG217      0.1354
    124  N          7.1240  -13.4750   17.1290 N.am  218  GLY218     -0.1940
    125  CA         5.9950  -13.2300   18.0040 C.3   218  GLY218      0.2014
    126  C          6.4110  -12.7390   19.3770 C.2   218  GLY218      0.2639
    127  O          7.5450  -12.3000   19.5680 O.2   218  GLY218     -0.2714
    128  N          5.4860  -12.8210   20.3310 N.am  219  CYS219     -0.1967
    129  CA         5.6970  -12.3050   21.6810 C.3   219  CYS219      0.1712
    130  C          5.1770  -13.3050   22.7160 C.2   219  CYS219      0.2296
    131  O          4.0360  -13.7640   22.6210 O.2   219  CYS219     -0.2864
    132  CB         4.9550  -10.9760   21.8500 C.3   219  CYS219      0.0983
    133  SG         5.3690   -9.7150   20.6020 S.3   219  CYS219     -0.0798
    134  N          6.0240  -16.3500   23.0950 N.3   221  LEU221     -0.1245
    135  CA         5.7590  -17.5860   22.3760 C.3   221  LEU221      0.1561
    136  C          6.7670  -18.6370   22.8230 C.2   221  LEU221      0.2260
    137  O          7.9670  -18.3670   22.9060 O.2   221  LEU221     -0.2867
    138  CB         5.8890  -17.3440   20.8680 C.3   221  LEU221      0.0270
    139  CG         5.5390  -18.5000   19.9300 C.3   221  LEU221      0.0019
    140  CD1        4.1140  -18.9600   20.2020 C.3   221  LEU221      0.0001
    141  CD2        5.6840  -18.0440   18.4830 C.3   221  LEU221      0.0001
    142  N         10.5740  -19.2340   21.5890 N.3   224  LYS224     -0.1231
    143  CA        10.9620  -18.0990   20.7580 C.3   224  LYS224      0.1678
    144  C         11.2710  -16.9100   21.6500 C.2   224  LYS224      0.2434
    145  O         10.4340  -16.0340   21.8410 O.2   224  LYS224     -0.2733
    146  CB         9.8340  -17.7340   19.7890 C.3   224  LYS224      0.0284
    147  CG         9.4100  -18.8770   18.8790 C.3   224  LYS224      0.0035
    148  CD        10.5600  -19.3440   17.9890 C.3   224  LYS224      0.0206
    149  CE        10.2170  -20.6800   17.3170 C.3   224  LYS224      0.1093
    150  NZ        11.2580  -21.0930   16.3440 N.3   224  LYS224     -0.1314
    151  N         12.4840  -16.8720   22.2130 N.am  225  PRO225     -0.2718
    152  CA        12.8690  -15.8130   23.1490 C.3   225  PRO225      0.1535
    153  C         12.8880  -14.4480   22.4800 C.2   225  PRO225      0.2599
    154  O         12.9570  -14.3430   21.2530 O.2   225  PRO225     -0.2715
    155  CB        14.2690  -16.2260   23.6120 C.3   225  PRO225      0.0310
    156  CG        14.3700  -17.6770   23.2850 C.3   225  PRO225      0.0237
    157  CD        13.5480  -17.8780   22.0560 C.3   225  PRO225      0.0939
    158  N         12.8350  -13.3990   23.2880 N.am  226  GLY226     -0.1941
    159  CA        13.1430  -12.0850   22.7630 C.3   226  GLY226      0.2014
    160  C         14.6190  -12.0540   22.4240 C.2   226  GLY226      0.2638
    161  O         15.4480  -12.6110   23.1530 O.2   226  GLY226     -0.2714
    162  N         14.9620  -11.4130   21.3160 N.am  227  VAL227     -0.1977
    163  CA        16.3610  -11.2670   20.9570 C.3   227  VAL227      0.1596
    164  C         16.7790   -9.8060   21.0760 C.2   227  VAL227      0.2287
    165  O         16.0520   -8.9040   20.6580 O.2   227  VAL227     -0.2864
    166  CB        16.6210  -11.7570   19.5240 C.3   227  VAL227      0.0276
    167  CG1       18.1250  -11.8550   19.2780 C.3   227  VAL227      0.0022
    168  CG2       15.9410  -13.1060   19.3110 C.3   227  VAL227      0.0022
@<TRIPOS>BOND
     1     7     5    1
     2     5     6    1
     3     5     2    1
     4     1     2    1
     5     2     3    1
     6     3     4    2
     7     3     8   am
     8     8     9    1
     9     9    12    1
    10     9    10    1
    11    12    13    1
    12    10    11    2
    13    13    14    1
    14    13    15    1
    15   123   121    1
    16   120   121    2
    17   120   119    1
    18   121   122    1
    19   118   119    1
    20   118   117    1
    21   107   108   ar
    22   107   105   ar
    23   108   106   ar
    24   105   102   ar
    25   106   104   ar
    26   102   104   ar
    27   102   100   ar
    28    99   100    1
    29    99    96    1
    30   104   103   ar
    31   100   101   ar
    32   103   101   ar
    33   117   114    1
    34   112   111    2
    35   150   149    1
    36   114   113    1
    37   114   115    1
    38    75    73   am
    39    72    73    1
    40    72    71    1
    41    73    74    2
    42    94    93    1
    43    92    91    2
    44   111   113   am
    45   111   110    1
    46   124   115   am
    47   124   125    1
    48   149   148    1
    49    96    97    1
    50    96    95    1
    51   115   116    2
    52   109   110    1
    53   109    97   am
    54    91    95   am
    55    91    90    1
    56    24    23    1
    57    71    68    1
    58   148   147    1
    59   125   126    1
    60    97    98    2
    61    81    80    1
    62    93    90    1
    63    36    35    2
    64   141   139    1
    65    80    77    1
    66    90    89    1
    67   147   146    1
    68    42    41    2
    69    68    69    1
    70    68    67    1
    71    23    22    1
    72   167   166    1
    73   168   166    1
    74   126   127    2
    75   126   128   am
    76   166   163    1
    77    41    40    1
    78    35    34    1
    79    69    70    2
    80   146   143    1
    81   139   140    1
    82   139   138    1
    83    67    63   am
    84    77    78    1
    85    77    76    1
    86    37    34    1
    87    37    38    1
    88    89    84   am
    89    85    84    2
    90    21    22    1
    91    21    20    1
    92   128   129    1
    93    34    33    1
    94    78    79    2
    95   133    66    1
    96   133   132    1
    97   165   164    2
    98    39    40    1
    99    84    83    1
   100   143   142    1
   101   143   144    1
   102    40    43    1
   103   138   135    1
   104   163   164    1
   105   163   162    1
   106    63    64    2
   107    63    62    1
   108    66    65    1
   109   154   153    2
   110   162   160   am
   111    20    17    1
   112    28    27    2
   113   144   145    2
   114   144   151   am
   115   129   132    1
   116   129   130    1
   117    33    27   am
   118    62    65    1
   119    62    61    1
   120    43    44    1
   121   157   151    1
   122   157   156    1
   123    87    86    1
   124   151   152    1
   125    83    86    1
   126    83    82    1
   127    27    26    1
   128   135   136    1
   129   135   134    1
   130   160   159    1
   131   160   161    2
   132   153   152    1
   133   153   158   am
   134    16    17    1
   135   131   130    2
   136    86    88    1
   137    17    18    1
   138   159   158    1
   139   136   137    2
   140    31    30    2
   141    61    57   am
   142   152   155    1
   143   156   155    1
   144    58    57    2
   145    44    46   ar
   146    44    45   ar
   147    54    52   ar
   148    57    56    1
   149    60    59    1
   150    26    25    1
   151    26    29    1
   152    18    19    2
   153    30    29    1
   154    30    32   am
   155    59    56    1
   156    52    53   ar
   157    52    51    1
   158    56    55    1
   159    55    49   am
   160    51    48    1
   161    49    50    2
   162    49    48    1
   163    48    47    1
