@<TRIPOS>MOLECULE
tmp/3ig6D00.pdb
 84 84 0 0 0
SMALL
GASTEIGER

@<TRIPOS>ATOM
      1  N         15.4980    3.0710    9.9840 N.3    46  ILE46      -0.1231
      2  CA        16.1620    2.8330    8.7080 C.3    46  ILE46       0.1692
      3  C         15.2510    3.1250    7.5100 C.2    46  ILE46       0.2592
      4  O         15.7330    3.4040    6.4130 O.2    46  ILE46      -0.2718
      5  CB        16.6840    1.3730    8.6330 C.3    46  ILE46       0.0266
      6  CG1       17.5300    1.1700    7.3710 C.3    46  ILE46       0.0019
      7  CG2       15.5160    0.4050    8.6570 C.3    46  ILE46       0.0020
      8  CD1       18.9000    1.8310    7.4270 C.3    46  ILE46       0.0001
      9  N         13.9380    3.0660    7.7220 N.am   47  ASP47      -0.1974
     10  CA        12.9820    3.3660    6.6580 C.3    47  ASP47       0.1709
     11  C         12.8350    4.8650    6.4420 C.2    47  ASP47       0.2293
     12  O         12.4720    5.3070    5.3570 O.2    47  ASP47      -0.2864
     13  CB        11.6080    2.7770    6.9810 C.3    47  ASP47       0.1436
     14  CG        11.5490    1.2780    6.7590 C.2    47  ASP47       0.3671
     15  OD1       12.5930    0.6780    6.4170 O.co2  47  ASP47      -0.2456
     16  OD2       10.4560    0.7000    6.9280 O.co2  47  ASP47      -0.2456
     17  N         23.8840    1.8570   12.1040 N.3    81  HIS81      -0.1226
     18  CA        25.0330    0.9880   11.8860 C.3    81  HIS81       0.1752
     19  C         25.1720    0.6780   10.3980 C.2    81  HIS81       0.2596
     20  O         24.2180    0.2470    9.7570 O.2    81  HIS81      -0.2718
     21  CB        24.8850   -0.3160   12.6750 C.3    81  HIS81       0.0759
     22  CG        26.1840   -1.0240   12.9000 C.ar   81  HIS81       0.0818
     23  ND1       26.9120   -1.5860   11.8740 N.ar   81  HIS81      -0.2268
     24  CD2       26.9060   -1.2250   14.0280 C.ar   81  HIS81       0.1154
     25  CE1       28.0280   -2.1010   12.3610 C.ar   81  HIS81       0.1986
     26  NE2       28.0490   -1.8950   13.6650 N.ar   81  HIS81      -0.2212
     27  N         26.3640    0.9030    9.8520 N.am   82  LYS82      -0.1966
     28  CA        26.5670    0.7780    8.4150 C.3    82  LYS82       0.1728
     29  C         26.3780   -0.6730    7.9820 C.2    82  LYS82       0.2616
     30  O         26.1020   -0.9500    6.8170 O.2    82  LYS82      -0.2715
     31  CB        27.9680    1.2740    8.0270 C.3    82  LYS82       0.0311
     32  CG        29.0780    0.2600    8.2120 C.3    82  LYS82       0.0038
     33  CD        30.4280    0.8420    7.7880 C.3    82  LYS82       0.0206
     34  CE        30.4130    1.2600    6.3280 C.3    82  LYS82       0.1093
     35  NZ        30.3080    0.0860    5.4190 N.3    82  LYS82      -0.1314
     36  N         26.5110   -1.5960    8.9300 N.am   83  ASP83      -0.1957
     37  CA        26.3420   -3.0170    8.6430 C.3    83  ASP83       0.1840
     38  C         24.9660   -3.5490    9.0510 C.2    83  ASP83       0.2622
     39  O         24.7640   -4.7600    9.1430 O.2    83  ASP83      -0.2715
     40  CB        27.4390   -3.8310    9.3410 C.3    83  ASP83       0.1450
     41  CG        28.8210   -3.5890    8.7420 C.2    83  ASP83       0.3671
     42  OD1       29.7750   -3.3450    9.5110 O.co2  83  ASP83      -0.2456
     43  OD2       28.9550   -3.6410    7.5030 O.co2  83  ASP83      -0.2456
     44  N         24.0140   -2.6520    9.2840 N.am   84  TYR84      -0.1960
     45  CA        22.6510   -3.0880    9.5850 C.3    84  TYR84       0.1771
     46  C         22.0300   -3.8150    8.3930 C.2    84  TYR84       0.2620
     47  O         22.1950   -3.3990    7.2450 O.2    84  TYR84      -0.2715
     48  CB        21.7550   -1.8970    9.9490 C.3    84  TYR84       0.0574
     49  CG        20.2980   -2.2890   10.0030 C.ar   84  TYR84      -0.0198
     50  CD1       19.7570   -2.8620   11.1460 C.ar   84  TYR84      -0.0009
     51  CD2       19.4800   -2.1600    8.8820 C.ar   84  TYR84      -0.0009
     52  CE1       18.4430   -3.3040   11.1690 C.ar   84  TYR84       0.0417
     53  CE2       18.1760   -2.5970    8.8970 C.ar   84  TYR84       0.0417
     54  CZ        17.6600   -3.1720   10.0400 C.ar   84  TYR84       0.1957
     55  OH        16.3670   -3.6430   10.0390 O.3    84  TYR84      -0.2866
     56  N         21.3150   -4.9020    8.6730 N.am   85  SER85      -0.1936
     57  CA        20.4590   -5.5280    7.6790 C.3    85  SER85       0.2055
     58  C         19.4230   -6.3850    8.3960 C.2    85  SER85       0.2643
     59  O         19.4960   -6.5830    9.6080 O.2    85  SER85      -0.2714
     60  CB        21.2850   -6.4000    6.7310 C.3    85  SER85       0.2130
     61  OG        21.7350   -7.5670    7.3910 O.3    85  SER85      -0.2179
     62  N         18.4500   -6.8820    7.6460 N.am   86  ALA86      -0.1963
     63  CA        17.4850   -7.8180    8.1990 C.3    86  ALA86       0.1728
     64  C         17.0300   -8.7770    7.1160 C.2    86  ALA86       0.2616
     65  O         17.0830   -8.4560    5.9340 O.2    86  ALA86      -0.2715
     66  CB        16.2890   -7.0650    8.7610 C.3    86  ALA86       0.0334
     67  N         16.5900   -9.9610    7.5170 N.am   87  ASP87      -0.1971
     68  CA        15.7870  -10.7760    6.6240 C.3    87  ASP87       0.1709
     69  C         14.3520  -10.6800    7.1310 C.2    87  ASP87       0.2293
     70  O         13.9620   -9.6520    7.6800 O.2    87  ASP87      -0.2864
     71  CB        16.2910  -12.2280    6.6050 C.3    87  ASP87       0.1436
     72  CG        16.4230  -12.8280    7.9890 C.2    87  ASP87       0.3671
     73  OD1       15.6260  -12.4720    8.8800 O.co2  87  ASP87      -0.2456
     74  OD2       17.3290  -13.6650    8.1840 O.co2  87  ASP87      -0.2456
     75  N         20.2830   -7.5520   12.0860 N.3    92  HIS92      -0.1241
     76  CA        21.6990   -7.6120   12.4260 C.3    92  HIS92       0.1621
     77  C         22.2580   -6.2280   12.7020 C.2    92  HIS92       0.2264
     78  O         21.8700   -5.2580   12.0490 O.2    92  HIS92      -0.2867
     79  CB        22.4840   -8.2600   11.2880 C.3    92  HIS92       0.0745
     80  CG        22.0540   -9.6610   10.9960 C.ar   92  HIS92       0.0817
     81  ND1       22.5930  -10.7530   11.6410 N.ar   92  HIS92      -0.2268
     82  CD2       21.1130  -10.1480   10.1520 C.ar   92  HIS92       0.1154
     83  CE1       22.0020  -11.8520   11.2090 C.ar   92  HIS92       0.1986
     84  NE2       21.1000  -11.5130   10.3060 N.ar   92  HIS92      -0.2212
@<TRIPOS>BOND
     1    12    11    2
     2    35    34    1
     3    65    64    2
     4    34    33    1
     5     4     3    2
     6    15    14   ar
     7    11    10    1
     8    71    68    1
     9    71    72    1
    10    68    69    1
    11    68    67    1
    12    10    13    1
    13    10     9    1
    14    60    61    1
    15    60    57    1
    16    14    16   ar
    17    14    13    1
    18    30    29    2
    19    64    67   am
    20    64    63    1
    21    69    70    2
    22    47    46    2
    23     6     8    1
    24     6     5    1
    25    43    41   ar
    26     3     9   am
    27     3     2    1
    28    62    63    1
    29    62    58   am
    30    57    58    1
    31    57    56    1
    32    33    32    1
    33    29    28    1
    34    29    36   am
    35    72    74   ar
    36    72    73   ar
    37    31    32    1
    38    31    28    1
    39    63    66    1
    40    46    56   am
    41    46    45    1
    42    58    59    2
    43    28    27    1
    44     5     7    1
    45     5     2    1
    46    37    36    1
    47    37    38    1
    48    37    40    1
    49     2     1    1
    50    41    40    1
    51    41    42   ar
    52    51    53   ar
    53    51    49   ar
    54    53    54   ar
    55    38    39    2
    56    38    44   am
    57    44    45    1
    58    45    48    1
    59    20    19    2
    60    27    19   am
    61    48    49    1
    62    49    50   ar
    63    55    54    1
    64    54    52   ar
    65    82    84   ar
    66    82    80   ar
    67    84    83   ar
    68    19    18    1
    69    80    79    1
    70    80    81   ar
    71    50    52   ar
    72    83    81   ar
    73    79    76    1
    74    23    25   ar
    75    23    22   ar
    76    18    17    1
    77    18    21    1
    78    78    77    2
    79    75    76    1
    80    25    26   ar
    81    76    77    1
    82    21    22    1
    83    22    24   ar
    84    26    24   ar
