@<TRIPOS>MOLECULE
tmp/3ig7A00.pdb
 208 197 0 0 0
SMALL
GASTEIGER

@<TRIPOS>ATOM
      1  N         -0.7570   24.2090   -2.5320 N.3     8  GLU8       -0.1182
      2  CA        -0.3310   23.0810   -1.7390 C.3     8  GLU8        0.1915
      3  C         -0.9700   23.1640   -0.3520 C.2     8  GLU8        0.2634
      4  O         -1.2310   24.2630    0.1350 O.2     8  GLU8       -0.2714
      5  CB         1.1670   22.9670   -1.4790 C.2     8  GLU8        0.0085
      6  CG         1.9890   24.1600   -1.0960 C.2     8  GLU8        0.0835
      7  CD         3.4770   23.9180   -0.9580 C.2     8  GLU8        0.3877
      8  OE1        4.2030   24.0310   -1.9640 O.co2   8  GLU8       -0.2406
      9  OE2        3.9750   23.6470    0.1560 O.co2   8  GLU8       -0.2406
     10  N         -1.1180   21.9840    0.2200 N.am    9  LYS9       -0.1963
     11  CA        -1.5960   21.8310    1.5920 C.3     9  LYS9        0.1728
     12  C         -0.4670   22.1730    2.5550 C.2     9  LYS9        0.2616
     13  O          0.6020   21.5570    2.4110 O.2     9  LYS9       -0.2715
     14  CB        -2.0020   20.3760    1.7750 C.3     9  LYS9        0.0311
     15  CG        -2.6060   19.9790    3.1010 C.3     9  LYS9        0.0038
     16  CD        -3.6550   18.8870    2.9390 C.3     9  LYS9        0.0206
     17  CE        -3.1390   17.6310    2.2560 C.3     9  LYS9        0.1093
     18  NZ        -3.9490   16.4150    2.5390 N.3     9  LYS9       -0.1314
     19  N         -0.6320   23.1410    3.4350 N.am   10  ILE10      -0.1977
     20  CA         0.4010   23.5750    4.3600 C.3    10  ILE10       0.1596
     21  C          0.2990   22.9250    5.7430 C.2    10  ILE10       0.2287
     22  O          1.2350   23.0220    6.5470 O.2    10  ILE10      -0.2864
     23  CB         0.3080   25.0720    4.7170 C.3    10  ILE10       0.0276
     24  CG1        0.0360   26.0390    3.5960 C.3    10  ILE10       0.0022
     25  CG2        1.5970   25.5350    5.4060 C.3    10  ILE10       0.0022
     26  CD1        0.2900   27.5010    3.9350 C.3    10  ILE10       0.0001
     27  N         -4.9380   22.5630   11.0430 N.3    13  GLY13      -0.1225
     28  CA        -5.0520   23.1720   12.3700 C.3    13  GLY13       0.1811
     29  C         -6.0220   22.3750   13.2210 C.2    13  GLY13       0.2280
     30  O         -6.2520   22.5570   14.4160 O.2    13  GLY13      -0.2866
     31  N         -9.0500   22.6010   13.0120 N.3    15  TYR15      -0.1241
     32  CA       -10.0000   23.6600   12.9570 C.3    15  TYR15       0.1605
     33  C        -10.4900   23.5280   11.4850 C.2    15  TYR15       0.2264
     34  O        -11.6220   23.7590   11.1190 O.2    15  TYR15      -0.2867
     35  CB        -9.4450   25.0700   13.0250 C.3    15  TYR15       0.0534
     36  CG        -9.4180   25.8410   14.3090 C.ar   15  TYR15      -0.0201
     37  CD1       -8.3210   26.6560   14.5860 C.ar   15  TYR15      -0.0009
     38  CD2      -10.4340   25.7940   15.2470 C.ar   15  TYR15      -0.0009
     39  CE1       -8.2320   27.3920   15.7510 C.ar   15  TYR15       0.0417
     40  CE2      -10.3620   26.5230   16.4200 C.ar   15  TYR15       0.0417
     41  CZ        -9.2610   27.3180   16.6620 C.ar   15  TYR15       0.1957
     42  OH        -9.1840   28.0320   17.8320 O.3    15  TYR15      -0.2866
     43  N         -5.2830   23.8380    5.9380 N.3    18  VAL18      -0.1245
     44  CA        -4.6700   25.1120    5.5490 C.3    18  VAL18       0.1561
     45  C         -3.9690   24.9210    4.2110 C.2    18  VAL18       0.2260
     46  O         -3.2490   23.9510    4.0180 O.2    18  VAL18      -0.2867
     47  CB        -3.6630   25.6010    6.5860 C.3    18  VAL18       0.0252
     48  CG1       -2.9570   26.8620    6.0370 C.3    18  VAL18       0.0019
     49  CG2       -4.3040   25.8950    7.9220 C.3    18  VAL18       0.0019
     50  N         -1.6390   26.7340    1.0720 N.3    20  LYS20      -0.1245
     51  CA        -0.8630   27.7570    0.4120 C.3    20  LYS20       0.1561
     52  C         -1.7230   28.0670   -0.8300 C.2    20  LYS20       0.2260
     53  O         -2.0980   27.1210   -1.5500 O.2    20  LYS20      -0.2867
     54  CB         0.5590   27.2820   -0.0080 C.3    20  LYS20       0.0271
     55  CG         1.2980   28.4200   -0.7720 C.3    20  LYS20       0.0035
     56  CD         2.8070   28.2650   -0.7160 C.3    20  LYS20       0.0206
     57  CE         3.5900   29.4770   -1.2240 C.3    20  LYS20       0.1093
     58  NZ         5.0150   29.1110   -1.5410 N.3    20  LYS20      -0.1314
     59  N         -2.1700   32.1090    2.8140 N.3    31  ALA31      -0.1245
     60  CA        -2.4930   30.8480    3.4830 C.3    31  ALA31       0.1562
     61  C         -4.0180   30.8620    3.6950 C.2    31  ALA31       0.2260
     62  O         -4.4500   31.7960    4.3960 O.2    31  ALA31      -0.2867
     63  CB        -1.7470   30.7660    4.8040 C.3    31  ALA31       0.0290
     64  N         -7.2670   29.1530    5.3170 N.3    33  LYS33      -0.1245
     65  CA        -7.6740   28.0990    6.2590 C.3    33  LYS33       0.1561
     66  C         -9.1770   27.8790    6.0720 C.2    33  LYS33       0.2260
     67  O         -9.9330   28.8570    6.1380 O.2    33  LYS33      -0.2867
     68  CB        -7.2670   28.5010    7.6740 C.3    33  LYS33       0.0271
     69  CG        -7.8720   27.7210    8.8090 C.3    33  LYS33       0.0035
     70  CD        -7.7300   28.4130   10.1610 C.3    33  LYS33       0.0206
     71  CE        -7.3980   27.3990   11.2550 C.3    33  LYS33       0.1093
     72  NZ        -6.9440   28.1320   12.4930 N.3    33  LYS33      -0.1314
     73  N          0.3650   37.4740   12.6360 N.3    56  VAL56      -0.1245
     74  CA         0.0560   37.0920   11.2730 C.3    56  VAL56       0.1561
     75  C         -1.2030   37.8520   10.8220 C.2    56  VAL56       0.2260
     76  O         -2.2450   37.7980   11.4520 O.2    56  VAL56      -0.2867
     77  CB        -0.1010   35.5790   11.0030 C.3    56  VAL56       0.0252
     78  CG1       -0.3340   35.3140    9.5120 C.3    56  VAL56       0.0019
     79  CG2        1.1880   34.8770   11.4010 C.3    56  VAL56       0.0019
     80  N         -4.9510   34.4700    5.3190 N.3    72  PHE72      -0.1227
     81  CA        -3.8720   35.1020    6.0560 C.3    72  PHE72       0.1736
     82  C         -2.7190   35.4610    5.1140 C.2    72  PHE72       0.2595
     83  O         -2.4990   34.8230    4.0740 O.2    72  PHE72      -0.2718
     84  CB        -3.2780   34.2770    7.2100 C.3    72  PHE72       0.0547
     85  CG        -4.2140   33.9630    8.3310 C.ar   72  PHE72      -0.0202
     86  CD1       -5.0230   32.8310    8.2650 C.ar   72  PHE72      -0.0042
     87  CD2       -4.3020   34.8050    9.4310 C.ar   72  PHE72      -0.0042
     88  CE1       -5.8760   32.5390    9.3170 C.ar   72  PHE72      -0.0003
     89  CE2       -5.1630   34.5190   10.4800 C.ar   72  PHE72      -0.0003
     90  CZ        -5.9340   33.3700   10.4240 C.ar   72  PHE72      -0.0000
     91  N         -1.8980   36.4090    5.5880 N.am   73  GLU73      -0.1965
     92  CA        -0.6050   36.6200    4.9050 C.3    73  GLU73       0.1733
     93  C          0.1380   35.2940    4.9760 C.2    73  GLU73       0.2616
     94  O         -0.0470   34.5270    5.9290 O.2    73  GLU73      -0.2715
     95  CB         0.1320   37.7230    5.6610 C.3    73  GLU73       0.0429
     96  CG         1.6090   37.7090    5.8480 C.3    73  GLU73       0.1163
     97  CD         2.1990   38.4030    7.0700 C.2    73  GLU73       0.3649
     98  OE1        3.3930   38.6960    6.9890 O.co2  73  GLU73      -0.2457
     99  OE2        1.6430   38.6150    8.1510 O.co2  73  GLU73      -0.2457
    100  N          1.0500   34.9590    4.0930 N.am   74  PHE74      -0.1960
    101  CA         1.7870   33.7180    4.1280 C.3    74  PHE74       0.1771
    102  C          3.2410   33.9050    4.5860 C.2    74  PHE74       0.2619
    103  O          3.9300   34.7880    4.0730 O.2    74  PHE74      -0.2715
    104  CB         1.8500   33.1200    2.7210 C.3    74  PHE74       0.0574
    105  CG         2.7200   31.9220    2.5520 C.ar   74  PHE74      -0.0200
    106  CD1        2.2220   30.6590    2.8220 C.ar   74  PHE74      -0.0042
    107  CD2        4.0260   32.0450    2.0840 C.ar   74  PHE74      -0.0042
    108  CE1        2.9970   29.5310    2.6480 C.ar   74  PHE74      -0.0003
    109  CE2        4.7950   30.9120    1.9300 C.ar   74  PHE74      -0.0003
    110  CZ         4.2980   29.6570    2.2050 C.ar   74  PHE74      -0.0000
    111  N          3.6380   33.0200    5.4970 N.am   75  LEU75      -0.1963
    112  CA         5.0060   32.9810    5.9320 C.3    75  LEU75       0.1728
    113  C          5.6050   31.6310    5.6000 C.2    75  LEU75       0.2616
    114  O          4.9690   30.5920    5.7190 O.2    75  LEU75      -0.2715
    115  CB         5.2280   33.3190    7.4290 C.3    75  LEU75       0.0311
    116  CG         5.2460   34.8490    7.6300 C.3    75  LEU75       0.0022
    117  CD1        3.8360   35.4040    7.8040 C.3    75  LEU75       0.0001
    118  CD2        6.0250   35.1960    8.9020 C.3    75  LEU75       0.0001
    119  N          6.9170   31.6420    5.2600 N.am   76  HIS76      -0.1959
    120  CA         7.5070   30.4180    4.7610 C.3    76  HIS76       0.1787
    121  C          7.9420   29.3660    5.7480 C.2    76  HIS76       0.2620
    122  O          8.2600   28.2460    5.2980 O.2    76  HIS76      -0.2715
    123  CB         8.7170   30.8080    3.8920 C.3    76  HIS76       0.0785
    124  CG         8.3570   31.3870    2.5570 C.ar   76  HIS76       0.0821
    125  ND1        8.0390   32.7120    2.3370 N.ar   76  HIS76      -0.2267
    126  CD2        8.3740   30.7720    1.3470 C.ar   76  HIS76       0.1154
    127  CE1        7.8490   32.9030    1.0460 C.ar   76  HIS76       0.1986
    128  NE2        8.0340   31.7390    0.4180 N.ar   76  HIS76      -0.2212
    129  N          8.0190   29.6640    7.0350 N.am   77  GLN77      -0.1963
    130  CA         8.4340   28.5570    7.9170 C.3    77  GLN77       0.1733
    131  C          7.8240   28.8530    9.3000 C.2    77  GLN77       0.2616
    132  O          7.4630   29.9930    9.5810 O.2    77  GLN77      -0.2715
    133  CB         9.9360   28.4670    7.9890 C.3    77  GLN77       0.0408
    134  CG        10.2890   27.0450    8.6040 C.3    77  GLN77       0.0908
    135  CD        11.7400   26.8230    8.2360 C.2    77  GLN77       0.2608
    136  OE1       12.0220   26.6320    7.0410 O.2    77  GLN77      -0.2717
    137  NE2       12.6250   26.9090    9.2090 N.am   77  GLN77      -0.0878
    138  N          7.7940   27.8190   10.1010 N.am   78  ASP78      -0.1971
    139  CA         7.2870   27.9740   11.4710 C.3    78  ASP78       0.1709
    140  C          8.4380   27.5770   12.4200 C.2    78  ASP78       0.2293
    141  O          9.4370   27.0110   11.9860 O.2    78  ASP78      -0.2864
    142  CB         6.0220   27.1720   11.6900 C.3    78  ASP78       0.1436
    143  CG         6.1190   25.6770   11.5940 C.2    78  ASP78       0.3671
    144  OD1        5.4090   25.1280   10.7430 O.co2  78  ASP78      -0.2456
    145  OD2        6.8590   24.9700   12.3050 O.co2  78  ASP78      -0.2456
    146  N          9.4290   23.7050   12.8570 N.3    81  LYS81      -0.1245
    147  CA        10.3320   23.2580   11.7920 C.3    81  LYS81       0.1561
    148  C         11.6860   23.9040   11.8780 C.2    81  LYS81       0.2260
    149  O         12.6810   23.2180   11.6470 O.2    81  LYS81      -0.2867
    150  CB         9.6830   23.6060   10.4310 C.3    81  LYS81       0.0271
    151  CG         8.3140   22.9470   10.3180 C.3    81  LYS81       0.0035
    152  CD         7.7590   23.0450    8.8850 C.3    81  LYS81       0.0206
    153  CE         6.2700   22.6570    8.8750 C.3    81  LYS81       0.1093
    154  NZ         5.9390   21.8850    7.6420 N.3    81  LYS81      -0.1314
    155  N          4.5640   25.4760   16.3550 N.3   123  GLN123     -0.1231
    156  CA         3.9610   25.3190   15.0300 C.3   123  GLN123      0.1698
    157  C          3.1650   26.5690   14.6160 C.2   123  GLN123      0.2592
    158  O          2.9920   26.7640   13.3950 O.2   123  GLN123     -0.2718
    159  CB         2.8520   24.2630   15.0910 C.3   123  GLN123      0.0381
    160  CG         3.0600   22.8230   15.4380 C.3   123  GLN123      0.0905
    161  CD         2.2400   21.9490   14.4890 C.2   123  GLN123      0.2608
    162  OE1        2.7480   21.5270   13.4490 O.2   123  GLN123     -0.2717
    163  NE2        0.9890   21.7550   14.9080 N.am  123  GLN123     -0.0878
    164  N          2.5950   27.3240   15.5500 N.am  124  ASN124     -0.1974
    165  CA         1.8650   28.5560   15.1850 C.3   124  ASN124      0.1688
    166  C          2.5960   29.8550   15.4650 C.2   124  ASN124      0.2292
    167  O          2.0160   30.9300   15.6150 O.2   124  ASN124     -0.2864
    168  CB         0.4440   28.5030   15.7200 C.3   124  ASN124      0.1181
    169  CG        -0.1930   27.1740   15.3390 C.2   124  ASN124      0.2629
    170  OD1       -0.2030   26.7800   14.1650 O.2   124  ASN124     -0.2716
    171  ND2       -0.7410   26.3440   16.1880 N.am  124  ASN124     -0.0877
    172  N          5.2570   31.8980   13.3200 N.3   126  LEU126     -0.1245
    173  CA         5.7880   31.8160   11.9480 C.3   126  LEU126      0.1561
    174  C          6.8960   32.8220   11.7370 C.2   126  LEU126      0.2260
    175  O          6.8390   33.8800   12.3050 O.2   126  LEU126     -0.2867
    176  CB         4.6390   32.2290   11.0010 C.3   126  LEU126      0.0270
    177  CG         3.2820   31.5680   11.2410 C.3   126  LEU126      0.0019
    178  CD1        2.3420   32.1700   10.1940 C.3   126  LEU126      0.0001
    179  CD2        3.4340   30.0670   11.0660 C.3   126  LEU126      0.0001
    180  N          0.3930   33.2160   15.3890 N.3   136  ALA136     -0.1231
    181  CA        -0.6420   32.8060   14.4220 C.3   136  ALA136      0.1694
    182  C         -1.6810   31.9340   15.1310 C.2   136  ALA136      0.2592
    183  O         -1.4330   31.4310   16.2460 O.2   136  ALA136     -0.2718
    184  CB        -0.1480   32.1270   13.1840 C.3   136  ALA136      0.0304
    185  N         -2.8670   31.7960   14.5780 N.am  137  ASP137     -0.1974
    186  CA        -3.9990   31.0710   15.1780 C.3   137  ASP137      0.1709
    187  C         -4.7370   31.9790   16.1870 C.2   137  ASP137      0.2293
    188  O         -5.6510   31.6590   16.9200 O.2   137  ASP137     -0.2864
    189  CB        -3.5960   29.9640   16.1350 C.3   137  ASP137      0.1436
    190  CG        -3.1560   28.6650   15.5380 C.2   137  ASP137      0.3671
    191  OD1       -3.0040   28.6480   14.3050 O.co2 137  ASP137     -0.2456
    192  OD2       -2.9550   27.6690   16.2690 O.co2 137  ASP137     -0.2456
    193  N         -8.6400   32.9500   17.5470 N.3   140  LEU140     -0.1301
    194  CA        -9.5720   31.9460   17.0830 C.3   140  LEU140      0.1247
    195  C        -10.0230   30.9950   18.1740 C.3   140  LEU140      0.2009
    196  O        -10.9240   30.2150   17.8270 O.3   140  LEU140     -0.2188
    197  CB        -8.9310   31.1620   15.9290 C.3   140  LEU140      0.0217
    198  CG        -8.4080   31.9900   14.7470 C.3   140  LEU140      0.0015
    199  CD1       -7.9450   31.0910   13.6150 C.3   140  LEU140      0.0000
    200  CD2       -9.4670   32.9480   14.2210 C.3   140  LEU140      0.0000
    201  N         13.8440   26.9050    1.9400 N.3   278  LEU278     -0.1245
    202  CA        12.4930   26.4760    1.6660 C.3   278  LEU278      0.1561
    203  C         11.8820   25.5180    0.6740 C.2   278  LEU278      0.2260
    204  O         12.5910   24.8790   -0.1160 O.2   278  LEU278     -0.2867
    205  CB        11.8440   27.8660    1.2740 C.3   278  LEU278      0.0270
    206  CG        12.0480   28.8710    2.4200 C.3   278  LEU278      0.0019
    207  CD1       11.8940   30.3090    2.0150 C.3   278  LEU278      0.0001
    208  CD2       11.1900   28.5050    3.6260 C.3   278  LEU278      0.0001
@<TRIPOS>BOND
     1     1     2    1
     2     8     7   ar
     3     2     5    1
     4     2     3    1
     5    53    52    2
     6    58    57    1
     7     5     6    2
     8    57    56    1
     9     6     7    1
    10     7     9   ar
    11    52    51    1
    12    55    56    1
    13    55    54    1
    14     3     4    2
    15     3    10   am
    16   204   203    2
    17    54    51    1
    18    10    11    1
    19    51    50    1
    20   128   127   ar
    21   128   126   ar
    22   203   202    1
    23   127   125   ar
    24   205   202    1
    25   205   206    1
    26   126   124   ar
    27    11    14    1
    28    11    12    1
    29   202   201    1
    30    14    15    1
    31   109   107   ar
    32   109   110   ar
    33   207   206    1
    34   107   105   ar
    35   110   108   ar
    36    17    18    1
    37    17    16    1
    38   125   124   ar
    39    13    12    2
    40   206   208    1
    41   105   104    1
    42   105   106   ar
    43    12    19   am
    44   124   123    1
    45   108   106   ar
    46   104   101    1
    47    59    60    1
    48    16    15    1
    49    19    20    1
    50    60    61    1
    51    60    63    1
    52    24    26    1
    53    24    23    1
    54    61    62    2
    55   123   120    1
    56    46    45    2
    57   103   102    2
    58    83    82    2
    59   100   101    1
    60   100    93   am
    61   101   102    1
    62    45    44    1
    63    20    23    1
    64    20    21    1
    65   102   111   am
    66    23    25    1
    67   120   119    1
    68   120   121    1
    69    92    93    1
    70    92    91    1
    71    92    95    1
    72    93    94    2
    73    82    91   am
    74    82    81    1
    75   119   113   am
    76   122   121    2
    77    64    65    1
    78    80    81    1
    79   111   112    1
    80    44    43    1
    81    44    47    1
    82   113   114    2
    83   113   112    1
    84    95    96    1
    85    21    22    2
    86   121   129   am
    87    96    97    1
    88   112   115    1
    89    48    47    1
    90    81    84    1
    91    66    67    2
    92    66    65    1
    93    65    68    1
    94    47    49    1
    95    98    97   ar
    96   129   130    1
    97   136   135    2
    98    97    99   ar
    99    84    85    1
   100   115   116    1
   101   116   117    1
   102   116   118    1
   103   154   153    1
   104    68    69    1
   105   130   133    1
   106   130   131    1
   107   133   134    1
   108   135   134    1
   109   135   137   am
   110    86    85   ar
   111    86    88   ar
   112    85    87   ar
   113    69    70    1
   114   153   152    1
   115   152   151    1
   116   131   132    2
   117   131   138   am
   118    88    90   ar
   119    87    89   ar
   120    78    77    1
   121   138   139    1
   122    70    71    1
   123   178   177    1
   124   151   150    1
   125    90    89   ar
   126   150   147    1
   127   144   143   ar
   128    75    74    1
   129    75    76    2
   130   176   177    1
   131   176   173    1
   132    77    74    1
   133    77    79    1
   134    27    28    1
   135   179   177    1
   136    34    33    2
   137    71    72    1
   138    74    73    1
   139   139   142    1
   140   139   140    1
   141    33    32    1
   142   143   142    1
   143   143   145   ar
   144   149   148    2
   145   174   173    1
   146   174   175    2
   147   147   148    1
   148   147   146    1
   149   173   172    1
   150   141   140    2
   151    28    29    1
   152    32    31    1
   153    32    35    1
   154    35    36    1
   155   184   181    1
   156    29    30    2
   157   158   157    2
   158   162   161    2
   159   199   198    1
   160   170   169    2
   161   200   198    1
   162   191   190   ar
   163    36    37   ar
   164    36    38   ar
   165   181   182    1
   166   181   180    1
   167   161   163   am
   168   161   160    1
   169   185   182   am
   170   185   186    1
   171    37    39   ar
   172   157   156    1
   173   157   164   am
   174   198   197    1
   175   156   159    1
   176   156   155    1
   177   159   160    1
   178   182   183    2
   179   186   189    1
   180   186   187    1
   181   165   166    1
   182   165   164    1
   183   165   168    1
   184    38    40   ar
   185   169   168    1
   186   169   171   am
   187   166   167    2
   188   190   189    1
   189   190   192   ar
   190    39    41   ar
   191   197   194    1
   192   187   188    2
   193    40    41   ar
   194    41    42    1
   195   194   193    1
   196   194   195    1
   197   196   195    1
