@<TRIPOS>MOLECULE
tmp/3igbA00.pdb
 167 157 0 0 0
SMALL
GASTEIGER

@<TRIPOS>ATOM
      1  N          5.2620   -0.6970   13.0440 N.3    15  GLN15      -0.1245
      2  CA         5.2610   -2.1480   13.2030 C.3    15  GLN15       0.1566
      3  C          6.1890   -2.8510   12.2080 C.2    15  GLN15       0.2260
      4  O          6.1720   -4.0750   12.0810 O.2    15  GLN15      -0.2867
      5  CB         3.8340   -2.7040   13.1430 C.3    15  GLN15       0.0367
      6  CG         2.9400   -2.2460   14.3070 C.3    15  GLN15       0.0905
      7  CD         1.5260   -2.7840   14.2120 C.2    15  GLN15       0.2608
      8  OE1        1.0730   -3.1800   13.1340 O.2    15  GLN15      -0.2717
      9  NE2        0.8140   -2.7970   15.3390 N.am   15  GLN15      -0.0878
     10  N          9.3030   -9.6560    7.9970 N.3    33  LEU33      -0.1245
     11  CA         9.9290   -8.3810    8.3580 C.3    33  LEU33       0.1561
     12  C         11.3460   -8.2850    7.8070 C.2    33  LEU33       0.2260
     13  O         12.1590   -9.1980    7.9500 O.2    33  LEU33      -0.2867
     14  CB         9.9740   -8.2120    9.8760 C.3    33  LEU33       0.0270
     15  CG        10.5640   -6.9060   10.4010 C.3    33  LEU33       0.0019
     16  CD1        9.6030   -5.7600   10.1650 C.3    33  LEU33       0.0001
     17  CD2       10.8680   -7.0420   11.8810 C.3    33  LEU33       0.0001
     18  N         14.7420   -6.9570    8.2880 N.3    35  ASP35      -0.1239
     19  CA        15.4180   -6.5760    9.5230 C.3    35  ASP35       0.1674
     20  C         16.9320   -6.5470    9.3510 C.2    35  ASP35       0.2266
     21  O         17.5680   -7.6010    9.3340 O.2    35  ASP35      -0.2867
     22  CB        15.0650   -7.5760   10.6210 C.3    35  ASP35       0.1410
     23  CG        15.5110   -7.1180   11.9930 C.2    35  ASP35       0.3668
     24  OD1       15.8460   -5.9250   12.1380 O.co2  35  ASP35      -0.2456
     25  OD2       15.5180   -7.9430   12.9310 O.co2  35  ASP35      -0.2456
     26  N         18.9210   -5.5260   11.4830 N.3    37  GLY37      -0.1210
     27  CA        19.4620   -5.4850   12.8310 C.3    37  GLY37       0.1956
     28  C         19.5590   -6.8600   13.4630 C.2    37  GLY37       0.2612
     29  O         19.8720   -6.9980   14.6450 O.2    37  GLY37      -0.2717
     30  N         19.2720   -7.8830   12.6710 N.am   38  SER38      -0.1952
     31  CA        19.4300   -9.2670   13.1120 C.3    38  SER38       0.1924
     32  C         19.8320  -10.1120   11.9200 C.2    38  SER38       0.2314
     33  O         19.8420   -9.6330   10.7760 O.2    38  SER38      -0.2863
     34  CB        18.1410   -9.8030   13.7240 C.3    38  SER38       0.2116
     35  OG        17.1250   -9.9250   12.7380 O.3    38  SER38      -0.2180
     36  N         18.9760  -13.8230   11.6460 N.3    40  ASN40      -0.1240
     37  CA        18.2850  -15.0970   11.4580 C.3    40  ASN40       0.1653
     38  C         17.0530  -14.9870   10.5670 C.2    40  ASN40       0.2266
     39  O         16.2610  -14.0650   10.7100 O.2    40  ASN40      -0.2867
     40  CB        17.8700  -15.7110   12.7950 C.3    40  ASN40       0.1155
     41  CG        19.0240  -16.3900   13.5190 C.2    40  ASN40       0.2627
     42  OD1       19.8000  -15.7340   14.2030 O.2    40  ASN40      -0.2716
     43  ND2       19.1170  -17.7170   13.3940 N.am   40  ASN40      -0.0877
     44  N         16.4500  -18.0760   21.9070 N.3    72  VAL72      -0.1245
     45  CA        16.9410  -16.7190   21.7240 C.3    72  VAL72       0.1561
     46  C         16.2600  -15.7210   22.6450 C.2    72  VAL72       0.2260
     47  O         15.2740  -15.0970   22.2560 O.2    72  VAL72      -0.2867
     48  CB        16.7350  -16.2430   20.2750 C.3    72  VAL72       0.0252
     49  CG1       17.3440  -14.8600   20.0850 C.3    72  VAL72       0.0019
     50  CG2       17.3390  -17.2380   19.2980 C.3    72  VAL72       0.0019
     51  N         16.3260  -12.0620   24.7030 N.3    74  TYR74      -0.1241
     52  CA        16.8160  -10.7510   24.2910 C.3    74  TYR74       0.1605
     53  C         16.1110   -9.5970   25.0100 C.2    74  TYR74       0.2264
     54  O         15.1840   -9.8040   25.7960 O.2    74  TYR74      -0.2867
     55  CB        16.6760  -10.5970   22.7730 C.3    74  TYR74       0.0534
     56  CG        15.2480  -10.4460   22.3010 C.ar   74  TYR74      -0.0201
     57  CD1       14.6440   -9.1980   22.2600 C.ar   74  TYR74      -0.0009
     58  CD2       14.5050  -11.5470   21.8950 C.ar   74  TYR74      -0.0009
     59  CE1       13.3440   -9.0490   21.8320 C.ar   74  TYR74       0.0417
     60  CE2       13.1970  -11.4030   21.4610 C.ar   74  TYR74       0.0417
     61  CZ        12.6250  -10.1520   21.4350 C.ar   74  TYR74       0.1957
     62  OH        11.3280   -9.9940   21.0070 O.3    74  TYR74      -0.2866
     63  N         12.3170  -15.6770   21.3430 N.3    76  TRP76      -0.1241
     64  CA        11.7280  -16.7000   20.4920 C.3    76  TRP76       0.1605
     65  C         12.6120  -17.9340   20.4950 C.2    76  TRP76       0.2264
     66  O         13.8310  -17.8370   20.5770 O.2    76  TRP76      -0.2867
     67  CB        11.5020  -16.1950   19.0600 C.3    76  TRP76       0.0550
     68  CG        12.7520  -15.9910   18.2640 C.ar   76  TRP76       0.0003
     69  CD1       13.4230  -14.8130   18.0790 C.ar   76  TRP76       0.0946
     70  CD2       13.4760  -16.9830   17.5240 C.ar   76  TRP76       0.0152
     71  NE1       14.5220  -15.0140   17.2790 N.ar   76  TRP76      -0.2442
     72  CE2       14.5790  -16.3380   16.9290 C.ar   76  TRP76       0.0810
     73  CE3       13.3080  -18.3540   17.3200 C.ar   76  TRP76       0.0012
     74  CZ2       15.5030  -17.0160   16.1440 C.ar   76  TRP76       0.0191
     75  CZ3       14.2270  -19.0250   16.5430 C.ar   76  TRP76       0.0001
     76  CH2       15.3100  -18.3570   15.9620 C.ar   76  TRP76       0.0015
     77  N          6.3070  -11.9030   23.3690 N.3   107  LYS107     -0.1231
     78  CA         6.3740  -10.5050   22.9420 C.3   107  LYS107      0.1693
     79  C          7.2360  -10.3340   21.6910 C.2   107  LYS107      0.2592
     80  O          7.9250   -9.3250   21.5260 O.2   107  LYS107     -0.2718
     81  CB         6.8890   -9.6090   24.0810 C.3   107  LYS107      0.0285
     82  CG         5.7990   -9.1620   25.0640 C.3   107  LYS107      0.0035
     83  CD         6.3730   -8.5020   26.3180 C.3   107  LYS107      0.0206
     84  CE         6.9110   -9.5400   27.3070 C.3   107  LYS107      0.1093
     85  NZ         7.3350   -8.9350   28.6110 N.3   107  LYS107     -0.1314
     86  N          7.1950  -11.3260   20.8110 N.am  108  PHE108     -0.1976
     87  CA         8.0050  -11.2910   19.6080 C.3   108  PHE108      0.1639
     88  C          7.1580  -10.8340   18.4280 C.2   108  PHE108      0.2290
     89  O          7.4730   -9.8420   17.7690 O.2   108  PHE108     -0.2864
     90  CB         8.6310  -12.6600   19.3500 C.3   108  PHE108      0.0560
     91  CG         9.3730  -12.7500   18.0540 C.ar  108  PHE108     -0.0200
     92  CD1       10.6390  -12.2040   17.9210 C.ar  108  PHE108     -0.0042
     93  CD2        8.8020  -13.3800   16.9630 C.ar  108  PHE108     -0.0042
     94  CE1       11.3150  -12.2860   16.7250 C.ar  108  PHE108     -0.0003
     95  CE2        9.4750  -13.4600   15.7630 C.ar  108  PHE108     -0.0003
     96  CZ        10.7320  -12.9170   15.6440 C.ar  108  PHE108     -0.0000
     97  N          3.9300   -9.1180   16.6250 N.3   110  ILE110     -0.1245
     98  CA         3.1780   -7.9170   16.9280 C.3   110  ILE110      0.1561
     99  C          1.7380   -8.0480   16.4440 C.2   110  ILE110      0.2260
    100  O          1.4880   -8.4450   15.3020 O.2   110  ILE110     -0.2867
    101  CB         3.8590   -6.6830   16.3270 C.3   110  ILE110      0.0252
    102  CG1        5.3100   -6.6210   16.8210 C.3   110  ILE110      0.0019
    103  CG2        3.0920   -5.4220   16.7000 C.3   110  ILE110      0.0019
    104  CD1        6.1450   -5.5180   16.2130 C.3   110  ILE110      0.0001
    105  N          2.8390   -9.4240    9.5630 N.3   115  TRP115     -0.1241
    106  CA         3.9490  -10.3100    9.1830 C.3   115  TRP115      0.1605
    107  C          4.0400  -11.5170   10.0970 C.2   115  TRP115      0.2264
    108  O          3.6410  -11.4590   11.2640 O.2   115  TRP115     -0.2867
    109  CB         5.3110   -9.5930    9.0810 C.3   115  TRP115      0.0550
    110  CG         5.6970   -8.7450   10.2660 C.ar  115  TRP115      0.0003
    111  CD1        5.5170   -7.4020   10.3940 C.ar  115  TRP115      0.0946
    112  CD2        6.3340   -9.1810   11.4770 C.ar  115  TRP115      0.0152
    113  NE1        5.9980   -6.9720   11.6030 N.ar  115  TRP115     -0.2442
    114  CE2        6.5020   -8.0440   12.2890 C.ar  115  TRP115      0.0810
    115  CE3        6.7840  -10.4200   11.9500 C.ar  115  TRP115      0.0012
    116  CZ2        7.0980   -8.1050   13.5490 C.ar  115  TRP115      0.0191
    117  CZ3        7.3850  -10.4780   13.2080 C.ar  115  TRP115      0.0001
    118  CH2        7.5340   -9.3290   13.9880 C.ar  115  TRP115      0.0015
    119  N         10.6850  -13.1380   10.3440 N.3   118  ILE118     -0.1245
    120  CA        11.7010  -12.1020   10.2630 C.3   118  ILE118      0.1561
    121  C         12.8430  -12.5050    9.3510 C.2   118  ILE118      0.2260
    122  O         13.3110  -13.6450    9.3800 O.2   118  ILE118     -0.2867
    123  CB        12.2680  -11.7810   11.6590 C.3   118  ILE118      0.0252
    124  CG1       11.2370  -11.0010   12.4660 C.3   118  ILE118      0.0019
    125  CG2       13.5540  -10.9750   11.5490 C.3   118  ILE118      0.0019
    126  CD1       11.7940  -10.4260   13.7440 C.3   118  ILE118      0.0001
    127  N         22.0990  -16.6660   15.5890 N.3   128  ARG128     -0.1245
    128  CA        21.8630  -17.6360   16.6530 C.3   128  ARG128      0.1563
    129  C         21.6770  -19.0140   16.0210 C.2   128  ARG128      0.2260
    130  O         21.0690  -19.1200   14.9570 O.2   128  ARG128     -0.2867
    131  CB        20.6020  -17.2600   17.4330 C.3   128  ARG128      0.0307
    132  CG        20.5890  -15.8490   17.9870 C.3   128  ARG128      0.0489
    133  CD        21.7550  -15.5910   18.9390 C.3   128  ARG128      0.2205
    134  NE        21.4500  -14.4910   19.8540 N.pl3 128  ARG128     -0.0865
    135  CZ        21.6300  -13.2020   19.5740 C.cat 128  ARG128      0.5346
    136  NH1       22.1330  -12.8310   18.3980 N.pl3 128  ARG128      0.1354
    137  NH2       21.3140  -12.2790   20.4770 N.pl3 128  ARG128      0.1354
    138  N         19.4110    0.0690   11.3830 N.3   222  ASP222     -0.1239
    139  CA        18.5280   -1.0500   11.6970 C.3   222  ASP222      0.1674
    140  C         17.0950   -0.8110   11.2780 C.2   222  ASP222      0.2266
    141  O         16.3670   -0.0680   11.9200 O.2   222  ASP222     -0.2867
    142  CB        18.6000   -1.3860   13.1880 C.3   222  ASP222      0.1410
    143  CG        17.6900   -2.5190   13.5690 C.2   222  ASP222      0.3668
    144  OD1       17.1570   -3.1910   12.6610 O.co2 222  ASP222     -0.2456
    145  OD2       17.4950   -2.7380   14.7800 O.co2 222  ASP222     -0.2456
    146  N         14.7860   -2.8320   11.4000 N.3   224  GLY224     -0.1210
    147  CA        13.8960   -3.4860   12.3450 C.3   224  GLY224      0.1956
    148  C         13.6330   -2.6630   13.5960 C.2   224  GLY224      0.2612
    149  O         12.9250   -3.1080   14.4980 O.2   224  GLY224     -0.2717
    150  N         14.2210   -1.4740   13.6630 N.am  225  THR225     -0.1952
    151  CA        13.9530   -0.5330   14.7490 C.3   225  THR225      0.1897
    152  C         13.1740    0.6350   14.1510 C.2   225  THR225      0.2313
    153  O         13.4810    1.0980   13.0560 O.2   225  THR225     -0.2863
    154  CB        15.2790   -0.0620   15.4370 C.3   225  THR225      0.1794
    155  OG1       15.9070   -1.1820   16.0790 O.3   225  THR225     -0.2208
    156  CG2       15.0240    1.0290   16.4790 C.3   225  THR225      0.0378
    157  N         17.4090    5.9470   17.7910 N.3   229  ARG229     -0.1245
    158  CA        17.7630    5.7130   19.1820 C.3   229  ARG229      0.1563
    159  C         19.1800    6.2210   19.4480 C.2   229  ARG229      0.2260
    160  O         20.1050    5.9480   18.6760 O.2   229  ARG229     -0.2867
    161  CB        17.5990    4.2290   19.5480 C.3   229  ARG229      0.0307
    162  CG        16.2100    3.6810   19.2260 C.3   229  ARG229      0.0489
    163  CD        15.9970    2.2400   19.7300 C.3   229  ARG229      0.2205
    164  NE        15.9780    2.1720   21.1900 N.pl3 229  ARG229     -0.0865
    165  CZ        16.8700    1.5100   21.9200 C.cat 229  ARG229      0.5346
    166  NH1       17.8470    0.8290   21.3280 N.pl3 229  ARG229      0.1354
    167  NH2       16.7770    1.5140   23.2410 N.pl3 229  ARG229      0.1354
@<TRIPOS>BOND
     1    12    13    2
     2    12    11    1
     3    10    11    1
     4    18    19    1
     5    11    14    1
     6   109   106    1
     7   109   110    1
     8   106   105    1
     9   106   107    1
    10    21    20    2
    11    20    19    1
    12   121   122    2
    13   121   120    1
    14    19    22    1
    15    14    15    1
    16   107   108    2
    17    16    15    1
    18   120   119    1
    19   120   123    1
    20   110   111   ar
    21   110   112   ar
    22   111   113   ar
    23    15    17    1
    24    38    39    2
    25    38    37    1
    26    22    23    1
    27    33    32    2
    28   140   139    1
    29   140   141    2
    30   138   139    1
    31   146   147    1
    32    37    36    1
    33    37    40    1
    34   112   115   ar
    35   112   114   ar
    36    26    27    1
    37   125   123    1
    38   113   114   ar
    39   123   124    1
    40   139   142    1
    41    32    31    1
    42   115   117   ar
    43    23    24   ar
    44    23    25   ar
    45     4     3    2
    46     3     2    1
    47   114   116   ar
    48   147   148    1
    49   124   126    1
    50   144   143   ar
    51    30    31    1
    52    30    28   am
    53    35    34    1
    54    40    41    1
    55    27    28    1
    56     1     2    1
    57   153   152    2
    58    31    34    1
    59     8     7    2
    60     5     2    1
    61     5     6    1
    62   142   143    1
    63   117   118   ar
    64    43    41   am
    65    28    29    2
    66    41    42    2
    67   116   118   ar
    68   143   145   ar
    69   148   150   am
    70   148   149    2
    71   150   151    1
    72   152   151    1
    73     7     6    1
    74     7     9   am
    75   151   154    1
    76   130   129    2
    77   100    99    2
    78   154   155    1
    79   154   156    1
    80   127   128    1
    81    96    95   ar
    82    96    94   ar
    83    95    93   ar
    84    76    74   ar
    85    76    75   ar
    86   129   128    1
    87    74    72   ar
    88   104   102    1
    89   101   103    1
    90   101   102    1
    91   101    98    1
    92    99    98    1
    93    75    73   ar
    94    97    98    1
    95   128   131    1
    96    94    92   ar
    97    72    71   ar
    98    72    70   ar
    99    93    91   ar
   100    71    69   ar
   101    73    70   ar
   102   131   132    1
   103    70    68   ar
   104    89    88    2
   105   157   158    1
   106    92    91   ar
   107   132   133    1
   108    91    90    1
   109    69    68   ar
   110    68    67    1
   111   136   135    1
   112    88    87    1
   113   160   159    2
   114   133   134    1
   115    67    64    1
   116   158   159    1
   117   158   161    1
   118   162   161    1
   119   162   163    1
   120    50    48    1
   121    90    87    1
   122   135   134    2
   123   135   137    1
   124    87    86    1
   125   163   164    1
   126    49    48    1
   127    48    45    1
   128    64    65    1
   129    64    63    1
   130    65    66    2
   131    86    79   am
   132    62    61    1
   133   164   165    2
   134   166   165    1
   135    61    60   ar
   136    61    59   ar
   137    60    58   ar
   138    80    79    2
   139    79    78    1
   140    45    44    1
   141    45    46    1
   142    59    57   ar
   143    58    56   ar
   144   165   167    1
   145    47    46    2
   146    57    56   ar
   147    56    55    1
   148    55    52    1
   149    78    77    1
   150    78    81    1
   151    81    82    1
   152    52    51    1
   153    52    53    1
   154    53    54    2
   155    82    83    1
   156    83    84    1
   157    84    85    1
