@<TRIPOS>MOLECULE
tmp/3iggA00.pdb
 168 160 0 0 0
SMALL
GASTEIGER

@<TRIPOS>ATOM
      1  N         -0.6230   25.2970   -2.2450 N.3     8  GLU8       -0.1231
      2  CA        -0.2790   24.0770   -1.5250 C.3     8  GLU8        0.1699
      3  C         -0.8770   24.0820   -0.1270 C.2     8  GLU8        0.2592
      4  O         -1.2160   25.1330    0.4200 O.2     8  GLU8       -0.2718
      5  CB         1.2370   23.8850   -1.4730 C.3     8  GLU8        0.0402
      6  CG         1.9620   24.9740   -0.6970 C.3     8  GLU8        0.1161
      7  CD         3.4590   24.7490   -0.6910 C.2     8  GLU8        0.3649
      8  OE1        4.1210   25.0220   -1.7100 O.co2   8  GLU8       -0.2457
      9  OE2        3.9750   24.3000    0.3450 O.co2   8  GLU8       -0.2457
     10  N         -1.0450   22.8770    0.4110 N.am    9  LYS9       -0.1966
     11  CA        -1.5400   22.7160    1.7760 C.3     9  LYS9        0.1728
     12  C         -0.3920   23.1130    2.7010 C.2     9  LYS9        0.2616
     13  O          0.7270   22.6340    2.4710 O.2     9  LYS9       -0.2715
     14  CB        -1.9670   21.2730    2.0500 C.3     9  LYS9        0.0311
     15  CG        -2.8870   21.1160    3.2450 C.3     9  LYS9        0.0038
     16  CD        -3.2250   19.6620    3.5700 C.3     9  LYS9        0.0206
     17  CE        -3.7550   19.5690    4.9930 C.3     9  LYS9        0.1093
     18  NZ        -4.6130   18.3770    5.2500 N.3     9  LYS9       -0.1314
     19  N         -0.6080   24.0230    3.6290 N.am   10  ILE10      -0.1977
     20  CA         0.4020   24.4630    4.5830 C.3    10  ILE10       0.1596
     21  C          0.3460   23.5330    5.7940 C.2    10  ILE10       0.2287
     22  O          1.3720   23.2500    6.4090 O.2    10  ILE10      -0.2864
     23  CB         0.0770   25.8870    5.0840 C.3    10  ILE10       0.0276
     24  CG1        0.7130   26.9210    4.1690 C.3    10  ILE10       0.0022
     25  CG2        0.4070   26.1600    6.5410 C.3    10  ILE10       0.0022
     26  CD1        0.3500   28.3510    4.4650 C.3    10  ILE10       0.0001
     27  N         -5.2940   24.9700    6.4300 N.3    18  VAL18      -0.1245
     28  CA        -4.5900   26.1590    5.9450 C.3    18  VAL18       0.1561
     29  C         -3.9110   25.8920    4.6180 C.2    18  VAL18       0.2260
     30  O         -3.1410   24.9470    4.4770 O.2    18  VAL18      -0.2867
     31  CB        -3.5360   26.6990    6.9310 C.3    18  VAL18       0.0252
     32  CG1       -2.8780   27.9670    6.3710 C.3    18  VAL18       0.0019
     33  CG2       -4.1350   27.0440    8.2840 C.3    18  VAL18       0.0019
     34  N         -1.6030   27.6550    1.2290 N.3    20  LYS20      -0.1245
     35  CA        -0.8650   28.8210    0.7050 C.3    20  LYS20       0.1561
     36  C         -1.6920   29.1060   -0.5660 C.2    20  LYS20       0.2260
     37  O         -2.0330   28.1270   -1.2180 O.2    20  LYS20      -0.2867
     38  CB         0.5650   28.5200    0.3090 C.3    20  LYS20       0.0271
     39  CG         1.3820   29.7020   -0.2090 C.3    20  LYS20       0.0035
     40  CD         2.8220   29.2170   -0.5080 C.3    20  LYS20       0.0206
     41  CE         3.6550   30.3600   -1.0520 C.3    20  LYS20       0.1093
     42  NZ         5.0990   29.9640   -1.1980 N.3    20  LYS20      -0.1314
     43  N         -2.1560   33.1790    3.1480 N.3    31  ALA31      -0.1245
     44  CA        -2.4220   31.9130    3.8050 C.3    31  ALA31       0.1562
     45  C         -3.9670   31.9510    3.9880 C.2    31  ALA31       0.2260
     46  O         -4.4110   32.9250    4.5470 O.2    31  ALA31      -0.2867
     47  CB        -1.8160   31.7720    5.1850 C.3    31  ALA31       0.0290
     48  N         -7.1490   30.1440    5.6780 N.3    33  LYS33      -0.1245
     49  CA        -7.5760   29.1550    6.6590 C.3    33  LYS33       0.1561
     50  C         -9.0630   28.8550    6.4570 C.2    33  LYS33       0.2260
     51  O         -9.8650   29.7810    6.4340 O.2    33  LYS33      -0.2867
     52  CB        -7.3300   29.6860    8.0640 C.3    33  LYS33       0.0271
     53  CG        -7.5540   28.6080    9.1310 C.3    33  LYS33       0.0035
     54  CD        -7.0550   29.1320   10.4670 C.3    33  LYS33       0.0206
     55  CE        -6.5420   27.9980   11.3460 C.3    33  LYS33       0.1093
     56  NZ        -5.7610   28.5790   12.4770 N.3    33  LYS33      -0.1314
     57  N          0.5120   38.3920   13.0630 N.3    56  VAL56      -0.1245
     58  CA         0.1780   38.0120   11.6950 C.3    56  VAL56       0.1561
     59  C         -1.1070   38.7240   11.2670 C.2    56  VAL56       0.2260
     60  O         -2.1520   38.5340   11.8650 O.2    56  VAL56      -0.2867
     61  CB         0.0480   36.4830   11.5680 C.3    56  VAL56       0.0252
     62  CG1       -0.4640   36.0990   10.2000 C.3    56  VAL56       0.0019
     63  CG2        1.4430   35.8810   11.8180 C.3    56  VAL56       0.0019
     64  N         -4.9220   35.5130    5.6990 N.3    72  PHE72      -0.1227
     65  CA        -3.8510   36.0740    6.4870 C.3    72  PHE72       0.1736
     66  C         -2.6250   36.3970    5.6270 C.2    72  PHE72       0.2598
     67  O         -2.3920   35.8340    4.5650 O.2    72  PHE72      -0.2717
     68  CB        -3.3290   35.0420    7.5320 C.3    72  PHE72       0.0547
     69  CG        -4.2930   34.7100    8.6260 C.ar   72  PHE72      -0.0202
     70  CD1       -5.0720   33.5620    8.5920 C.ar   72  PHE72      -0.0042
     71  CD2       -4.3910   35.5560    9.7210 C.ar   72  PHE72      -0.0042
     72  CE1       -5.9250   33.2630    9.6360 C.ar   72  PHE72      -0.0003
     73  CE2       -5.2410   35.2620   10.7630 C.ar   72  PHE72      -0.0003
     74  CZ        -5.9950   34.1120   10.7190 C.ar   72  PHE72      -0.0000
     75  N         -1.8700   37.3800    6.1290 N.am   73  GLU73      -0.1920
     76  CA        -0.5540   37.6420    5.5220 C.3    73  GLU73       0.1949
     77  C          0.2150   36.3210    5.5300 C.2    73  GLU73       0.2659
     78  O          0.0170   35.5530    6.4930 O.2    73  GLU73      -0.2711
     79  CB         0.0820   38.6620    6.4700 C.2    73  GLU73       0.0111
     80  CG         1.5560   38.7100    6.5690 C.2    73  GLU73       0.0838
     81  CD         2.1250   39.5490    7.6960 C.2    73  GLU73       0.3877
     82  OE1        3.3050   39.8900    7.4660 O.co2  73  GLU73      -0.2406
     83  OE2        1.5260   39.8670    8.7410 O.co2  73  GLU73      -0.2406
     84  N          1.0630   35.9960    4.5800 N.am   74  PHE74      -0.1957
     85  CA         1.8000   34.7400    4.5710 C.3    74  PHE74       0.1771
     86  C          3.2550   34.8980    5.0400 C.2    74  PHE74       0.2619
     87  O          3.9330   35.8300    4.5970 O.2    74  PHE74      -0.2715
     88  CB         1.9030   34.1770    3.1360 C.3    74  PHE74       0.0574
     89  CG         2.7450   32.9660    2.9030 C.ar   74  PHE74      -0.0200
     90  CD1        2.2790   31.7000    3.2240 C.ar   74  PHE74      -0.0042
     91  CD2        4.0140   33.0450    2.3600 C.ar   74  PHE74      -0.0042
     92  CE1        3.0260   30.5630    3.0160 C.ar   74  PHE74      -0.0003
     93  CE2        4.7930   31.9240    2.1610 C.ar   74  PHE74      -0.0003
     94  CZ         4.3150   30.6650    2.4880 C.ar   74  PHE74      -0.0000
     95  N          3.7330   33.9630    5.8400 N.am   75  LEU75      -0.1963
     96  CA         5.1340   33.9110    6.2600 C.3    75  LEU75       0.1728
     97  C          5.6780   32.5350    5.8690 C.2    75  LEU75       0.2616
     98  O          4.9790   31.5090    5.8940 O.2    75  LEU75      -0.2715
     99  CB         5.3370   34.1340    7.7550 C.3    75  LEU75       0.0311
    100  CG         5.2800   35.6470    8.0880 C.3    75  LEU75       0.0022
    101  CD1        3.8260   36.0310    8.3640 C.3    75  LEU75       0.0001
    102  CD2        6.2060   36.0600    9.2040 C.3    75  LEU75       0.0001
    103  N          6.9660   32.4850    5.5030 N.am   76  HIS76      -0.1959
    104  CA         7.5000   31.2490    4.9530 C.3    76  HIS76       0.1787
    105  C          7.7930   30.1130    5.9010 C.2    76  HIS76       0.2620
    106  O          7.9690   28.9820    5.4420 O.2    76  HIS76      -0.2715
    107  CB         8.7630   31.5820    4.1290 C.3    76  HIS76       0.0785
    108  CG         8.3880   32.2320    2.8060 C.ar   76  HIS76       0.0821
    109  ND1        8.1180   33.5880    2.7170 N.ar   76  HIS76      -0.2267
    110  CD2        8.2650   31.7000    1.5580 C.ar   76  HIS76       0.1154
    111  CE1        7.8420   33.8870    1.4530 C.ar   76  HIS76       0.1986
    112  NE2        7.9440   32.7810    0.7400 N.ar   76  HIS76      -0.2212
    113  N          7.9460   30.3920    7.2090 N.am   77  GLN77      -0.1963
    114  CA         8.2900   29.2380    8.0730 C.3    77  GLN77       0.1733
    115  C          7.7490   29.4810    9.4910 C.2    77  GLN77       0.2616
    116  O          7.5560   30.6340    9.8700 O.2    77  GLN77      -0.2715
    117  CB         9.8020   29.0850    8.0890 C.3    77  GLN77       0.0408
    118  CG        10.3270   27.8170    8.7380 C.3    77  GLN77       0.0908
    119  CD        11.7660   27.5110    8.3750 C.2    77  GLN77       0.2608
    120  OE1       12.0960   27.2020    7.2080 O.2    77  GLN77      -0.2717
    121  NE2       12.6380   27.6240    9.3580 N.am   77  GLN77      -0.0878
    122  N          7.5770   28.3810   10.2020 N.am   78  ASP78      -0.1971
    123  CA         7.0840   28.5140   11.5880 C.3    78  ASP78       0.1709
    124  C          8.2320   28.1290   12.5270 C.2    78  ASP78       0.2293
    125  O          9.2180   27.5270   12.0770 O.2    78  ASP78      -0.2864
    126  CB         5.8130   27.7630   11.8630 C.3    78  ASP78       0.1436
    127  CG         5.9160   26.2430   11.8490 C.2    78  ASP78       0.3671
    128  OD1        5.1030   25.6290   11.1340 O.co2  78  ASP78      -0.2456
    129  OD2        6.7890   25.6700   12.4930 O.co2  78  ASP78      -0.2456
    130  N          9.1970   24.2530   12.9180 N.3    81  LYS81      -0.1245
    131  CA        10.1210   23.7720   11.8440 C.3    81  LYS81       0.1561
    132  C         11.5020   24.3620   12.0100 C.2    81  LYS81       0.2260
    133  O         12.5190   23.6590   11.8430 O.2    81  LYS81      -0.2867
    134  CB         9.4550   24.1510   10.5040 C.3    81  LYS81       0.0271
    135  CG         8.0420   23.5920   10.3820 C.3    81  LYS81       0.0035
    136  CD         7.6380   23.1920    8.9770 C.3    81  LYS81       0.0206
    137  CE         6.1070   23.2040    8.7870 C.3    81  LYS81       0.1093
    138  NZ         5.8390   22.6360    7.4170 N.3    81  LYS81      -0.1314
    139  N          4.2230   26.1790   16.6370 N.3   123  GLN123     -0.1245
    140  CA         3.6340   26.2110   15.2720 C.3   123  GLN123      0.1566
    141  C          2.9070   27.5030   14.9970 C.2   123  GLN123      0.2260
    142  O          2.7050   27.8150   13.7830 O.2   123  GLN123     -0.2867
    143  CB         2.7470   25.0110   15.0320 C.3   123  GLN123      0.0367
    144  CG         3.3900   23.6400   15.0220 C.3   123  GLN123      0.0905
    145  CD         2.5320   22.6170   14.2940 C.2   123  GLN123      0.2608
    146  OE1        3.0500   21.9330   13.4040 O.2   123  GLN123     -0.2717
    147  NE2        1.2550   22.4890   14.6290 N.am  123  GLN123     -0.0878
    148  N          5.4240   32.5550   13.5450 N.3   126  LEU126     -0.1245
    149  CA         5.9270   32.5960   12.1850 C.3   126  LEU126      0.1561
    150  C          7.0700   33.5580   11.9970 C.2   126  LEU126      0.2260
    151  O          7.1630   34.6300   12.5680 O.2   126  LEU126     -0.2867
    152  CB         4.7510   33.0100   11.2420 C.3   126  LEU126      0.0270
    153  CG         3.4990   32.1340   11.3850 C.3   126  LEU126      0.0019
    154  CD1        2.4600   32.6240   10.3760 C.3   126  LEU126      0.0001
    155  CD2        3.8300   30.6630   11.1850 C.3   126  LEU126      0.0001
    156  N          0.5200   34.1040   15.3650 N.3   136  ALA136     -0.1231
    157  CA        -0.6430   33.8150   14.5410 C.3   136  ALA136      0.1694
    158  C         -1.7930   33.3220   15.4280 C.2   136  ALA136      0.2592
    159  O         -1.5630   32.6970   16.4600 O.2   136  ALA136     -0.2718
    160  CB        -0.3230   32.7260   13.5380 C.3   136  ALA136      0.0304
    161  N         -2.9940   33.5260   14.9430 N.am  137  ASP137     -0.1974
    162  CA        -4.2500   33.1160   15.5740 C.3   137  ASP137      0.1709
    163  C         -4.6190   33.8110   16.8460 C.2   137  ASP137      0.2293
    164  O         -5.4400   33.2610   17.6240 O.2   137  ASP137     -0.2864
    165  CB        -4.3550   31.5890   15.6990 C.3   137  ASP137      0.1436
    166  CG        -4.2270   30.8780   14.3720 C.2   137  ASP137      0.3671
    167  OD1       -4.2130   31.5520   13.3070 O.co2 137  ASP137     -0.2456
    168  OD2       -4.1500   29.6420   14.3510 O.co2 137  ASP137     -0.2456
@<TRIPOS>BOND
     1     1     2    1
     2     8     7   ar
     3     2     5    1
     4     2     3    1
     5     5     6    1
     6    37    36    2
     7    42    41    1
     8    41    40    1
     9     6     7    1
    10     7     9   ar
    11    36    35    1
    12    40    39    1
    13    39    38    1
    14     3    10   am
    15     3     4    2
    16    38    35    1
    17    10    11    1
    18    35    34    1
    19   112   111   ar
    20   112   110   ar
    21   111   109   ar
    22   110   108   ar
    23    11    14    1
    24    11    12    1
    25    14    15    1
    26    93    91   ar
    27    93    94   ar
    28    91    89   ar
    29    13    12    2
    30    94    92   ar
    31    12    19   am
    32   109   108   ar
    33   108   107    1
    34    89    88    1
    35    89    90   ar
    36    92    90   ar
    37    88    85    1
    38    43    44    1
    39    15    16    1
    40    16    17    1
    41    19    20    1
    42    44    45    1
    43    44    47    1
    44    45    46    2
    45   107   104    1
    46    24    26    1
    47    24    23    1
    48    30    29    2
    49    67    66    2
    50    85    84    1
    51    85    86    1
    52    84    77   am
    53    20    23    1
    54    20    21    1
    55    87    86    2
    56    29    28    1
    57   104   103    1
    58   104   105    1
    59    17    18    1
    60    86    95   am
    61    23    25    1
    62   106   105    2
    63   103    97   am
    64    76    77    1
    65    76    75    1
    66    76    79    1
    67    77    78    2
    68    66    75   am
    69    66    65    1
    70    48    49    1
    71    64    65    1
    72    21    22    2
    73    95    96    1
    74    97    98    2
    75    97    96    1
    76   105   113   am
    77    28    27    1
    78    28    31    1
    79    96    99    1
    80    32    31    1
    81    51    50    2
    82    50    49    1
    83    79    80    2
    84    65    68    1
    85    80    81    1
    86    49    52    1
    87    31    33    1
    88   120   119    2
    89   113   114    1
    90   138   137    1
    91    82    81   ar
    92    68    69    1
    93    81    83   ar
    94    99   100    1
    95    52    53    1
    96   114   117    1
    97   114   115    1
    98   100   101    1
    99   100   102    1
   100   117   118    1
   101   119   118    1
   102   119   121   am
   103    70    69   ar
   104    70    72   ar
   105    69    71   ar
   106   137   136    1
   107   136   135    1
   108    53    54    1
   109   115   116    2
   110   115   122   am
   111    72    74   ar
   112    71    73   ar
   113    62    61    1
   114   122   123    1
   115   154   153    1
   116   135   134    1
   117    54    55    1
   118   134   131    1
   119    74    73   ar
   120   128   127   ar
   121   155   153    1
   122   152   153    1
   123   152   149    1
   124    59    58    1
   125    59    60    2
   126    55    56    1
   127    61    58    1
   128    61    63    1
   129   123   126    1
   130   123   124    1
   131    58    57    1
   132   133   132    2
   133   131   132    1
   134   131   130    1
   135   127   126    1
   136   127   129   ar
   137   150   149    1
   138   150   151    2
   139   125   124    2
   140   149   148    1
   141   167   166   ar
   142   146   145    2
   143   160   157    1
   144   142   141    2
   145   145   147   am
   146   145   144    1
   147   168   166   ar
   148   166   165    1
   149   157   156    1
   150   157   158    1
   151   161   158   am
   152   161   162    1
   153   141   140    1
   154   144   143    1
   155   143   140    1
   156   140   139    1
   157   158   159    2
   158   162   165    1
   159   162   163    1
   160   163   164    2
