@<TRIPOS>MOLECULE
tmp/3igjC00.pdb
 114 111 0 0 0
SMALL
GASTEIGER

@<TRIPOS>ATOM
      1  N        110.6620   87.0700   57.9470 N.3    81  PHE81      -0.1241
      2  CA       109.4970   87.9280   57.8380 C.3    81  PHE81       0.1605
      3  C        108.4220   87.2240   57.0430 C.2    81  PHE81       0.2264
      4  O        108.6960   86.6790   55.9840 O.2    81  PHE81      -0.2867
      5  CB       109.8140   89.2860   57.1700 C.3    81  PHE81       0.0534
      6  CG       108.5780   90.1240   56.8920 C.ar   81  PHE81      -0.0203
      7  CD1      108.0370   90.9510   57.8770 C.ar   81  PHE81      -0.0042
      8  CD2      107.9310   90.0540   55.6560 C.ar   81  PHE81      -0.0042
      9  CE1      106.8690   91.7140   57.6340 C.ar   81  PHE81      -0.0003
     10  CE2      106.7760   90.8210   55.3970 C.ar   81  PHE81      -0.0003
     11  CZ       106.2460   91.6490   56.3980 C.ar   81  PHE81      -0.0000
     12  N        104.3050   88.2540   55.9680 N.3    83  ASN83      -0.1240
     13  CA       103.2050   89.1940   56.0270 C.3    83  ASN83       0.1653
     14  C        101.8520   88.5040   56.3300 C.2    83  ASN83       0.2266
     15  O        101.8070   87.3550   56.7460 O.2    83  ASN83      -0.2867
     16  CB       103.1400   90.0100   54.7370 C.3    83  ASN83       0.1155
     17  CG       102.8340   91.4730   55.0000 C.2    83  ASN83       0.2627
     18  OD1      102.2450   91.8160   56.0330 O.2    83  ASN83      -0.2716
     19  ND2      103.2440   92.3450   54.0790 N.am   83  ASN83      -0.0877
     20  N        108.2730   86.2650   53.2530 N.3   101  PHE101     -0.1227
     21  CA       107.0070   85.8530   52.6500 C.3   101  PHE101      0.1736
     22  C        106.0650   87.0340   52.5950 C.2   101  PHE101      0.2595
     23  O        105.8620   87.6990   53.6000 O.2   101  PHE101     -0.2718
     24  CB       106.3070   84.7930   53.5010 C.3   101  PHE101      0.0547
     25  CG       107.0000   83.4620   53.5420 C.ar  101  PHE101     -0.0202
     26  CD1      108.1360   83.2190   52.7880 C.ar  101  PHE101     -0.0042
     27  CD2      106.4800   82.4400   54.3130 C.ar  101  PHE101     -0.0042
     28  CE1      108.7550   81.9820   52.8250 C.ar  101  PHE101     -0.0003
     29  CE2      107.0850   81.1900   54.3450 C.ar  101  PHE101     -0.0003
     30  CZ       108.2250   80.9680   53.6060 C.ar  101  PHE101     -0.0000
     31  N        105.4730   87.2740   51.4290 N.am  102  ALA102     -0.1966
     32  CA       104.4710   88.3090   51.2530 C.3   102  ALA102      0.1713
     33  C        103.1200   87.7900   51.7840 C.2   102  ALA102      0.2458
     34  O        103.0340   86.6720   52.2370 O.2   102  ALA102     -0.2730
     35  CB       104.3720   88.6540   49.7800 C.3   102  ALA102      0.0333
     36  N        102.0470   88.5900   51.7210 N.am  103  PRO103     -0.2727
     37  CA       100.8250   88.0370   52.3170 C.3   103  PRO103      0.1402
     38  C        100.3230   86.7740   51.6310 C.2   103  PRO103      0.2269
     39  O        100.5070   86.5880   50.4160 O.2   103  PRO103     -0.2865
     40  CB        99.8050   89.1700   52.1150 C.3   103  PRO103      0.0296
     41  CG       100.6400   90.4260   52.0070 C.3   103  PRO103      0.0237
     42  CD       101.8540   89.9740   51.2470 C.3   103  PRO103      0.0939
     43  N        112.7010   85.2390   48.4820 N.3   136  TRP136     -0.1241
     44  CA       111.5290   86.0820   48.5580 C.3   136  TRP136      0.1605
     45  C        110.3670   85.3480   47.8770 C.2   136  TRP136      0.2264
     46  O        110.4170   85.0550   46.6820 O.2   136  TRP136     -0.2867
     47  CB       111.8260   87.4300   47.9210 C.3   136  TRP136      0.0550
     48  CG       110.6410   88.3070   47.7100 C.ar  136  TRP136      0.0003
     49  CD1      109.5380   88.3970   48.4900 C.ar  136  TRP136      0.0946
     50  CD2      110.4650   89.2580   46.6520 C.ar  136  TRP136      0.0152
     51  NE1      108.6670   89.3350   47.9870 N.ar  136  TRP136     -0.2442
     52  CE2      109.2070   89.8770   46.8560 C.ar  136  TRP136      0.0810
     53  CE3      111.2440   89.6380   45.5470 C.ar  136  TRP136      0.0012
     54  CZ2      108.6940   90.8400   45.9870 C.ar  136  TRP136      0.0191
     55  CZ3      110.7410   90.6010   44.6850 C.ar  136  TRP136      0.0001
     56  CH2      109.4720   91.1940   44.9120 C.ar  136  TRP136      0.0015
     57  N        106.6740   85.7400   46.7850 N.3   138  GLY138     -0.1210
     58  CA       105.6550   86.7410   46.5180 C.3   138  GLY138      0.1956
     59  C        104.2730   86.3090   46.9630 C.2   138  GLY138      0.2612
     60  O        104.0240   85.1240   47.2150 O.2   138  GLY138     -0.2717
     61  N        103.3620   87.2760   47.0290 N.am  139  GLY139     -0.1956
     62  CA       102.0700   87.0910   47.6550 C.3   139  GLY139      0.1869
     63  C        101.2260   86.0130   47.0160 C.2   139  GLY139      0.2309
     64  O        101.1520   85.9040   45.7890 O.2   139  GLY139     -0.2863
     65  N        113.4890   83.9130   43.7370 N.3   154  VAL154     -0.1231
     66  CA       112.3580   84.7920   43.8900 C.3   154  VAL154      0.1692
     67  C        111.1200   84.0870   43.3220 C.2   154  VAL154      0.2592
     68  O        111.0820   83.7190   42.1510 O.2   154  VAL154     -0.2718
     69  CB       112.6220   86.1330   43.2080 C.3   154  VAL154      0.0266
     70  CG1      111.3570   86.9480   43.1170 C.3   154  VAL154      0.0020
     71  CG2      113.6960   86.8990   43.9820 C.3   154  VAL154      0.0020
     72  N        110.1240   83.8600   44.1730 N.am  155  ILE155     -0.1966
     73  CA       108.8630   83.2850   43.7240 C.3   155  ILE155      0.1727
     74  C        107.9120   84.4260   43.4110 C.2   155  ILE155      0.2616
     75  O        107.6190   85.2250   44.2690 O.2   155  ILE155     -0.2715
     76  CB       108.2220   82.3650   44.7900 C.3   155  ILE155      0.0290
     77  CG1      109.2570   81.4120   45.4150 C.3   155  ILE155      0.0022
     78  CG2      107.0760   81.6130   44.1920 C.3   155  ILE155      0.0023
     79  CD1      110.0880   80.6130   44.4000 C.3   155  ILE155      0.0001
     80  N        107.4490   84.5020   42.1710 N.am  156  ALA156     -0.1963
     81  CA       106.4920   85.5180   41.7800 C.3   156  ALA156      0.1728
     82  C        105.1910   85.3600   42.5580 C.2   156  ALA156      0.2616
     83  O        104.8290   84.2580   42.9860 O.2   156  ALA156     -0.2715
     84  CB       106.2220   85.4320   40.2980 C.3   156  ALA156      0.0334
     85  N        104.4720   86.4600   42.7240 N.am  157  SER157     -0.1950
     86  CA       103.1480   86.3910   43.3440 C.3   157  SER157      0.1924
     87  C        102.2730   85.3870   42.5890 C.2   157  SER157      0.2314
     88  O        102.3170   85.3200   41.3590 O.2   157  SER157     -0.2863
     89  CB       102.4850   87.7690   43.3770 C.3   157  SER157      0.2116
     90  OG       102.1870   88.1770   42.0660 O.3   157  SER157     -0.2180
     91  N        114.2090   83.5920   39.2140 N.3   170  VAL170     -0.1245
     92  CA       112.8510   84.0540   39.4150 C.3   170  VAL170      0.1561
     93  C        111.9060   83.0730   38.7290 C.2   170  VAL170      0.2260
     94  O        112.0260   82.8290   37.5220 O.2   170  VAL170     -0.2867
     95  CB       112.6430   85.4230   38.7600 C.3   170  VAL170      0.0252
     96  CG1      111.2460   85.9340   39.0270 C.3   170  VAL170      0.0019
     97  CG2      113.6850   86.3930   39.2450 C.3   170  VAL170      0.0019
     98  N        111.4440   82.4270   34.9430 N.3   179  ILE179     -0.1231
     99  CA       111.2960   83.5660   34.0440 C.3   179  ILE179      0.1692
    100  C        112.6340   84.2150   33.7230 C.2   179  ILE179      0.2591
    101  O        112.8610   84.6180   32.5940 O.2   179  ILE179     -0.2718
    102  CB       110.2290   84.6200   34.4890 C.3   179  ILE179      0.0266
    103  CG1      110.4660   85.1760   35.8630 C.3   179  ILE179      0.0019
    104  CG2      108.8680   83.9740   34.6550 C.3   179  ILE179      0.0020
    105  CD1      109.0760   85.3870   36.5810 C.3   179  ILE179      0.0001
    106  N        113.5260   84.2810   34.7070 N.am  180  LYS180     -0.1980
    107  CA       114.8390   84.8690   34.5110 C.3   180  LYS180      0.1596
    108  C        115.7520   84.4380   35.6390 C.2   180  LYS180      0.2287
    109  O        115.2900   83.9450   36.6670 O.2   180  LYS180     -0.2864
    110  CB       114.7500   86.4040   34.4430 C.3   180  LYS180      0.0298
    111  CG       114.6760   87.0940   35.7900 C.3   180  LYS180      0.0038
    112  CD       114.8280   88.6200   35.6890 C.3   180  LYS180      0.0206
    113  CE       113.5240   89.2780   35.2880 C.3   180  LYS180      0.1093
    114  NZ       113.4680   90.6950   35.7340 N.3   180  LYS180     -0.1314
@<TRIPOS>BOND
     1   101   100    2
     2   100    99    1
     3   100   106   am
     4    99   102    1
     5    99    98    1
     6   110   107    1
     7   110   111    1
     8   102   104    1
     9   102   103    1
    10   107   106    1
    11   107   108    1
    12   113   112    1
    13   113   114    1
    14   108   109    2
    15   112   111    1
    16   103   105    1
    17    94    93    2
    18    93    92    1
    19    95    96    1
    20    95    97    1
    21    95    92    1
    22    91    92    1
    23    84    81    1
    24    88    87    2
    25    81    80    1
    26    81    82    1
    27    90    89    1
    28    68    67    2
    29    80    74   am
    30    82    85   am
    31    82    83    2
    32    87    86    1
    33    85    86    1
    34    70    69    1
    35    69    66    1
    36    69    71    1
    37    67    66    1
    38    67    72   am
    39    86    89    1
    40    74    73    1
    41    74    75    2
    42    73    72    1
    43    73    76    1
    44    65    66    1
    45    78    76    1
    46    79    77    1
    47    55    56   ar
    48    55    53   ar
    49    76    77    1
    50    56    54   ar
    51    53    50   ar
    52    64    63    2
    53    54    52   ar
    54    58    57    1
    55    58    59    1
    56    50    52   ar
    57    50    48   ar
    58    46    45    2
    59    52    51   ar
    60    59    61   am
    61    59    60    2
    62    63    62    1
    63    61    62    1
    64    48    47    1
    65    48    49   ar
    66    45    44    1
    67    47    44    1
    68    51    49   ar
    69    43    44    1
    70    35    32    1
    71    39    38    2
    72    42    36    1
    73    42    41    1
    74    32    31    1
    75    32    33    1
    76    31    22   am
    77    38    37    1
    78    36    33   am
    79    36    37    1
    80    33    34    2
    81    41    40    1
    82    40    37    1
    83    22    21    1
    84    22    23    2
    85    21    20    1
    86    21    24    1
    87    26    28   ar
    88    26    25   ar
    89    28    30   ar
    90    24    25    1
    91    25    27   ar
    92    30    29   ar
    93    19    17   am
    94    27    29   ar
    95    16    17    1
    96    16    13    1
    97    17    18    2
    98    10     8   ar
    99    10    11   ar
   100     8     6   ar
   101    12    13    1
   102     4     3    2
   103    13    14    1
   104    14    15    2
   105    11     9   ar
   106     6     5    1
   107     6     7   ar
   108     3     2    1
   109     5     2    1
   110     9     7   ar
   111     2     1    1
