@<TRIPOS>MOLECULE
tmp/3igjC01.pdb
 106 101 0 0 0
SMALL
GASTEIGER

@<TRIPOS>ATOM
      1  N        101.5670   74.2040   56.8420 N.3    89  LEU89      -0.1245
      2  CA       101.2680   72.8560   57.3170 C.3    89  LEU89       0.1561
      3  C        102.5550   72.0790   57.5090 C.2    89  LEU89       0.2260
      4  O        103.0450   71.4260   56.5930 O.2    89  LEU89      -0.2867
      5  CB       100.3490   72.1040   56.3630 C.3    89  LEU89       0.0270
      6  CG        99.0540   72.8670   56.1100 C.3    89  LEU89       0.0019
      7  CD1       98.1290   72.0260   55.2830 C.3    89  LEU89       0.0001
      8  CD2       98.4160   73.2570   57.4330 C.3    89  LEU89       0.0001
      9  N        102.8850   73.8510   52.0900 N.3   108  TYR108     -0.1241
     10  CA       102.3260   72.5540   52.4680 C.3   108  TYR108      0.1605
     11  C        103.3790   71.4480   52.5310 C.2   108  TYR108      0.2264
     12  O        104.0720   71.1950   51.5330 O.2   108  TYR108     -0.2867
     13  CB       101.2390   72.1220   51.4670 C.3   108  TYR108      0.0534
     14  CG       100.1910   73.1760   51.2060 C.ar  108  TYR108     -0.0201
     15  CD1       99.6140   73.8740   52.2540 C.ar  108  TYR108     -0.0009
     16  CD2       99.7780   73.4620   49.9220 C.ar  108  TYR108     -0.0009
     17  CE1       98.6760   74.8290   52.0340 C.ar  108  TYR108      0.0417
     18  CE2       98.8250   74.4150   49.6850 C.ar  108  TYR108      0.0417
     19  CZ        98.2690   75.1040   50.7440 C.ar  108  TYR108      0.1957
     20  OH        97.3060   76.0810   50.5250 O.3   108  TYR108     -0.2866
     21  N        101.9480   68.6110   53.9810 N.3   110  ALA110     -0.1231
     22  CA       100.9220   67.5880   54.1000 C.3   110  ALA110      0.1694
     23  C        100.4060   67.1770   52.7440 C.2   110  ALA110      0.2593
     24  O        100.1480   68.0350   51.8760 O.2   110  ALA110     -0.2718
     25  CB        99.7710   68.0940   54.9440 C.3   110  ALA110      0.0304
     26  N        100.2240   65.8690   52.5690 N.am  111  THR111     -0.1939
     27  CA        99.5220   65.3860   51.3910 C.3   111  THR111      0.2028
     28  C         98.6790   64.1100   51.6290 C.2   111  THR111      0.2642
     29  O         98.5960   63.5950   52.7510 O.2   111  THR111     -0.2714
     30  CB       100.4970   65.2020   50.2100 C.3   111  THR111      0.1808
     31  OG1       99.7520   65.0700   48.9940 O.3   111  THR111     -0.2208
     32  CG2      101.3850   63.9830   50.4180 C.3   111  THR111      0.0379
     33  N         98.0460   63.6130   50.5670 N.am  112  HIS112     -0.1973
     34  CA        97.2160   62.4220   50.6600 C.3   112  HIS112      0.1656
     35  C         97.4500   61.4880   49.4780 C.2   112  HIS112      0.2291
     36  O         97.8760   61.9280   48.4120 O.2   112  HIS112     -0.2864
     37  CB        95.7360   62.8080   50.6390 C.3   112  HIS112      0.0771
     38  CG        95.3000   63.6720   51.7780 C.ar  112  HIS112      0.0820
     39  ND1       95.1020   63.1820   53.0490 N.ar  112  HIS112     -0.2267
     40  CD2       94.9620   64.9840   51.8240 C.ar  112  HIS112      0.1154
     41  CE1       94.6810   64.1580   53.8340 C.ar  112  HIS112      0.1986
     42  NE2       94.5950   65.2620   53.1180 N.ar  112  HIS112     -0.2212
     43  N         96.4350   59.3570   46.2280 N.3   114  LEU114     -0.1245
     44  CA        95.4980   59.7330   45.1630 C.3   114  LEU114      0.1561
     45  C         94.2520   58.8440   45.0800 C.2   114  LEU114      0.2260
     46  O         93.1990   59.2830   44.6130 O.2   114  LEU114     -0.2867
     47  CB        96.1920   59.7980   43.8010 C.3   114  LEU114      0.0270
     48  CG        97.0500   61.0480   43.6040 C.3   114  LEU114      0.0019
     49  CD1       98.5200   60.8110   44.0360 C.3   114  LEU114      0.0001
     50  CD2       96.9630   61.5040   42.1630 C.3   114  LEU114      0.0001
     51  N         97.4680   59.2670   56.3220 N.3   124  GLU124     -0.1245
     52  CA        97.9930   60.2630   55.3830 C.3   124  GLU124      0.1567
     53  C         99.4890   60.3700   55.5830 C.2   124  GLU124      0.2260
     54  O        100.0390   59.6020   56.3620 O.2   124  GLU124     -0.2867
     55  CB        97.3020   61.6210   55.5560 C.3   124  GLU124      0.0388
     56  CG        97.3890   62.2210   56.9380 C.3   124  GLU124      0.1160
     57  CD        96.4660   63.4310   57.1120 C.2   124  GLU124      0.3649
     58  OE1       96.9660   64.5330   57.4470 O.co2 124  GLU124     -0.2457
     59  OE2       95.2380   63.2870   56.9190 O.co2 124  GLU124     -0.2457
     60  N        105.7450   65.3020   52.9680 N.3   127  LYS127     -0.1245
     61  CA       107.0980   65.4330   52.4320 C.3   127  LYS127      0.1561
     62  C        107.5920   66.8160   52.8380 C.2   127  LYS127      0.2260
     63  O        106.9400   67.8250   52.5240 O.2   127  LYS127     -0.2867
     64  CB       107.0910   65.3410   50.9020 C.3   127  LYS127      0.0271
     65  CG       106.4500   64.0960   50.3000 C.3   127  LYS127      0.0035
     66  CD       106.2930   64.2290   48.7820 C.3   127  LYS127      0.0206
     67  CE       105.5270   63.0450   48.1950 C.3   127  LYS127      0.1093
     68  NZ       105.2180   63.1700   46.7320 N.3   127  LYS127     -0.1314
     69  N        104.4550   73.5030   47.3990 N.3   144  ASN144     -0.1226
     70  CA       103.9130   72.1490   47.5720 C.3   144  ASN144      0.1770
     71  C        104.8520   71.2160   48.3390 C.2   144  ASN144      0.2439
     72  O        106.0320   71.5060   48.5000 O.2   144  ASN144     -0.2733
     73  CB       103.5380   71.5410   46.2200 C.3   144  ASN144      0.1168
     74  CG       102.1430   71.9390   45.7510 C.2   144  ASN144      0.2627
     75  OD1      101.2250   72.0920   46.5390 O.2   144  ASN144     -0.2716
     76  ND2      101.9850   72.0850   44.4580 N.am  144  ASN144     -0.0877
     77  N        104.3320   70.0850   48.8250 N.am  145  PRO145     -0.2729
     78  CA       105.1610   69.2570   49.7120 C.3   145  PRO145      0.1401
     79  C        106.3540   68.6370   48.9910 C.2   145  PRO145      0.2269
     80  O        106.2470   68.2430   47.8380 O.2   145  PRO145     -0.2865
     81  CB       104.2010   68.1540   50.1790 C.3   145  PRO145      0.0296
     82  CG       102.8520   68.5820   49.7790 C.3   145  PRO145      0.0237
     83  CD       102.9850   69.5330   48.6350 C.3   145  PRO145      0.0939
     84  N        105.5380   73.4480   42.1420 N.3   162  THR162     -0.1203
     85  CA       105.3480   72.0010   42.2270 C.3   162  THR162      0.1994
     86  C        106.6340   71.1830   42.1670 C.2   162  THR162      0.2617
     87  O        106.6050   70.0070   42.4720 O.2   162  THR162     -0.2717
     88  CB       104.4240   71.4780   41.1160 C.3   162  THR162      0.1784
     89  OG1      105.0490   71.6850   39.8440 O.3   162  THR162     -0.2211
     90  CG2      103.0770   72.1770   41.1530 C.3   162  THR162      0.0376
     91  N        107.7460   71.7990   41.7740 N.am  163  LYS163     -0.1979
     92  CA       109.0310   71.0970   41.5930 C.3   163  LYS163      0.1596
     93  C        110.1280   71.8850   42.2740 C.2   163  LYS163      0.2287
     94  O        109.9320   73.0620   42.5820 O.2   163  LYS163     -0.2864
     95  CB       109.3700   70.9740   40.1010 C.3   163  LYS163      0.0298
     96  CG       108.4740   70.0220   39.3500 C.3   163  LYS163      0.0038
     97  CD       108.3890   70.3550   37.8630 C.3   163  LYS163      0.0206
     98  CE       109.7700   70.4460   37.2130 C.3   163  LYS163      0.1093
     99  NZ       109.7260   70.2710   35.7080 N.3   163  LYS163     -0.1314
    100  N        101.9220   75.7800   36.3710 N.3   175  PRO175     -0.2116
    101  CA       102.8850   75.5960   37.4730 C.3   175  PRO175      0.1372
    102  C        104.0640   76.5360   37.2840 C.2   175  PRO175      0.2244
    103  O        104.2750   77.0830   36.1930 O.2   175  PRO175     -0.2868
    104  CB       103.3490   74.1440   37.3160 C.3   175  PRO175      0.0268
    105  CG       102.7150   73.6460   35.9840 C.3   175  PRO175      0.0207
    106  CD       102.2140   74.8700   35.2560 C.3   175  PRO175      0.0892
@<TRIPOS>BOND
     1   106   105    1
     2   106   100    1
     3    99    98    1
     4   105   104    1
     5   103   102    2
     6   100   101    1
     7    98    97    1
     8   102   101    1
     9   104   101    1
    10    97    96    1
    11    96    95    1
    12    89    88    1
    13    95    92    1
    14    88    90    1
    15    88    85    1
    16    92    91    1
    17    92    93    1
    18    91    86   am
    19    84    85    1
    20    50    48    1
    21    86    85    1
    22    86    87    2
    23    93    94    2
    24    48    47    1
    25    48    49    1
    26    47    44    1
    27    76    74   am
    28    46    45    2
    29    45    44    1
    30    44    43    1
    31    74    73    1
    32    74    75    2
    33    73    70    1
    34    68    67    1
    35    69    70    1
    36    70    71    1
    37    80    79    2
    38    67    66    1
    39    71    72    2
    40    71    77   am
    41    36    35    2
    42    83    77    1
    43    83    82    1
    44    66    65    1
    45    77    78    1
    46    79    78    1
    47    31    30    1
    48    35    34    1
    49    18    16   ar
    50    18    19   ar
    51    78    81    1
    52    82    81    1
    53    16    14   ar
    54    30    32    1
    55    30    27    1
    56    65    64    1
    57    20    19    1
    58    33    34    1
    59    33    28   am
    60    37    34    1
    61    37    38    1
    62    19    17   ar
    63    64    61    1
    64    14    13    1
    65    14    15   ar
    66    27    28    1
    67    27    26    1
    68    13    10    1
    69    12    11    2
    70    28    29    2
    71    38    40   ar
    72    38    39   ar
    73    40    42   ar
    74    24    23    2
    75    17    15   ar
    76     9    10    1
    77    61    62    1
    78    61    60    1
    79    10    11    1
    80    63    62    2
    81    26    23   am
    82    23    22    1
    83    39    41   ar
    84    42    41   ar
    85    21    22    1
    86    22    25    1
    87     7     6    1
    88    52    55    1
    89    52    53    1
    90    52    51    1
    91    55    56    1
    92    53    54    2
    93     6     5    1
    94     6     8    1
    95     5     2    1
    96     4     3    2
    97     1     2    1
    98    59    57   ar
    99    56    57    1
   100    57    58   ar
   101     2     3    1
