@<TRIPOS>MOLECULE
tmp/3ignA00.pdb
 90 84 0 0 0
SMALL
GASTEIGER

@<TRIPOS>ATOM
      1  N         13.0730   49.1340   69.6200 N.3    70  ASN70      -0.1240
      2  CA        14.2730   49.8920   69.2870 C.3    70  ASN70       0.1653
      3  C         14.0360   51.1520   68.4600 C.2    70  ASN70       0.2266
      4  O         14.9800   51.8880   68.1810 O.2    70  ASN70      -0.2867
      5  CB        15.2690   48.9910   68.5500 C.3    70  ASN70       0.1155
      6  CG        16.2440   48.3120   69.4860 C.2    70  ASN70       0.2627
      7  OD1       17.2580   48.8960   69.8700 O.2    70  ASN70      -0.2716
      8  ND2       15.9400   47.0740   69.8660 N.am   70  ASN70      -0.0877
      9  N         11.6130   54.8240   67.5360 N.3    72  ARG72      -0.1245
     10  CA        10.8070   55.8810   68.1420 C.3    72  ARG72       0.1563
     11  C          9.3430   55.6870   67.7930 C.2    72  ARG72       0.2260
     12  O          9.0170   55.1190   66.7590 O.2    72  ARG72      -0.2867
     13  CB        11.2800   57.2460   67.6390 C.3    72  ARG72       0.0307
     14  CG        12.7370   57.5230   67.9520 C.3    72  ARG72       0.0489
     15  CD        13.2620   58.7950   67.3120 C.3    72  ARG72       0.2205
     16  NE        14.6080   59.0690   67.8210 N.pl3  72  ARG72      -0.0865
     17  CZ        15.3480   60.1190   67.4840 C.cat  72  ARG72       0.5346
     18  NH1       14.8910   61.0180   66.6260 N.pl3  72  ARG72       0.1354
     19  NH2       16.5530   60.2680   68.0140 N.pl3  72  ARG72       0.1354
     20  N          8.5370   56.8400   64.4860 N.3    75  ASP75      -0.1239
     21  CA         9.0020   56.0530   63.3380 C.3    75  ASP75       0.1674
     22  C          7.8660   55.0610   63.0900 C.2    75  ASP75       0.2266
     23  O          7.1270   54.7410   64.0150 O.2    75  ASP75      -0.2867
     24  CB        10.2760   55.2600   63.6720 C.3    75  ASP75       0.1410
     25  CG        11.4890   56.1460   63.9190 C.2    75  ASP75       0.3668
     26  OD1       11.6230   57.2010   63.2550 O.co2  75  ASP75      -0.2456
     27  OD2       12.3330   55.7670   64.7640 O.co2  75  ASP75      -0.2456
     28  N         11.3330   56.5460   58.6320 N.3    89  LEU89      -0.1231
     29  CA        12.0480   57.3370   59.6180 C.3    89  LEU89       0.1678
     30  C         11.9240   58.8190   59.2670 C.2    89  LEU89       0.2434
     31  O         12.7320   59.3640   58.5180 O.2    89  LEU89      -0.2733
     32  CB        13.5200   56.9260   59.6480 C.3    89  LEU89       0.0284
     33  CG        13.8360   55.4370   59.8380 C.3    89  LEU89       0.0019
     34  CD1       15.3420   55.2280   59.7100 C.3    89  LEU89       0.0001
     35  CD2       13.3460   54.9620   61.2090 C.3    89  LEU89       0.0001
     36  N         10.9010   59.4950   59.8070 N.am   90  PRO90      -0.2718
     37  CA        10.7280   60.9170   59.5080 C.3    90  PRO90       0.1535
     38  C         11.7790   61.7850   60.2000 C.2    90  PRO90       0.2598
     39  O         12.3180   61.4120   61.2400 O.2    90  PRO90      -0.2715
     40  CB         9.3070   61.1970   60.0160 C.3    90  PRO90       0.0310
     41  CG         9.2150   60.3030   61.2090 C.3    90  PRO90       0.0237
     42  CD         9.8330   59.0070   60.7010 C.3    90  PRO90       0.0939
     43  N         12.0650   62.9380   59.5990 N.am   91  GLU91      -0.1964
     44  CA        13.0210   63.8990   60.1380 C.3    91  GLU91       0.1733
     45  C         14.3650   63.2540   60.3980 C.2    91  GLU91       0.2617
     46  O         15.0860   63.6560   61.3070 O.2    91  GLU91      -0.2715
     47  CB        12.4850   64.4840   61.4410 C.3    91  GLU91       0.0429
     48  CG        11.2310   65.3230   61.2950 C.3    91  GLU91       0.1163
     49  CD        11.4940   66.5970   60.5230 C.2    91  GLU91       0.3649
     50  OE1       12.6050   67.1550   60.6600 O.co2  91  GLU91      -0.2457
     51  OE2       10.5920   67.0460   59.7970 O.co2  91  GLU91      -0.2457
     52  N         14.7070   62.2660   59.5800 N.am   92  THR92      -0.1951
     53  CA        15.9430   61.5240   59.7620 C.3    92  THR92       0.1897
     54  C         16.6800   61.3630   58.4370 C.2    92  THR92       0.2313
     55  O         16.1240   60.8090   57.4910 O.2    92  THR92      -0.2863
     56  CB        15.6150   60.1230   60.3230 C.3    92  THR92       0.1794
     57  OG1       14.8450   60.2600   61.5230 O.3    92  THR92      -0.2208
     58  CG2       16.8950   59.3430   60.6310 C.3    92  THR92       0.0378
     59  N         21.7840   59.3730   59.8860 N.3    96  SER96      -0.1217
     60  CA        21.1000   59.1360   61.1550 C.3    96  SER96       0.1889
     61  C         20.3490   57.8130   61.1200 C.2    96  SER96       0.2288
     62  O         20.2250   57.1260   62.1380 O.2    96  SER96      -0.2866
     63  CB        20.1290   60.2790   61.4550 C.3    96  SER96       0.2089
     64  OG        20.8430   61.4850   61.6520 O.3    96  SER96      -0.2183
     65  N         22.3310   54.8050   62.1270 N.3    99  VAL99      -0.1231
     66  CA        22.4650   54.5950   63.5700 C.3    99  VAL99       0.1692
     67  C         21.3850   53.6800   64.1390 C.2    99  VAL99       0.2591
     68  O         21.6940   52.7170   64.8340 O.2    99  VAL99      -0.2718
     69  CB        22.4300   55.9430   64.3480 C.3    99  VAL99       0.0266
     70  CG1       22.4800   55.6680   65.8400 C.3    99  VAL99       0.0020
     71  CG2       23.5750   56.8210   63.9130 C.3    99  VAL99       0.0020
     72  N         20.1220   53.9790   63.8540 N.am  100  ILE100     -0.1980
     73  CA        19.0360   53.1470   64.3460 C.3   100  ILE100      0.1595
     74  C         19.1240   51.7690   63.6960 C.2   100  ILE100      0.2287
     75  O         18.9000   50.7540   64.3540 O.2   100  ILE100     -0.2864
     76  CB        17.6390   53.8080   64.0660 C.3   100  ILE100      0.0276
     77  CG1       16.5500   52.7430   63.8800 C.3   100  ILE100      0.0022
     78  CG2       17.7120   54.7140   62.8640 C.3   100  ILE100      0.0022
     79  CD1       16.0920   52.0730   65.1570 C.3   100  ILE100      0.0001
     80  N         21.8340   49.7590   65.3750 N.3   103  ARG103     -0.1245
     81  CA        21.4040   49.3690   66.7110 C.3   103  ARG103      0.1563
     82  C         20.5030   48.1450   66.6020 C.2   103  ARG103      0.2260
     83  O         20.6060   47.2200   67.4000 O.2   103  ARG103     -0.2867
     84  CB        20.6600   50.5220   67.3980 C.3   103  ARG103      0.0307
     85  CG        20.4820   50.3250   68.8950 C.3   103  ARG103      0.0489
     86  CD        19.9920   51.5950   69.5870 C.3   103  ARG103      0.2205
     87  NE        18.6460   51.9730   69.1630 N.pl3 103  ARG103     -0.0865
     88  CZ        18.3600   53.0890   68.5020 C.cat 103  ARG103      0.5346
     89  NH1       19.3230   53.9400   68.1860 N.pl3 103  ARG103      0.1354
     90  NH2       17.1070   53.3480   68.1500 N.pl3 103  ARG103      0.1354
@<TRIPOS>BOND
     1    55    54    2
     2    54    53    1
     3    31    30    2
     4    28    29    1
     5    30    29    1
     6    30    36   am
     7    37    36    1
     8    37    40    1
     9    37    38    1
    10    52    53    1
    11    52    45   am
    12    43    44    1
    13    43    38   am
    14    29    32    1
    15    32    33    1
    16    34    33    1
    17    53    56    1
    18    51    49   ar
    19    36    42    1
    20    33    35    1
    21    59    60    1
    22    40    41    1
    23    44    45    1
    24    44    47    1
    25    38    39    2
    26    56    58    1
    27    56    57    1
    28    45    46    2
    29    49    50   ar
    30    49    48    1
    31    42    41    1
    32    61    60    1
    33    61    62    2
    34    60    63    1
    35    48    47    1
    36    63    64    1
    37    65    66    1
    38    78    76    1
    39    22    21    1
    40    22    23    2
    41    26    25   ar
    42    21    24    1
    43    21    20    1
    44    66    67    1
    45    66    69    1
    46    24    25    1
    47    74    73    1
    48    74    75    2
    49    72    67   am
    50    72    73    1
    51    77    76    1
    52    77    79    1
    53    71    69    1
    54    25    27   ar
    55    76    73    1
    56    67    68    2
    57    69    70    1
    58    80    81    1
    59    82    81    1
    60    82    83    2
    61    18    17    1
    62    81    84    1
    63    12    11    2
    64    15    16    1
    65    15    14    1
    66    84    85    1
    67    17    16    2
    68    17    19    1
    69     9    10    1
    70    13    14    1
    71    13    10    1
    72    11    10    1
    73    90    88    1
    74     4     3    2
    75    89    88    1
    76     3     2    1
    77    88    87    2
    78     5     2    1
    79     5     6    1
    80    85    86    1
    81    87    86    1
    82     2     1    1
    83     6     8   am
    84     6     7    2
