@<TRIPOS>MOLECULE
tmp/3igoA00.pdb
 183 172 0 0 0
SMALL
GASTEIGER

@<TRIPOS>ATOM
      1  N         30.9350    7.7730   -1.2860 N.3    14  LEU14      -0.1231
      2  CA        29.9740    6.8610   -0.7020 C.3    14  LEU14       0.1693
      3  C         28.5800    7.0820   -1.2540 C.2    14  LEU14       0.2593
      4  O         27.8470    6.1230   -1.4630 O.2    14  LEU14      -0.2718
      5  CB        29.9540    6.9850    0.8120 C.3    14  LEU14       0.0284
      6  CG        31.1240    6.2960    1.4890 C.3    14  LEU14       0.0019
      7  CD1       31.0270    6.5880    2.9520 C.3    14  LEU14       0.0001
      8  CD2       31.1160    4.7840    1.2030 C.3    14  LEU14       0.0001
      9  N         28.2180    8.3410   -1.4840 N.am   15  GLY15      -0.1942
     10  CA        26.8710    8.6800   -1.9070 C.3    15  GLY15       0.2014
     11  C         26.7570   10.1460   -2.2610 C.2    15  GLY15       0.2639
     12  O         27.5920   10.9550   -1.8810 O.2    15  GLY15      -0.2714
     13  N         25.7240   10.4900   -3.0140 N.am   16  LYS16      -0.1963
     14  CA        25.4850   11.8820   -3.3690 C.3    16  LYS16       0.1728
     15  C         24.0170   12.1780   -3.1710 C.2    16  LYS16       0.2617
     16  O         23.1680   11.5470   -3.7910 O.2    16  LYS16      -0.2715
     17  CB        25.8980   12.1540   -4.8190 C.3    16  LYS16       0.0311
     18  CG        26.1520   13.6330   -5.1400 C.3    16  LYS16       0.0038
     19  CD        26.4750   13.8550   -6.6290 C.3    16  LYS16       0.0206
     20  CE        27.8990   13.4000   -6.9810 C.3    16  LYS16       0.1093
     21  NZ        28.0870   13.0950   -8.4420 N.3    16  LYS16      -0.1314
     22  N         23.7180   13.1120   -2.2790 N.am   17  GLY17      -0.1940
     23  CA        22.3690   13.6360   -2.1720 C.3    17  GLY17       0.2014
     24  C         22.2730   14.9960   -2.8430 C.2    17  GLY17       0.2640
     25  O         23.2240   15.4700   -3.4740 O.2    17  GLY17      -0.2714
     26  N         21.1200   15.6320   -2.6900 N.am   18  SER18      -0.1935
     27  CA        20.8690   16.9460   -3.2860 C.3    18  SER18       0.2055
     28  C         21.6130   18.1030   -2.5900 C.2    18  SER18       0.2643
     29  O         21.8180   19.1540   -3.2020 O.2    18  SER18      -0.2714
     30  CB        19.3710   17.2230   -3.2700 C.3    18  SER18       0.2130
     31  OG        18.9080   17.1630   -1.9290 O.3    18  SER18      -0.2179
     32  N         21.9970   17.9060   -1.3220 N.am   19  PHE19      -0.1959
     33  CA        22.7000   18.9210   -0.5350 C.3    19  PHE19       0.1771
     34  C         24.2090   18.9250   -0.7610 C.2    19  PHE19       0.2620
     35  O         24.8360   19.9820   -0.7940 O.2    19  PHE19      -0.2715
     36  CB        22.4190   18.7300    0.9560 C.3    19  PHE19       0.0574
     37  CG        21.0530   19.2040    1.3880 C.ar   19  PHE19      -0.0200
     38  CD1       20.8190   20.5610    1.6400 C.ar   19  PHE19      -0.0042
     39  CD2       19.9970   18.2900    1.5460 C.ar   19  PHE19      -0.0042
     40  CE1       19.5590   21.0110    2.0520 C.ar   19  PHE19      -0.0003
     41  CE2       18.7250   18.7270    1.9560 C.ar   19  PHE19      -0.0003
     42  CZ        18.5080   20.0900    2.2140 C.ar   19  PHE19      -0.0000
     43  N         24.7800   17.7320   -0.8850 N.am   20  GLY20      -0.1954
     44  CA        26.1970   17.5500   -1.1270 C.3    20  GLY20       0.1869
     45  C         26.5270   16.0890   -1.3430 C.2    20  GLY20       0.2309
     46  O         25.6470   15.2440   -1.3790 O.2    20  GLY20      -0.2863
     47  N         28.6440   12.5950   -0.1400 N.3    22  VAL22      -0.1245
     48  CA        29.1620   11.9660    1.0540 C.3    22  VAL22       0.1561
     49  C         30.3170   11.0780    0.6590 C.2    22  VAL22       0.2260
     50  O         30.1930   10.2190   -0.2150 O.2    22  VAL22      -0.2867
     51  CB        28.0890   11.1790    1.8720 C.3    22  VAL22       0.0252
     52  CG1       28.7160   10.6060    3.1460 C.3    22  VAL22       0.0019
     53  CG2       26.9430   12.0790    2.2440 C.3    22  VAL22       0.0019
     54  N         32.6040    9.1880    7.6550 N.3    35  ALA35      -0.1245
     55  CA        31.8290    9.6730    6.5160 C.3    35  ALA35       0.1562
     56  C         31.8300   11.1820    6.5530 C.2    35  ALA35       0.2260
     57  O         31.6300   11.7760    7.6250 O.2    35  ALA35      -0.2867
     58  CB        30.3860    9.1070    6.5290 C.3    35  ALA35       0.0290
     59  N         30.2520   14.6680    4.7340 N.3    37  LYS37      -0.1245
     60  CA        29.4160   15.3940    3.7770 C.3    37  LYS37       0.1561
     61  C         30.1070   16.7070    3.3820 C.2    37  LYS37       0.2260
     62  O         30.4680   17.5340    4.2340 O.2    37  LYS37      -0.2867
     63  CB        28.0050   15.6610    4.3190 C.3    37  LYS37       0.0271
     64  CG        27.0580   16.2440    3.2740 C.3    37  LYS37       0.0035
     65  CD        25.6190   16.2910    3.7750 C.3    37  LYS37       0.0206
     66  CE        25.0210   14.8990    3.9300 C.3    37  LYS37       0.1093
     67  NZ        23.8530   14.9410    4.8510 N.3    37  LYS37      -0.1314
     68  N         22.4450    9.7770   13.7220 N.3    67  MET67      -0.1196
     69  CA        23.7640   10.0160   13.1330 C.3    67  MET67       0.1786
     70  C         24.6090   10.8670   14.1020 C.2    67  MET67       0.2306
     71  O         24.1270   11.8480   14.6480 O.2    67  MET67      -0.2863
     72  CB        23.6830   10.6680   11.7240 C.2    67  MET67       0.0070
     73  CG        23.1340   12.1340   11.6100 C.2    67  MET67       0.0282
     74  SD        23.0150   12.8220    9.8690 S.3    67  MET67      -0.1125
     75  CE        22.5050   14.5310   10.2210 C.3    67  MET67       0.0742
     76  N         31.2760   12.7520   10.1860 N.3    83  GLY83      -0.1210
     77  CA        30.4620   11.9170   11.0520 C.3    83  GLY83       0.1956
     78  C         30.8290   10.4500   10.9760 C.2    83  GLY83       0.2612
     79  O         31.7110   10.0610   10.2180 O.2    83  GLY83      -0.2717
     80  N         30.1230    9.6550   11.7740 N.am   84  GLU84      -0.1965
     81  CA        30.3010    8.2310   11.8960 C.3    84  GLU84       0.1733
     82  C         29.9610    7.5470   10.5790 C.2    84  GLU84       0.2616
     83  O         28.9930    7.9010    9.9260 O.2    84  GLU84      -0.2715
     84  CB        29.3950    7.6920   13.0100 C.3    84  GLU84       0.0429
     85  CG        30.1200    7.1500   14.2200 C.3    84  GLU84       0.1163
     86  CD        29.1770    6.7940   15.3580 C.2    84  GLU84       0.3649
     87  OE1       27.9250    6.8890   15.2030 O.co2  84  GLU84      -0.2457
     88  OE2       29.6990    6.4180   16.4270 O.co2  84  GLU84      -0.2457
     89  N         30.7890    6.5870   10.1910 N.am   85  LEU85      -0.1963
     90  CA        30.5680    5.8510    8.9730 C.3    85  LEU85       0.1728
     91  C         29.7220    4.6240    9.3090 C.2    85  LEU85       0.2616
     92  O         30.0980    3.8460   10.1730 O.2    85  LEU85      -0.2715
     93  CB        31.9190    5.4180    8.4020 C.3    85  LEU85       0.0311
     94  CG        31.8800    4.5170    7.1710 C.3    85  LEU85       0.0022
     95  CD1       31.2600    5.2780    6.0140 C.3    85  LEU85       0.0001
     96  CD2       33.2670    4.0340    6.8390 C.3    85  LEU85       0.0001
     97  N         28.5730    4.4740    8.6560 N.am   86  TYR86      -0.1974
     98  CA        27.7090    3.2920    8.8750 C.3    86  TYR86       0.1639
     99  C         27.7850    2.4650    7.6050 C.2    86  TYR86       0.2290
    100  O         27.8330    3.0320    6.5090 O.2    86  TYR86      -0.2864
    101  CB        26.2640    3.6940    9.2490 C.3    86  TYR86       0.0560
    102  CG        26.2210    4.6890   10.4190 C.ar   86  TYR86      -0.0198
    103  CD1       26.6970    4.3280   11.6860 C.ar   86  TYR86      -0.0009
    104  CD2       25.7280    5.9720   10.2510 C.ar   86  TYR86      -0.0009
    105  CE1       26.6700    5.2220   12.7510 C.ar   86  TYR86       0.0417
    106  CE2       25.6980    6.8960   11.3170 C.ar   86  TYR86       0.0417
    107  CZ        26.1670    6.5130   12.5570 C.ar   86  TYR86       0.1957
    108  OH        26.1490    7.4000   13.6100 O.3    86  TYR86      -0.2866
    109  N         20.8180    1.0450    3.7940 N.3    90  GLU90      -0.1245
    110  CA        19.5320    1.6340    4.1470 C.3    90  GLU90       0.1567
    111  C         18.5790    0.6080    4.7020 C.2    90  GLU90       0.2260
    112  O         18.6040   -0.5470    4.2710 O.2    90  GLU90      -0.2867
    113  CB        18.8880    2.2540    2.9070 C.3    90  GLU90       0.0388
    114  CG        19.5850    3.4960    2.3960 C.3    90  GLU90       0.1160
    115  CD        19.2030    3.7980    0.9330 C.2    90  GLU90       0.3649
    116  OE1       18.3150    3.1390    0.3650 O.co2  90  GLU90      -0.2457
    117  OE2       19.8020    4.6860    0.3380 O.co2  90  GLU90      -0.2457
    118  N         11.6320   14.3210    6.4090 N.3   129  ASP129     -0.1239
    119  CA        11.6750   13.3360    5.3220 C.3   129  ASP129      0.1674
    120  C         12.0220   11.9520    5.8410 C.2   129  ASP129      0.2266
    121  O         12.8920   11.2630    5.3110 O.2   129  ASP129     -0.2867
    122  CB        12.6490   13.8090    4.2150 C.3   129  ASP129      0.1410
    123  CG        12.5470   12.9900    2.9350 C.2   129  ASP129      0.3668
    124  OD1       11.4910   12.3700    2.6650 O.co2 129  ASP129     -0.2456
    125  OD2       13.5450   12.9680    2.1890 O.co2 129  ASP129     -0.2456
    126  N         14.8500    4.9170    3.3780 N.3   133  GLU133     -0.1231
    127  CA        16.0680    5.3530    2.7180 C.3   133  GLU133      0.1699
    128  C         16.9300    6.2490    3.5930 C.2   133  GLU133      0.2592
    129  O         18.1370    6.2850    3.4010 O.2   133  GLU133     -0.2718
    130  CB        15.7610    6.0470    1.3950 C.3   133  GLU133      0.0402
    131  CG        15.0420    5.1650    0.3860 C.3   133  GLU133      0.1161
    132  CD        13.5200    5.1690    0.5530 C.2   133  GLU133      0.3649
    133  OE1       13.0080    5.3220    1.6860 O.co2 133  GLU133     -0.2457
    134  OE2       12.8210    5.0010   -0.4690 O.co2 133  GLU133     -0.2457
    135  N         16.3270    6.9650    4.5450 N.am  134  ASN134     -0.1974
    136  CA        17.0720    7.8760    5.4050 C.3   134  ASN134      0.1688
    137  C         17.3250    7.2870    6.7950 C.2   134  ASN134      0.2292
    138  O         17.6350    8.0200    7.7310 O.2   134  ASN134     -0.2864
    139  CB        16.3400    9.2040    5.5720 C.3   134  ASN134      0.1181
    140  CG        16.2600   10.0090    4.2870 C.2   134  ASN134      0.2629
    141  OD1       17.1120    9.8970    3.4190 O.2   134  ASN134     -0.2716
    142  ND2       15.2250   10.8310    4.1700 N.am  134  ASN134     -0.0877
    143  N         19.8260    4.2580    8.2600 N.3   136  LEU136     -0.1245
    144  CA        20.8950    3.3400    7.8820 C.3   136  LEU136      0.1561
    145  C         21.0880    2.2860    8.9660 C.2   136  LEU136      0.2260
    146  O         20.7900    2.5530   10.1420 O.2   136  LEU136     -0.2867
    147  CB        22.2110    4.1000    7.6580 C.3   136  LEU136      0.0270
    148  CG        22.3160    5.1940    6.5740 C.3   136  LEU136      0.0019
    149  CD1       23.7580    5.5700    6.3720 C.3   136  LEU136      0.0001
    150  CD2       21.6750    4.8120    5.2030 C.3   136  LEU136      0.0001
    151  N         19.4750    9.4040    9.5830 N.3   149  ILE149     -0.1231
    152  CA        20.3190   10.3710    8.8620 C.3   149  ILE149      0.1692
    153  C         19.5050   11.4030    8.0730 C.2   149  ILE149      0.2592
    154  O         18.2510   11.3540    8.0280 O.2   149  ILE149     -0.2718
    155  CB        21.3300    9.6630    7.9140 C.3   149  ILE149      0.0266
    156  CG1       20.6190    8.9240    6.7700 C.3   149  ILE149      0.0019
    157  CG2       22.1810    8.6870    8.6860 C.3   149  ILE149      0.0020
    158  CD1       21.4670    8.8030    5.5330 C.3   149  ILE149      0.0001
    159  N         20.2240   12.3670    7.4860 N.am  150  ASP150     -0.1974
    160  CA        19.6690   13.2780    6.4750 C.3   150  ASP150      0.1709
    161  C         18.6180   14.2450    7.0040 C.2   150  ASP150      0.2293
    162  O         17.4810   14.2410    6.5470 O.2   150  ASP150     -0.2864
    163  CB        19.0900   12.4410    5.3200 C.3   150  ASP150      0.1436
    164  CG        18.9530   13.2320    4.0340 C.2   150  ASP150      0.3671
    165  OD1       19.3090   14.4320    4.0260 O.co2 150  ASP150     -0.2456
    166  OD2       18.4800   12.6460    3.0280 O.co2 150  ASP150     -0.2456
    167  N         19.5330   20.2780    7.7780 N.3   153  LEU153     -0.1245
    168  CA        20.2170   21.2170    6.8840 C.3   153  LEU153      0.1561
    169  C         19.3300   22.2570    6.1870 C.2   153  LEU153      0.2260
    170  O         19.8490   23.2600    5.6740 O.2   153  LEU153     -0.2867
    171  CB        21.0250   20.4460    5.8360 C.3   153  LEU153      0.0270
    172  CG        22.0970   19.4830    6.3770 C.3   153  LEU153      0.0019
    173  CD1       22.7870   18.7860    5.2070 C.3   153  LEU153      0.0001
    174  CD2       23.1180   20.2100    7.2900 C.3   153  LEU153      0.0001
    175  N         18.9620   22.7820   -1.6050 N.3   159  GLN159     -0.1245
    176  CA        19.1670   21.5050   -2.2960 C.3   159  GLN159      0.1566
    177  C         19.3090   21.7000   -3.7880 C.2   159  GLN159      0.2260
    178  O         19.3730   22.8210   -4.2760 O.2   159  GLN159     -0.2867
    179  CB        17.9830   20.5730   -2.0970 C.3   159  GLN159      0.0367
    180  CG        17.3190   20.6280   -0.7650 C.3   159  GLN159      0.0905
    181  CD        16.1910   19.6290   -0.7010 C.2   159  GLN159      0.2608
    182  OE1       15.0200   19.9990   -0.8040 O.2   159  GLN159     -0.2717
    183  NE2       16.5350   18.3480   -0.5720 N.am  159  GLN159     -0.0878
@<TRIPOS>BOND
     1    21    20    1
     2    20    19    1
     3    19    18    1
     4    18    17    1
     5    17    14    1
     6   178   177    2
     7    16    15    2
     8   177   176    1
     9    25    24    2
    10    14    15    1
    11    14    13    1
    12    27    30    1
    13    27    26    1
    14    27    28    1
    15    30    31    1
    16    29    28    2
    17    15    22   am
    18    13    11   am
    19    24    26   am
    20    24    23    1
    21    28    32   am
    22   176   179    1
    23   176   175    1
    24    22    23    1
    25    11    10    1
    26    11    12    2
    27   179   180    1
    28    10     9    1
    29     9     3   am
    30     4     3    2
    31    46    45    2
    32    45    44    1
    33    32    33    1
    34     1     2    1
    35     3     2    1
    36    44    43    1
    37    43    34   am
    38   182   181    2
    39    35    34    2
    40   180   181    1
    41    34    33    1
    42     2     5    1
    43   181   183   am
    44    33    36    1
    45   134   132   ar
    46    50    49    2
    47    47    48    1
    48   117   115   ar
    49   116   115   ar
    50   131   132    1
    51   131   130    1
    52   132   133   ar
    53    49    48    1
    54     5     6    1
    55   115   114    1
    56    36    37    1
    57    48    51    1
    58     8     6    1
    59    37    39   ar
    60    37    38   ar
    61   130   127    1
    62     6     7    1
    63    39    41   ar
    64    38    40   ar
    65    51    53    1
    66    51    52    1
    67    41    42   ar
    68    40    42   ar
    69   125   123   ar
    70   114   113    1
    71   124   123   ar
    72   127   126    1
    73   127   128    1
    74   113   110    1
    75   123   122    1
    76   166   164   ar
    77    64    65    1
    78    64    63    1
    79    61    60    1
    80    61    62    2
    81   129   128    2
    82   141   140    2
    83   128   135   am
    84    65    66    1
    85    60    63    1
    86    60    59    1
    87   109   110    1
    88    66    67    1
    89   165   164   ar
    90   164   163    1
    91   110   111    1
    92   142   140   am
    93   122   119    1
    94   112   111    2
    95   140   139    1
    96   135   136    1
    97   150   148    1
    98   173   172    1
    99   121   120    2
   100   163   160    1
   101   119   120    1
   102   119   118    1
   103   136   139    1
   104   136   137    1
   105   158   156    1
   106   170   169    2
   107   171   172    1
   108   171   168    1
   109    95    94    1
   110   169   168    1
   111   149   148    1
   112   172   174    1
   113   160   161    1
   114   160   159    1
   115   100    99    2
   116    55    58    1
   117    55    56    1
   118    55    54    1
   119   162   161    2
   120    56    57    2
   121   148   147    1
   122   156   155    1
   123   137   138    2
   124    96    94    1
   125   168   167    1
   126    94    93    1
   127   159   153   am
   128    99    98    1
   129   147   144    1
   130   144   143    1
   131   144   145    1
   132   155   157    1
   133   155   152    1
   134   154   153    2
   135   153   152    1
   136    93    90    1
   137    97    98    1
   138    97    91   am
   139   152   151    1
   140    98   101    1
   141   145   146    2
   142    90    91    1
   143    90    89    1
   144   101   102    1
   145    91    92    2
   146    74    75    1
   147    74    73    1
   148    83    82    2
   149    76    77    1
   150    89    82   am
   151    79    78    2
   152   104   102   ar
   153   104   106   ar
   154   102   103   ar
   155    82    81    1
   156    78    77    1
   157    78    80   am
   158   106   107   ar
   159    73    72    2
   160   103   105   ar
   161    72    69    1
   162    80    81    1
   163    81    84    1
   164   107   105   ar
   165   107   108    1
   166    84    85    1
   167    69    68    1
   168    69    70    1
   169    70    71    2
   170    85    86    1
   171    87    86   ar
   172    86    88   ar
