@<TRIPOS>MOLECULE
tmp/3igpA01.pdb
 100 103 0 0 0
SMALL
GASTEIGER

@<TRIPOS>ATOM
      1  N         10.2430    4.3870   12.3330 N.3     1  SER1       -0.1217
      2  CA        10.2150    5.0930   11.0260 C.3     1  SER1        0.1889
      3  C          9.5500    4.2860    9.9150 C.2     1  SER1        0.2288
      4  O          8.4060    3.8410   10.0510 O.2     1  SER1       -0.2866
      5  CB        11.6260    5.4720   10.4880 C.3     1  SER1        0.2089
      6  OG        12.4530    4.3290   10.4100 O.3     1  SER1       -0.2183
      7  N          9.6830    1.2410    8.5330 N.3     3  HIS3       -0.1226
      8  CA         9.5630   -0.1950    8.2740 C.3     3  HIS3        0.1752
      9  C          9.0960   -1.1150    9.4010 C.2     3  HIS3        0.2596
     10  O          9.3790   -2.3060    9.3500 O.2     3  HIS3       -0.2718
     11  CB        10.9120   -0.7090    7.7500 C.3     3  HIS3        0.0759
     12  CG        10.8890   -2.1450    7.2610 C.ar    3  HIS3        0.0818
     13  ND1       10.8210   -2.5530    6.0000 N.ar    3  HIS3       -0.2268
     14  CD2       11.0610   -3.2570    8.0420 C.ar    3  HIS3        0.1154
     15  CE1       10.9640   -3.8560    5.9700 C.ar    3  HIS3        0.1986
     16  NE2       11.1070   -4.2580    7.2000 N.ar    3  HIS3       -0.2212
     17  N          8.3480   -0.6140   10.3820 N.am    4  TRP4       -0.1976
     18  CA         7.7190   -1.5170   11.3370 C.3     4  TRP4        0.1640
     19  C          6.6740   -2.3250   10.5840 C.2     4  TRP4        0.2290
     20  O          6.1290   -1.8800    9.5760 O.2     4  TRP4       -0.2864
     21  CB         7.0860   -0.7860   12.5240 C.3     4  TRP4        0.0576
     22  CG         5.8740    0.0380   12.1710 C.ar    4  TRP4        0.0006
     23  CD1        5.8410    1.3800   11.8950 C.ar    4  TRP4        0.0946
     24  CD2        4.5180   -0.4120   12.0990 C.ar    4  TRP4        0.0152
     25  NE1        4.5610    1.7770   11.6270 N.ar    4  TRP4       -0.2442
     26  CE2        3.7260    0.7000   11.7500 C.ar    4  TRP4        0.0810
     27  CE3        3.8950   -1.6480   12.2970 C.ar    4  TRP4        0.0012
     28  CZ2        2.3430    0.6160   11.5910 C.ar    4  TRP4        0.0191
     29  CZ3        2.5210   -1.7280   12.1330 C.ar    4  TRP4        0.0001
     30  CH2        1.7610   -0.6030   11.7830 C.ar    4  TRP4        0.0015
     31  N         11.0100  -10.0920   11.5200 N.3     9  HIS9       -0.1226
     32  CA        12.1350   -9.1920   11.7270 C.3     9  HIS9        0.1752
     33  C         11.7750   -7.7430   12.0230 C.2     9  HIS9        0.2596
     34  O         12.6380   -6.9640   12.4120 O.2     9  HIS9       -0.2718
     35  CB        13.0550   -9.2780   10.5170 C.3     9  HIS9        0.0759
     36  CG        13.6710  -10.6300   10.3390 C.ar    9  HIS9        0.0818
     37  ND1       13.3300  -11.4790    9.3070 N.ar    9  HIS9       -0.2268
     38  CD2       14.6050  -11.2850   11.0700 C.ar    9  HIS9        0.1154
     39  CE1       14.0340  -12.5940    9.4040 C.ar    9  HIS9        0.1986
     40  NE2       14.8070  -12.5040   10.4720 N.ar    9  HIS9       -0.2212
     41  N         10.5050   -7.3770   11.8460 N.am   10  ASN10      -0.1974
     42  CA        10.0450   -6.0190   12.1140 C.3    10  ASN10       0.1688
     43  C          8.7290   -5.9890   12.8990 C.2    10  ASN10       0.2292
     44  O          8.0510   -4.9640   12.9220 O.2    10  ASN10      -0.2864
     45  CB         9.8430   -5.2530   10.8110 C.3    10  ASN10       0.1181
     46  CG         8.7380   -5.8580    9.9450 C.2    10  ASN10       0.2629
     47  OD1        8.2310   -6.9450   10.2360 O.2    10  ASN10      -0.2716
     48  ND2        8.3880   -5.1680    8.8540 N.am   10  ASN10      -0.0877
     49  N          9.9090   -5.8880   18.0640 N.3    14  HIS14      -0.1226
     50  CA        10.9360   -4.9440   17.6220 C.3    14  HIS14       0.1752
     51  C         10.5220   -3.4780   17.7500 C.2    14  HIS14       0.2596
     52  O         11.3750   -2.5790   17.6800 O.2    14  HIS14      -0.2718
     53  CB        11.2890   -5.2120   16.1620 C.3    14  HIS14       0.0759
     54  CG        11.9760   -6.5290   15.9400 C.ar   14  HIS14       0.0818
     55  ND1       13.3440   -6.6720   16.0280 N.ar   14  HIS14      -0.2268
     56  CD2       11.4880   -7.7570   15.6380 C.ar   14  HIS14       0.1154
     57  CE1       13.6670   -7.9320   15.7890 C.ar   14  HIS14       0.1986
     58  NE2       12.5570   -8.6170   15.5710 N.ar   14  HIS14      -0.2212
     59  N          9.2260   -3.2270   17.9250 N.am   15  TRP15      -0.1976
     60  CA         8.7200   -1.8530   17.8500 C.3    15  TRP15       0.1640
     61  C          9.3250   -0.9070   18.8940 C.2    15  TRP15       0.2290
     62  O          9.4760    0.2760   18.6360 O.2    15  TRP15      -0.2864
     63  CB         7.1990   -1.8440   17.9960 C.3    15  TRP15       0.0576
     64  CG         6.4980   -2.5350   16.8910 C.ar   15  TRP15       0.0006
     65  CD1        7.0350   -2.9540   15.7060 C.ar   15  TRP15       0.0946
     66  CD2        5.1000   -2.8180   16.8200 C.ar   15  TRP15       0.0152
     67  NE1        6.0600   -3.5440   14.9330 N.ar   15  TRP15      -0.2442
     68  CE2        4.8600   -3.4460   15.5810 C.ar   15  TRP15       0.0810
     69  CE3        4.0410   -2.6550   17.7100 C.ar   15  TRP15       0.0012
     70  CZ2        3.5900   -3.8760   15.1940 C.ar   15  TRP15       0.0191
     71  CZ3        2.7790   -3.0570   17.3290 C.ar   15  TRP15       0.0001
     72  CH2        2.5610   -3.6820   16.0840 C.ar   15  TRP15       0.0015
     73  N         12.2120   -0.3950   19.8540 N.3    17  LYS17      -0.1231
     74  CA        13.4750    0.2350   19.4680 C.3    17  LYS17       0.1693
     75  C         13.2790    1.5870   18.7880 C.2    17  LYS17       0.2592
     76  O         14.1690    2.4290   18.8230 O.2    17  LYS17      -0.2718
     77  CB        14.2570   -0.6940   18.5550 C.3    17  LYS17       0.0285
     78  CG        14.8100   -1.9150   19.2670 C.3    17  LYS17       0.0035
     79  CD        15.5870   -2.8110   18.3260 C.3    17  LYS17       0.0206
     80  CE        14.6780   -3.6920   17.5060 C.3    17  LYS17       0.1093
     81  NZ        15.4300   -4.5290   16.5130 N.3    17  LYS17      -0.1314
     82  N         12.1230    1.7800   18.1510 N.am   18  ASP18      -0.1960
     83  CA        11.7840    3.0700   17.5530 C.3    18  ASP18       0.1840
     84  C         10.6660    3.8300   18.2870 C.2    18  ASP18       0.2622
     85  O         10.5340    5.0380   18.1220 O.2    18  ASP18      -0.2715
     86  CB        11.4650    2.8890   16.0860 C.3    18  ASP18       0.1450
     87  CG        12.7080    2.6120   15.2740 C.2    18  ASP18       0.3671
     88  OD1       13.3630    3.5890   14.8780 O.co2  18  ASP18      -0.2456
     89  OD2       13.0650    1.4180   15.0930 O.co2  18  ASP18      -0.2456
     90  N          9.8830    3.1020   19.0780 N.am   19  PHE19      -0.1974
     91  CA         8.7390    3.6270   19.7990 C.3    19  PHE19       0.1639
     92  C          8.8360    3.0830   21.2350 C.2    19  PHE19       0.2290
     93  O          8.2090    2.0880   21.5640 O.2    19  PHE19      -0.2864
     94  CB         7.4530    3.1740   19.0990 C.3    19  PHE19       0.0560
     95  CG         7.4200    3.5380   17.6470 C.ar   19  PHE19      -0.0200
     96  CD1        7.0740    4.8140   17.2540 C.ar   19  PHE19      -0.0042
     97  CD2        7.7970    2.6090   16.6760 C.ar   19  PHE19      -0.0042
     98  CE1        7.0590    5.1540   15.9260 C.ar   19  PHE19      -0.0003
     99  CE2        7.8120    2.9540   15.3370 C.ar   19  PHE19      -0.0003
    100  CZ         7.4560    4.2190   14.9640 C.ar   19  PHE19      -0.0000
@<TRIPOS>BOND
     1    15    13   ar
     2    15    16   ar
     3    13    12   ar
     4    16    14   ar
     5    12    11    1
     6    12    14   ar
     7    11     8    1
     8     8     7    1
     9     8     9    1
    10    48    46   am
    11    37    39   ar
    12    37    36   ar
    13    10     9    2
    14     9    17   am
    15    39    40   ar
    16    20    19    2
    17     3     4    2
    18     3     2    1
    19    46    47    2
    20    46    45    1
    21    36    35    1
    22    36    38   ar
    23    17    18    1
    24     6     5    1
    25    40    38   ar
    26     5     2    1
    27    35    32    1
    28    19    18    1
    29    45    42    1
    30     2     1    1
    31    18    21    1
    32    31    32    1
    33    28    26   ar
    34    28    30   ar
    35    25    26   ar
    36    25    23   ar
    37    32    33    1
    38    26    24   ar
    39    30    29   ar
    40    41    33   am
    41    41    42    1
    42    23    22   ar
    43    33    34    2
    44    24    22   ar
    45    24    27   ar
    46    42    43    1
    47    29    27   ar
    48    22    21    1
    49    43    44    2
    50    88    87   ar
    51    67    68   ar
    52    67    65   ar
    53   100    99   ar
    54   100    98   ar
    55    89    87   ar
    56    70    68   ar
    57    70    72   ar
    58    87    86    1
    59    99    97   ar
    60    58    56   ar
    61    58    57   ar
    62    68    66   ar
    63    56    54   ar
    64    65    64   ar
    65    57    55   ar
    66    98    96   ar
    67    54    55   ar
    68    54    53    1
    69    72    71   ar
    70    86    83    1
    71    53    50    1
    72    81    80    1
    73    97    95   ar
    74    66    64   ar
    75    66    69   ar
    76    64    63    1
    77    96    95   ar
    78    71    69   ar
    79    80    79    1
    80    83    82    1
    81    83    84    1
    82    50    51    1
    83    50    49    1
    84    95    94    1
    85    52    51    2
    86    51    59   am
    87    60    59    1
    88    60    63    1
    89    60    61    1
    90    85    84    2
    91    82    75   am
    92    84    90   am
    93    79    78    1
    94    77    78    1
    95    77    74    1
    96    62    61    2
    97    75    76    2
    98    75    74    1
    99    90    91    1
   100    94    91    1
   101    74    73    1
   102    91    92    1
   103    92    93    2
