@<TRIPOS>MOLECULE
tmp/3igpA00.pdb
 161 159 0 0 0
SMALL
GASTEIGER

@<TRIPOS>ATOM
      1  N          8.3480   -0.6140   10.3820 N.3     4  TRP4       -0.1241
      2  CA         7.7190   -1.5170   11.3370 C.3     4  TRP4        0.1605
      3  C          6.6740   -2.3250   10.5840 C.2     4  TRP4        0.2264
      4  O          6.1290   -1.8800    9.5760 O.2     4  TRP4       -0.2867
      5  CB         7.0860   -0.7860   12.5240 C.3     4  TRP4        0.0550
      6  CG         5.8740    0.0380   12.1710 C.ar    4  TRP4        0.0003
      7  CD1        5.8410    1.3800   11.8950 C.ar    4  TRP4        0.0946
      8  CD2        4.5180   -0.4120   12.0990 C.ar    4  TRP4        0.0152
      9  NE1        4.5610    1.7770   11.6270 N.ar    4  TRP4       -0.2442
     10  CE2        3.7260    0.7000   11.7500 C.ar    4  TRP4        0.0810
     11  CE3        3.8950   -1.6480   12.2970 C.ar    4  TRP4        0.0012
     12  CZ2        2.3430    0.6160   11.5910 C.ar    4  TRP4        0.0191
     13  CZ3        2.5210   -1.7280   12.1330 C.ar    4  TRP4        0.0001
     14  CH2        1.7610   -0.6030   11.7830 C.ar    4  TRP4        0.0015
     15  N         -0.7530   -2.3070    6.1940 N.3    63  HIS63      -0.1241
     16  CA        -0.8530   -2.9060    7.5460 C.3    63  HIS63       0.1621
     17  C         -2.2220   -3.5250    7.7780 C.2    63  HIS63       0.2264
     18  O         -2.3640   -4.5290    8.4660 O.2    63  HIS63      -0.2867
     19  CB        -0.6380   -1.8470    8.6200 C.3    63  HIS63       0.0745
     20  CG         0.6840   -1.1590    8.5320 C.ar   63  HIS63       0.0817
     21  ND1        1.8770   -1.8330    8.6620 N.ar   63  HIS63      -0.2268
     22  CD2        0.9980    0.1410    8.3410 C.ar   63  HIS63       0.1154
     23  CE1        2.8760   -0.9730    8.5610 C.ar   63  HIS63       0.1986
     24  NE2        2.3720    0.2300    8.3480 N.ar   63  HIS63      -0.2212
     25  N         -8.4790    0.2810    5.7430 N.3    66  ASN66      -0.1240
     26  CA        -9.2390    1.2560    6.5160 C.3    66  ASN66       0.1653
     27  C        -10.4590    1.6720    5.7040 C.2    66  ASN66       0.2266
     28  O        -10.3230    2.0980    4.5520 O.2    66  ASN66      -0.2867
     29  CB        -8.4310    2.5480    6.7690 C.3    66  ASN66       0.1155
     30  CG        -7.2840    2.3690    7.7230 C.2    66  ASN66       0.2627
     31  OD1       -7.1460    1.3400    8.3860 O.2    66  ASN66      -0.2716
     32  ND2       -6.4230    3.3920    7.7910 N.am   66  ASN66      -0.0877
     33  N        -14.0750    8.2010   12.7510 N.3    90  ILE90      -0.1231
     34  CA       -13.1750    8.5440   11.6450 C.3    90  ILE90       0.1692
     35  C        -12.8830    7.3860   10.6860 C.2    90  ILE90       0.2591
     36  O        -12.6740    7.6190    9.5000 O.2    90  ILE90      -0.2718
     37  CB       -11.8370    9.1600   12.1850 C.3    90  ILE90       0.0266
     38  CG1      -10.8890    9.4740   11.0370 C.3    90  ILE90       0.0019
     39  CG2      -11.1290    8.2440   13.1930 C.3    90  ILE90       0.0020
     40  CD1       -9.7040   10.3530   11.4610 C.3    90  ILE90       0.0001
     41  N        -12.8280    6.1470   11.1890 N.am   91  GLN91      -0.1979
     42  CA       -12.4870    5.0090   10.3500 C.3    91  GLN91       0.1601
     43  C        -12.7220    3.7290   11.0990 C.2    91  GLN91       0.2287
     44  O        -12.8320    3.7460   12.3290 O.2    91  GLN91      -0.2864
     45  CB       -11.0230    5.0690    9.8970 C.3    91  GLN91       0.0394
     46  CG        -9.9960    5.0800   11.0010 C.3    91  GLN91       0.0908
     47  CD        -9.1360    3.8440   10.9860 C.2    91  GLN91       0.2608
     48  OE1       -9.6300    2.7480   11.1480 O.2    91  GLN91      -0.2717
     49  NE2       -7.8470    4.0220   10.7800 N.am   91  GLN91      -0.0878
     50  N        -11.1850   -0.5180   10.8870 N.3    93  HIS93      -0.1241
     51  CA       -10.3270   -1.5020   10.2600 C.3    93  HIS93       0.1621
     52  C        -10.3670   -2.7630   11.1050 C.2    93  HIS93       0.2264
     53  O        -11.0070   -2.7900   12.1670 O.2    93  HIS93      -0.2867
     54  CB        -8.9150   -0.9690   10.2190 C.3    93  HIS93       0.0745
     55  CG        -8.3590   -0.6870   11.5810 C.ar   93  HIS93       0.0817
     56  ND1       -8.4430    0.5500   12.1710 N.ar   93  HIS93      -0.2268
     57  CD2       -7.7770   -1.5010   12.4910 C.ar   93  HIS93       0.1154
     58  CE1       -7.9100    0.4880   13.3830 C.ar   93  HIS93       0.1986
     59  NE2       -7.5000   -0.7440   13.5990 N.ar   93  HIS93      -0.2212
     60  N         -7.9930   -6.4480   12.4370 N.3    95  HIS95      -0.1241
     61  CA        -6.8100   -7.2700   12.6050 C.3    95  HIS95       0.1621
     62  C         -7.2440   -8.7210   12.4930 C.2    95  HIS95       0.2264
     63  O         -8.3050   -9.1010   13.0020 O.2    95  HIS95      -0.2867
     64  CB        -6.1580   -7.0130   13.9550 C.3    95  HIS95       0.0745
     65  CG        -5.8680   -5.5670   14.2150 C.ar   95  HIS95       0.0817
     66  ND1       -4.6210   -5.0050   14.0400 N.ar   95  HIS95      -0.2268
     67  CD2       -6.6880   -4.5580   14.5950 C.ar   95  HIS95       0.1154
     68  CE1       -4.6850   -3.7130   14.3440 C.ar   95  HIS95       0.1986
     69  NE2       -5.9320   -3.4190   14.6710 N.ar   95  HIS95      -0.2212
     70  N        -11.9200   -2.7070   14.7900 N.3   118  HIS118     -0.1241
     71  CA       -11.7060   -1.4800   15.5430 C.3   118  HIS118      0.1621
     72  C        -12.4120   -0.3280   14.8940 C.2   118  HIS118      0.2264
     73  O        -12.0480    0.0830   13.7950 O.2   118  HIS118     -0.2867
     74  CB       -10.2150   -1.1850   15.6890 C.3   118  HIS118      0.0745
     75  CG        -9.5190   -2.1670   16.5630 C.ar  118  HIS118      0.0817
     76  ND1       -8.1630   -2.3840   16.5220 N.ar  118  HIS118     -0.2268
     77  CD2      -10.0050   -2.9910   17.5190 C.ar  118  HIS118      0.1154
     78  CE1       -7.8440   -3.3040   17.4080 C.ar  118  HIS118      0.1986
     79  NE2       -8.9430   -3.6890   18.0290 N.ar  118  HIS118     -0.2212
     80  N        -12.8540    3.4650   15.1840 N.3   120  VAL120     -0.1245
     81  CA       -11.9700    4.4720   15.7910 C.3   120  VAL120      0.1561
     82  C        -12.6820    5.7940   15.8480 C.2   120  VAL120      0.2260
     83  O        -13.1920    6.2600   14.8210 O.2   120  VAL120     -0.2867
     84  CB       -10.7100    4.6260   14.9670 C.3   120  VAL120      0.0252
     85  CG1       -9.7630    5.6480   15.5790 C.3   120  VAL120      0.0019
     86  CG2      -10.0370    3.2670   14.8220 C.3   120  VAL120      0.0019
     87  N         -8.0140   14.8400   14.6910 N.3   129  PHE129     -0.1241
     88  CA        -7.4810   13.5570   15.1340 C.3   129  PHE129      0.1605
     89  C         -6.0390   13.6730   15.6070 C.2   129  PHE129      0.2264
     90  O         -5.6520   13.0530   16.5830 O.2   129  PHE129     -0.2867
     91  CB        -7.5980   12.5350   14.0010 C.3   129  PHE129      0.0534
     92  CG        -7.0660   11.1800   14.3410 C.ar  129  PHE129     -0.0203
     93  CD1       -7.8850   10.2220   14.8810 C.ar  129  PHE129     -0.0042
     94  CD2       -5.7310   10.8700   14.1230 C.ar  129  PHE129     -0.0042
     95  CE1       -7.3920    8.9730   15.1820 C.ar  129  PHE129     -0.0003
     96  CE2       -5.2370    9.6390   14.4420 C.ar  129  PHE129     -0.0003
     97  CZ        -6.0570    8.6860   14.9560 C.ar  129  PHE129     -0.0000
     98  N        -11.8410    3.6910   20.9920 N.3   141  VAL141     -0.1245
     99  CA       -11.8960    2.6460   19.9930 C.3   141  VAL141      0.1561
    100  C        -12.8570    1.5850   20.4940 C.2   141  VAL141      0.2260
    101  O        -12.7230    1.0810   21.6180 O.2   141  VAL141     -0.2867
    102  CB       -10.5160    2.0920   19.6560 C.3   141  VAL141      0.0252
    103  CG1      -10.6260    1.0240   18.5540 C.3   141  VAL141      0.0019
    104  CG2       -9.6170    3.2510   19.1620 C.3   141  VAL141      0.0019
    105  N         -2.9220    3.1720   21.2130 N.3   196  LEU196     -0.1231
    106  CA        -2.8990    2.6530   19.8410 C.3   196  LEU196      0.1693
    107  C         -2.1870    1.2970   19.8710 C.2   196  LEU196      0.2593
    108  O         -1.2010    1.1110   20.5990 O.2   196  LEU196     -0.2718
    109  CB        -2.1480    3.6000   18.9200 C.3   196  LEU196      0.0284
    110  CG        -2.5810    5.0570   18.8770 C.3   196  LEU196      0.0019
    111  CD1       -1.6320    5.8100   17.9450 C.3   196  LEU196      0.0001
    112  CD2       -4.0360    5.1850   18.4460 C.3   196  LEU196      0.0001
    113  N         -2.6470    0.3450   19.0650 N.am  197  THR197     -0.1939
    114  CA        -2.0000   -0.9720   19.0120 C.3   197  THR197      0.2028
    115  C         -0.9760   -1.1190   17.9040 C.2   197  THR197      0.2643
    116  O         -0.3840   -2.1890   17.7740 O.2   197  THR197     -0.2714
    117  CB        -2.9940   -2.1090   18.8560 C.3   197  THR197      0.1808
    118  OG1       -3.6450   -2.0260   17.5760 O.3   197  THR197     -0.2208
    119  CG2       -4.0130   -2.0900   20.0200 C.3   197  THR197      0.0379
    120  N         -0.7850   -0.0560   17.1150 N.am  198  THR198     -0.1937
    121  CA         0.3230    0.0260   16.1600 C.3   198  THR198      0.2013
    122  C          1.1770    1.2380   16.5120 C.2   198  THR198      0.2484
    123  O          0.6940    2.1860   17.1550 O.2   198  THR198     -0.2729
    124  CB        -0.1330    0.2080   14.7060 C.3   198  THR198      0.1807
    125  OG1       -0.6390    1.5370   14.5040 O.3   198  THR198     -0.2208
    126  CG2       -1.2260   -0.8310   14.3160 C.3   198  THR198      0.0379
    127  N          2.4410    1.2350   16.0490 N.am  199  PRO199     -0.2715
    128  CA         3.2080    2.4610   16.1390 C.3   199  PRO199      0.1521
    129  C          2.3670    3.6010   15.6130 C.2   199  PRO199      0.2440
    130  O          1.6670    3.4340   14.6080 O.2   199  PRO199     -0.2731
    131  CB         4.4060    2.1510   15.2490 C.3   199  PRO199      0.0310
    132  CG         4.6300    0.7100   15.5090 C.3   199  PRO199      0.0237
    133  CD         3.2340    0.1620   15.4300 C.3   199  PRO199      0.0939
    134  N          2.4390    4.7810   16.2540 N.am  200  PRO200     -0.2727
    135  CA         3.3430    5.2000   17.3340 C.3   200  PRO200      0.1402
    136  C          2.9460    4.7970   18.7820 C.2   200  PRO200      0.2269
    137  O          3.5910    5.2490   19.7300 O.2   200  PRO200     -0.2865
    138  CB         3.3160    6.7210   17.1940 C.3   200  PRO200      0.0296
    139  CG         1.9490    7.0080   16.7460 C.3   200  PRO200      0.0237
    140  CD         1.5650    5.8870   15.8290 C.3   200  PRO200      0.0939
    141  N         -6.0070    6.1860   24.2110 N.3   205  VAL205     -0.1245
    142  CA        -7.2590    5.4760   23.8630 C.3   205  VAL205      0.1561
    143  C         -8.0330    5.0090   25.0700 C.2   205  VAL205      0.2260
    144  O         -7.4750    4.3480   25.9450 O.2   205  VAL205     -0.2867
    145  CB        -6.9870    4.2520   22.9730 C.3   205  VAL205      0.0252
    146  CG1       -8.3240    3.5700   22.5470 C.3   205  VAL205      0.0019
    147  CG2       -6.1570    4.6650   21.7380 C.3   205  VAL205      0.0019
    148  N        -10.4110    2.2290   25.5950 N.3   207  TRP207     -0.1241
    149  CA       -10.8280    1.0320   24.8980 C.3   207  TRP207      0.1605
    150  C        -12.1650    0.5840   25.4090 C.2   207  TRP207      0.2264
    151  O        -12.3790    0.5130   26.6040 O.2   207  TRP207     -0.2867
    152  CB        -9.7880   -0.0890   25.0740 C.3   207  TRP207      0.0550
    153  CG        -8.6980    0.0430   24.0910 C.ar  207  TRP207      0.0003
    154  CD1       -7.4820    0.6350   24.2640 C.ar  207  TRP207      0.0946
    155  CD2       -8.7670   -0.3530   22.7200 C.ar  207  TRP207      0.0152
    156  NE1       -6.7780    0.6190   23.0700 N.ar  207  TRP207     -0.2442
    157  CE2       -7.5480    0.0060   22.1170 C.ar  207  TRP207      0.0810
    158  CE3       -9.7420   -1.0090   21.9460 C.ar  207  TRP207      0.0012
    159  CZ2       -7.2750   -0.2900   20.7890 C.ar  207  TRP207      0.0191
    160  CZ3       -9.4630   -1.2870   20.6390 C.ar  207  TRP207      0.0001
    161  CH2       -8.2520   -0.9230   20.0710 C.ar  207  TRP207      0.0015
@<TRIPOS>BOND
     1    28    27    2
     2    27    26    1
     3    25    26    1
     4    15    16    1
     5    26    29    1
     6    29    30    1
     7    16    17    1
     8    16    19    1
     9    30    32   am
    10    30    31    2
    11    17    18    2
    12    22    24   ar
    13    22    20   ar
    14    24    23   ar
    15    20    19    1
    16    20    21   ar
    17    23    21   ar
    18    36    35    2
    19     4     3    2
    20    45    42    1
    21    45    46    1
    22    54    51    1
    23    54    55    1
    24    51    50    1
    25    51    52    1
    26    42    43    1
    27    42    41    1
    28     1     2    1
    29     3     2    1
    30    35    41   am
    31    35    34    1
    32    49    47   am
    33    47    46    1
    34    47    48    2
    35    38    40    1
    36    38    37    1
    37    43    44    2
    38    52    53    2
    39     2     5    1
    40    55    56   ar
    41    55    57   ar
    42    12    10   ar
    43    12    14   ar
    44     9    10   ar
    45     9     7   ar
    46    34    37    1
    47    34    33    1
    48    10     8   ar
    49    14    13   ar
    50     7     6   ar
    51     8     6   ar
    52     8    11   ar
    53    13    11   ar
    54     6     5    1
    55    56    58   ar
    56    37    39    1
    57    60    61    1
    58    57    59   ar
    59    62    61    1
    60    62    63    2
    61    61    64    1
    62    58    59   ar
    63    73    72    2
    64    64    65    1
    65    91    92    1
    66    91    88    1
    67    66    65   ar
    68    66    68   ar
    69    94    92   ar
    70    94    96   ar
    71    65    67   ar
    72   126   124    1
    73    92    93   ar
    74    68    69   ar
    75    96    97   ar
    76   125   124    1
    77    67    69   ar
    78   130   129    2
    79    87    88    1
    80   124   121    1
    81    70    71    1
    82    83    82    2
    83    86    84    1
    84    93    95   ar
    85    72    71    1
    86    97    95   ar
    87    84    85    1
    88    84    81    1
    89    88    89    1
    90    80    81    1
    91   131   132    1
    92   131   128    1
    93   133   132    1
    94   133   127    1
    95    71    74    1
    96    89    90    2
    97   129   128    1
    98   129   134   am
    99    74    75    1
   100    81    82    1
   101   140   134    1
   102   140   139    1
   103   127   128    1
   104   127   122   am
   105   121   122    1
   106   121   120    1
   107   134   135    1
   108   122   123    2
   109    76    75   ar
   110    76    78   ar
   111    75    77   ar
   112   139   138    1
   113   120   115   am
   114   138   135    1
   115   135   136    1
   116    78    79   ar
   117    77    79   ar
   118   118   117    1
   119   116   115    2
   120   115   114    1
   121   111   110    1
   122   112   110    1
   123   103   102    1
   124   136   137    2
   125   117   114    1
   126   117   119    1
   127   110   109    1
   128   109   106    1
   129   114   113    1
   130   113   107   am
   131   104   102    1
   132   102    99    1
   133   106   107    1
   134   106   105    1
   135   107   108    2
   136    99   100    1
   137    99    98    1
   138   161   160   ar
   139   161   159   ar
   140   100   101    2
   141   160   158   ar
   142   159   157   ar
   143   147   145    1
   144   158   155   ar
   145   157   155   ar
   146   157   156   ar
   147   146   145    1
   148   155   153   ar
   149   145   142    1
   150   156   154   ar
   151   142   141    1
   152   142   143    1
   153   153   154   ar
   154   153   152    1
   155   149   152    1
   156   149   150    1
   157   149   148    1
   158   143   144    2
   159   150   151    2
