@<TRIPOS>MOLECULE
tmp/3igsA00.pdb
 123 113 0 0 0
SMALL
GASTEIGER

@<TRIPOS>ATOM
      1  N         31.0970   33.1640    2.3850 N.3    20  SER20      -0.1217
      2  CA        32.1380   32.8250    1.4320 C.3    20  SER20       0.1889
      3  C         31.7420   31.4750    0.8630 C.2    20  SER20       0.2288
      4  O         31.6580   30.4780    1.6050 O.2    20  SER20      -0.2866
      5  CB        33.5030   32.7450    2.1300 C.3    20  SER20       0.2089
      6  OG        34.4670   32.2090    1.2200 O.3    20  SER20      -0.2183
      7  N         32.9000   28.9290   -1.0230 N.3    22  GLN22      -0.1245
      8  CA        34.0820   28.2580   -1.5670 C.3    22  GLN22       0.1566
      9  C         34.0750   26.7990   -1.0810 C.2    22  GLN22       0.2260
     10  O         34.5700   26.5120   -0.0090 O.2    22  GLN22      -0.2867
     11  CB        35.3370   28.9750   -1.0720 C.3    22  GLN22       0.0367
     12  CG        35.5240   30.3830   -1.6370 C.3    22  GLN22       0.0905
     13  CD        36.8340   31.0010   -1.2050 C.2    22  GLN22       0.2608
     14  OE1       37.9040   30.5260   -1.5780 O.2    22  GLN22      -0.2717
     15  NE2       36.7660   32.0710   -0.4280 N.am   22  GLN22      -0.0878
     16  N         42.4130   32.6100   -6.0570 N.3    72  LYS72      -0.1245
     17  CA        43.4990   31.9890   -5.2830 C.3    72  LYS72       0.1561
     18  C         44.4920   31.2830   -6.1710 C.2    72  LYS72       0.2260
     19  O         44.1110   30.5710   -7.1020 O.2    72  LYS72      -0.2867
     20  CB        42.9400   30.9850   -4.2850 C.3    72  LYS72       0.0271
     21  CG        42.3590   31.6700   -3.0750 C.3    72  LYS72       0.0035
     22  CD        41.6510   30.6850   -2.1370 C.3    72  LYS72       0.0206
     23  CE        41.2650   31.3540   -0.8410 C.3    72  LYS72       0.1093
     24  NZ        40.2920   30.5000   -0.0700 N.3    72  LYS72      -0.1314
     25  N         54.4060   32.8630   -0.5210 N.3    79  PRO79      -0.2116
     26  CA        53.3160   32.2090    0.1680 C.3    79  PRO79       0.1372
     27  C         51.9780   32.8930   -0.0540 C.2    79  PRO79       0.2244
     28  O         50.9610   32.3940    0.3920 O.2    79  PRO79      -0.2868
     29  CB        53.7140   32.3290    1.6430 C.3    79  PRO79       0.0268
     30  CG        54.4770   33.6610    1.6850 C.3    79  PRO79       0.0207
     31  CD        55.2080   33.7360    0.3640 C.3    79  PRO79       0.0892
     32  N         48.5190   33.8890   -1.5600 N.3    81  ARG81      -0.1231
     33  CA        47.5770   33.1670   -2.4080 C.3    81  ARG81       0.1694
     34  C         46.4150   34.0090   -2.9310 C.2    81  ARG81       0.2591
     35  O         45.9010   33.7530   -4.0250 O.2    81  ARG81      -0.2718
     36  CB        46.9810   31.9530   -1.6640 C.3    81  ARG81       0.0321
     37  CG        48.0340   30.9140   -1.2780 C.3    81  ARG81       0.0489
     38  CD        47.4590   29.7530   -0.4550 C.3    81  ARG81       0.2205
     39  NE        46.5500   28.9720   -1.2820 N.pl3  81  ARG81      -0.0865
     40  CZ        45.2670   28.7730   -0.9950 C.cat  81  ARG81       0.5346
     41  NH1       44.7350   29.2720    0.1170 N.pl3  81  ARG81       0.1354
     42  NH2       44.5220   28.0660   -1.8250 N.pl3  81  ARG81       0.1354
     43  N         45.9870   34.9930   -2.1560 N.am   82  ILE82      -0.1980
     44  CA        44.7510   35.6990   -2.4910 C.3    82  ILE82       0.1595
     45  C         45.0010   36.8560   -3.4450 C.2    82  ILE82       0.2287
     46  O         45.5790   37.8790   -3.0580 O.2    82  ILE82      -0.2864
     47  CB        44.0010   36.1660   -1.2140 C.3    82  ILE82       0.0276
     48  CG1       43.5800   34.9550   -0.3650 C.3    82  ILE82       0.0022
     49  CG2       42.7580   37.0090   -1.5700 C.3    82  ILE82       0.0022
     50  CD1       43.1060   35.3400    1.0540 C.3    82  ILE82       0.0001
     51  N         45.5020   39.8760   -0.7190 N.3   103  ASP103     -0.1239
     52  CA        46.3560   39.6890    0.4470 C.3   103  ASP103      0.1674
     53  C         47.0830   41.0100    0.7240 C.2   103  ASP103      0.2266
     54  O         47.7240   41.5920   -0.1670 O.2   103  ASP103     -0.2867
     55  CB        47.3430   38.5700    0.0950 C.3   103  ASP103      0.1410
     56  CG        48.3620   38.3040    1.1810 C.2   103  ASP103      0.3668
     57  OD1       49.1680   39.1950    1.4950 O.co2 103  ASP103     -0.2456
     58  OD2       48.3750   37.1670    1.7020 O.co2 103  ASP103     -0.2456
     59  N         54.9280   40.4620    2.8930 N.3   107  ARG107     -0.1245
     60  CA        55.5830   39.2110    2.5740 C.3   107  ARG107      0.1563
     61  C         56.0950   39.2820    1.1480 C.2   107  ARG107      0.2260
     62  O         55.6480   40.1040    0.3460 O.2   107  ARG107     -0.2867
     63  CB        54.6110   38.0240    2.7400 C.3   107  ARG107      0.0307
     64  CG        54.2340   37.7950    4.1920 C.3   107  ARG107      0.0489
     65  CD        53.5220   36.4830    4.3760 C.3   107  ARG107      0.2205
     66  NE        52.2270   36.4380    3.7080 N.pl3 107  ARG107     -0.0865
     67  CZ        51.4890   35.3370    3.6140 C.cat 107  ARG107      0.5346
     68  NH1       51.9230   34.1870    4.1450 N.pl3 107  ARG107      0.1354
     69  NH2       50.3150   35.3750    2.9850 N.pl3 107  ARG107      0.1354
     70  N         41.0960   38.1490    7.5310 N.3   150  THR150     -0.1218
     71  CA        41.2430   36.8870    6.8060 C.3   150  THR150      0.1862
     72  C         42.5750   36.1700    6.9740 C.2   150  THR150      0.2287
     73  O         42.5890   34.9260    7.0660 O.2   150  THR150     -0.2866
     74  CB        41.0810   37.2050    5.3160 C.3   150  THR150      0.1770
     75  OG1       39.8890   37.9830    5.1990 O.3   150  THR150     -0.2211
     76  CG2       40.9850   35.9460    4.4430 C.3   150  THR150      0.0375
     77  N         47.3220   32.6910    9.5810 N.3   153  TYR153     -0.1241
     78  CA        47.7010   31.9390    8.3830 C.3   153  TYR153      0.1605
     79  C         49.0650   32.2820    7.8000 C.2   153  TYR153      0.2264
     80  O         49.4380   31.7180    6.7590 O.2   153  TYR153     -0.2867
     81  CB        46.5920   32.0290    7.3160 C.3   153  TYR153      0.0534
     82  CG        45.3010   31.4910    7.8810 C.ar  153  TYR153     -0.0201
     83  CD1       45.1190   30.1290    8.0600 C.ar  153  TYR153     -0.0009
     84  CD2       44.2900   32.3480    8.3140 C.ar  153  TYR153     -0.0009
     85  CE1       43.9470   29.6310    8.6370 C.ar  153  TYR153      0.0417
     86  CE2       43.1300   31.8740    8.8940 C.ar  153  TYR153      0.0417
     87  CZ        42.9670   30.5140    9.0560 C.ar  153  TYR153      0.1957
     88  OH        41.8170   30.0370    9.6560 O.3   153  TYR153     -0.2866
     89  N         37.5310   34.3970    9.4130 N.3   181  GLY181     -0.1225
     90  CA        38.4460   33.3240    9.7900 C.3   181  GLY181      0.1811
     91  C         38.0120   32.6560   11.0820 C.2   181  GLY181      0.2280
     92  O         38.1410   33.2300   12.1640 O.2   181  GLY181     -0.2866
     93  N         32.8160   30.9790    6.0890 N.3   203  GLY203     -0.1210
     94  CA        33.0480   30.0770    4.9650 C.3   203  GLY203      0.1956
     95  C         32.7760   28.6490    5.3730 C.2   203  GLY203      0.2612
     96  O         31.6710   28.1430    5.1190 O.2   203  GLY203     -0.2717
     97  N         33.7510   28.0020    5.9950 N.am  204  SER204     -0.1952
     98  CA        33.6680   26.5550    6.2650 C.3   204  SER204      0.1924
     99  C         32.3630   26.0960    6.9050 C.2   204  SER204      0.2314
    100  O         31.8000   25.0910    6.4670 O.2   204  SER204     -0.2863
    101  CB        34.8320   26.0860    7.1320 C.3   204  SER204      0.2116
    102  OG        36.0730   26.2660    6.4540 O.3   204  SER204     -0.2180
    103  N         31.4210   24.4450    3.4190 N.3   208  ARG208     -0.1245
    104  CA        32.3720   23.3320    3.2560 C.3   208  ARG208      0.1563
    105  C         31.8800   22.0960    4.0000 C.2   208  ARG208      0.2260
    106  O         32.3010   21.8240    5.1270 O.2   208  ARG208     -0.2867
    107  CB        33.7850   23.7070    3.7140 C.3   208  ARG208      0.0307
    108  CG        34.3570   24.7950    2.8480 C.3   208  ARG208      0.0489
    109  CD        35.8680   24.9750    2.9930 C.3   208  ARG208      0.2205
    110  NE        36.3910   25.4140    1.7040 N.pl3 208  ARG208     -0.0865
    111  CZ        37.6500   25.7410    1.4710 C.cat 208  ARG208      0.5346
    112  NH1       38.5250   25.8140    2.4750 N.pl3 208  ARG208      0.1354
    113  NH2       38.0190   26.0190    0.2280 N.pl3 208  ARG208      0.1354
    114  N         34.2980   19.7670    5.6900 N.3   211  HIS211     -0.1241
    115  CA        34.9910   20.3240    6.8360 C.3   211  HIS211      0.1621
    116  C         34.0960   20.2800    8.0800 C.2   211  HIS211      0.2264
    117  O         34.5500   19.9890    9.2000 O.2   211  HIS211     -0.2867
    118  CB        35.4570   21.7380    6.5180 C.3   211  HIS211      0.0745
    119  CG        36.5550   22.2070    7.4080 C.ar  211  HIS211      0.0817
    120  ND1       37.8810   21.9230    7.1650 N.ar  211  HIS211     -0.2268
    121  CD2       36.5250   22.9380    8.5450 C.ar  211  HIS211      0.1154
    122  CE1       38.6200   22.4630    8.1190 C.ar  211  HIS211      0.1986
    123  NE2       37.8240   23.0860    8.9660 N.ar  211  HIS211     -0.2212
@<TRIPOS>BOND
     1    19    18    2
     2    18    17    1
     3    16    17    1
     4    17    20    1
     5    20    21    1
     6    35    34    2
     7    45    46    2
     8    45    44    1
     9    21    22    1
    10    34    33    1
    11    34    43   am
    12    44    43    1
    13    44    47    1
    14    33    36    1
    15    33    32    1
    16    22    23    1
    17    42    40    1
    18    36    37    1
    19    12    13    1
    20    12    11    1
    21    14    13    2
    22    49    47    1
    23     8     9    1
    24     8    11    1
    25     8     7    1
    26    39    40    2
    27    39    38    1
    28    37    38    1
    29    47    48    1
    30    13    15   am
    31     9    10    2
    32    40    41    1
    33    23    24    1
    34    51    52    1
    35    25    26    1
    36    25    31    1
    37    48    50    1
    38    54    53    2
    39    27    26    1
    40    27    28    2
    41    55    52    1
    42    55    56    1
    43    26    29    1
    44   113   111    1
    45    62    61    2
    46    31    30    1
    47    52    53    1
    48     3     2    1
    49     3     4    2
    50    61    60    1
    51    56    57   ar
    52    56    58   ar
    53     6     5    1
    54     2     5    1
    55     2     1    1
    56   111   110    2
    57   111   112    1
    58    29    30    1
    59   110   109    1
    60    60    63    1
    61    60    59    1
    62    63    64    1
    63   108   109    1
    64   108   107    1
    65    69    67    1
    66   104   103    1
    67   104   107    1
    68   104   105    1
    69    67    66    2
    70    67    68    1
    71    66    65    1
    72   105   106    2
    73    64    65    1
    74    76    74    1
    75    94    95    1
    76    94    93    1
    77    96    95    2
    78    75    74    1
    79    74    71    1
    80    95    97   am
    81   114   115    1
    82    97    98    1
    83    98    99    1
    84    98   101    1
    85   102   101    1
    86   100    99    2
    87   118   115    1
    88   118   119    1
    89    80    79    2
    90    71    72    1
    91    71    70    1
    92   115   116    1
    93    72    73    2
    94   120   119   ar
    95   120   122   ar
    96    81    82    1
    97    81    78    1
    98   119   121   ar
    99    79    78    1
   100    82    83   ar
   101    82    84   ar
   102    83    85   ar
   103   116   117    2
   104   122   123   ar
   105    84    86   ar
   106    78    77    1
   107   121   123   ar
   108    85    87   ar
   109    86    87   ar
   110    87    88    1
   111    89    90    1
   112    90    91    1
   113    91    92    2
