@<TRIPOS>MOLECULE
tmp/3iguB00.pdb
 126 119 0 0 0
SMALL
GASTEIGER

@<TRIPOS>ATOM
      1  N         19.8000  -24.8420   18.5440 N.3    16  TRP16      -0.1241
      2  CA        20.0650  -23.7540   19.4940 C.3    16  TRP16       0.1605
      3  C         21.1730  -22.7570   19.1570 C.2    16  TRP16       0.2264
      4  O         20.9250  -21.5550   19.1680 O.2    16  TRP16      -0.2867
      5  CB        20.2620  -24.2700   20.9250 C.3    16  TRP16       0.0550
      6  CG        20.4660  -23.1320   21.8760 C.ar   16  TRP16       0.0003
      7  CD1       21.6470  -22.7190   22.4170 C.ar   16  TRP16       0.0946
      8  CD2       19.4660  -22.2170   22.3470 C.ar   16  TRP16       0.0152
      9  NE1       21.4460  -21.6150   23.2090 N.ar   16  TRP16      -0.2442
     10  CE2       20.1160  -21.2860   23.1870 C.ar   16  TRP16       0.0810
     11  CE3       18.0830  -22.1010   22.1500 C.ar   16  TRP16       0.0012
     12  CZ2       19.4290  -20.2530   23.8380 C.ar   16  TRP16       0.0191
     13  CZ3       17.4000  -21.0700   22.7960 C.ar   16  TRP16       0.0001
     14  CH2       18.0770  -20.1610   23.6300 C.ar   16  TRP16       0.0015
     15  N         15.3590  -27.4900   20.0650 N.3    61  ASP61      -0.1225
     16  CA        15.8250  -26.9960   21.3670 C.3    61  ASP61       0.1805
     17  C         14.7520  -26.0670   21.9580 C.2    61  ASP61       0.2597
     18  O         13.5620  -26.2420   21.6750 O.2    61  ASP61      -0.2718
     19  CB        17.1930  -26.3170   21.2350 C.3    61  ASP61       0.1424
     20  CG        17.9630  -26.2650   22.5540 C.2    61  ASP61       0.3668
     21  OD1       17.7890  -25.2840   23.3090 O.co2  61  ASP61      -0.2456
     22  OD2       18.7660  -27.1850   22.8270 O.co2  61  ASP61      -0.2456
     23  N         15.1570  -25.0920   22.7670 N.am   62  ASP62      -0.1974
     24  CA        14.2110  -24.2270   23.4790 C.3    62  ASP62       0.1709
     25  C         13.3110  -23.3840   22.5580 C.2    62  ASP62       0.2293
     26  O         13.6230  -23.1760   21.3780 O.2    62  ASP62      -0.2864
     27  CB        14.9770  -23.3130   24.4400 C.3    62  ASP62       0.1436
     28  CG        14.1520  -22.8870   25.6440 C.2    62  ASP62       0.3671
     29  OD1       12.9280  -23.1520   25.6830 O.co2  62  ASP62      -0.2456
     30  OD2       14.7420  -22.2780   26.5640 O.co2  62  ASP62      -0.2456
     31  N         13.1370  -30.9400   23.3930 N.3   102  TYR102     -0.1241
     32  CA        13.7290  -30.2220   24.5160 C.3   102  TYR102      0.1605
     33  C         12.7190  -29.9760   25.6330 C.2   102  TYR102      0.2264
     34  O         11.5550  -29.6630   25.3760 O.2   102  TYR102     -0.2867
     35  CB        14.2920  -28.8890   24.0110 C.3   102  TYR102      0.0534
     36  CG        14.7340  -27.8960   25.0720 C.ar  102  TYR102     -0.0201
     37  CD1       16.0840  -27.7520   25.4030 C.ar  102  TYR102     -0.0009
     38  CD2       13.8040  -27.0750   25.7190 C.ar  102  TYR102     -0.0009
     39  CE1       16.4940  -26.8290   26.3660 C.ar  102  TYR102      0.0417
     40  CE2       14.2040  -26.1590   26.6890 C.ar  102  TYR102      0.0417
     41  CZ        15.5470  -26.0380   27.0020 C.ar  102  TYR102      0.1957
     42  OH        15.9360  -25.1230   27.9520 O.3   102  TYR102     -0.2866
     43  N         14.9240  -22.1040   30.2570 N.3   110  CYS110     -0.1221
     44  CA        15.8170  -20.9650   30.4240 C.3   110  CYS110      0.1808
     45  C         15.2550  -19.7010   29.7760 C.2   110  CYS110      0.2601
     46  O         15.4620  -18.5980   30.2840 O.2   110  CYS110     -0.2717
     47  CB        17.2130  -21.2930   29.8990 C.3   110  CYS110      0.0970
     48  SG        17.9830  -22.7090   30.7270 S.3   110  CYS110     -0.0800
     49  N         14.5180  -19.8700   28.6790 N.am  111  MET111     -0.1979
     50  CA        13.8940  -18.7430   27.9800 C.3   111  MET111      0.1605
     51  C         12.4990  -18.3740   28.5050 C.2   111  MET111      0.2287
     52  O         11.8360  -17.5010   27.9440 O.2   111  MET111     -0.2864
     53  CB        13.8460  -19.0010   26.4700 C.3   111  MET111      0.0413
     54  CG        15.2150  -19.0720   25.7990 C.3   111  MET111      0.0598
     55  SD        16.3160  -17.7110   26.2250 S.3   111  MET111     -0.1393
     56  CE        15.4310  -16.2930   25.5820 C.3   111  MET111      0.0692
     57  N         16.5670  -33.5800   25.2470 N.3   137  LYS137     -0.1245
     58  CA        17.5300  -32.7790   26.0000 C.3   137  LYS137      0.1561
     59  C         16.7940  -32.0940   27.1480 C.2   137  LYS137      0.2260
     60  O         15.8450  -31.3420   26.9220 O.2   137  LYS137     -0.2867
     61  CB        18.2010  -31.7450   25.0880 C.3   137  LYS137      0.0271
     62  CG        19.0510  -30.6990   25.8040 C.3   137  LYS137      0.0035
     63  CD        19.7640  -29.7960   24.7990 C.3   137  LYS137      0.0206
     64  CE        20.4250  -28.6030   25.4740 C.3   137  LYS137      0.1093
     65  NZ        21.0250  -27.6510   24.4850 N.3   137  LYS137     -0.1314
     66  N         17.1170  -29.4560   29.9420 N.3   139  ASP139     -0.1239
     67  CA        17.8530  -28.3200   30.5170 C.3   139  ASP139      0.1674
     68  C         17.5240  -28.2030   32.0170 C.2   139  ASP139      0.2266
     69  O         16.6180  -28.8790   32.5040 O.2   139  ASP139     -0.2867
     70  CB        17.5500  -27.0150   29.7570 C.3   139  ASP139      0.1410
     71  CG        18.7620  -26.0720   29.6810 C.2   139  ASP139      0.3668
     72  OD1       19.6360  -26.1740   30.5690 O.co2 139  ASP139     -0.2456
     73  OD2       18.8570  -25.2360   28.7350 O.co2 139  ASP139     -0.2456
     74  N         21.5900  -31.9250   31.1800 N.3   171  SER171     -0.1217
     75  CA        22.3110  -30.7000   31.5140 C.3   171  SER171      0.1889
     76  C         22.6950  -30.5960   33.0000 C.2   171  SER171      0.2288
     77  O         23.4260  -29.6860   33.3930 O.2   171  SER171     -0.2866
     78  CB        21.4930  -29.4890   31.0790 C.3   171  SER171      0.2089
     79  OG        21.4200  -29.4310   29.6620 O.3   171  SER171     -0.2183
     80  N         24.9060  -27.3220   35.7300 N.3   175  TYR175     -0.1241
     81  CA        24.2870  -26.4680   36.7450 C.3   175  TYR175      0.1605
     82  C         24.7900  -26.7330   38.1680 C.2   175  TYR175      0.2264
     83  O         24.3160  -26.1100   39.1200 O.2   175  TYR175     -0.2867
     84  CB        22.7600  -26.5800   36.6730 C.3   175  TYR175      0.0534
     85  CG        22.1940  -25.9230   35.4390 C.ar  175  TYR175     -0.0201
     86  CD1       21.7140  -24.6140   35.4810 C.ar  175  TYR175     -0.0009
     87  CD2       22.1660  -26.5980   34.2190 C.ar  175  TYR175     -0.0009
     88  CE1       21.2090  -24.0020   34.3440 C.ar  175  TYR175      0.0417
     89  CE2       21.6630  -25.9950   33.0780 C.ar  175  TYR175      0.0417
     90  CZ        21.1880  -24.7000   33.1480 C.ar  175  TYR175      0.1957
     91  OH        20.6930  -24.1040   32.0200 O.3   175  TYR175     -0.2866
     92  N         25.8510  -32.5510   29.3990 N.3   196  ARG196     -0.1245
     93  CA        26.5790  -31.3060   29.2160 C.3   196  ARG196      0.1563
     94  C         27.3300  -30.9860   30.5090 C.2   196  ARG196      0.2260
     95  O         26.7220  -30.6140   31.5160 O.2   196  ARG196     -0.2867
     96  CB        25.6140  -30.1790   28.8410 C.3   196  ARG196      0.0307
     97  CG        25.2160  -30.1370   27.3520 C.3   196  ARG196      0.0489
     98  CD        26.2040  -29.2910   26.5030 C.3   196  ARG196      0.2205
     99  NE        26.5760  -28.0570   27.1960 N.pl3 196  ARG196     -0.0865
    100  CZ        25.7930  -26.9870   27.3160 C.cat 196  ARG196      0.5346
    101  NH1       24.5860  -26.9620   26.7690 N.pl3 196  ARG196      0.1354
    102  NH2       26.2210  -25.9390   27.9990 N.pl3 196  ARG196      0.1354
    103  N         27.7080  -23.2120   28.1300 N.3   200  ASP200     -0.1239
    104  CA        27.1840  -23.0930   26.7620 C.3   200  ASP200      0.1674
    105  C         28.2660  -22.6320   25.8020 C.2   200  ASP200      0.2266
    106  O         28.9540  -21.6420   26.0630 O.2   200  ASP200     -0.2867
    107  CB        26.0480  -22.0720   26.7080 C.3   200  ASP200      0.1410
    108  CG        24.7810  -22.5510   27.3890 C.2   200  ASP200      0.3668
    109  OD1       24.7870  -23.6080   28.0630 O.co2 200  ASP200     -0.2456
    110  OD2       23.7610  -21.8480   27.2430 O.co2 200  ASP200     -0.2456
    111  N         29.4190  -29.7310   24.1050 N.3   235  ASP235     -0.1225
    112  CA        28.4520  -28.8590   23.4100 C.3   235  ASP235      0.1805
    113  C         28.6460  -28.8500   21.8850 C.2   235  ASP235      0.2597
    114  O         29.5210  -29.5430   21.3520 O.2   235  ASP235     -0.2718
    115  CB        28.4260  -27.4330   24.0000 C.3   235  ASP235      0.1424
    116  CG        27.0400  -26.7980   23.9610 C.2   235  ASP235      0.3668
    117  OD1       26.1100  -27.4050   23.3930 O.co2 235  ASP235     -0.2456
    118  OD2       26.8820  -25.6780   24.4980 O.co2 235  ASP235     -0.2456
    119  N         27.8150  -28.0570   21.2080 N.am  236  MET236     -0.1979
    120  CA        27.6460  -28.0880   19.7540 C.3   236  MET236      0.1605
    121  C         28.8760  -27.6880   18.9420 C.2   236  MET236      0.2287
    122  O         29.6830  -26.8670   19.3730 O.2   236  MET236     -0.2864
    123  CB        26.4570  -27.2030   19.3510 C.3   236  MET236      0.0413
    124  CG        25.1030  -27.7280   19.8200 C.3   236  MET236      0.0598
    125  SD        23.8090  -26.4710   19.8240 S.3   236  MET236     -0.1393
    126  CE        24.2660  -25.4790   21.2490 C.3   236  MET236      0.0692
@<TRIPOS>BOND
     1     1     2    1
     2   121   122    2
     3   121   120    1
     4     3     4    2
     5     3     2    1
     6   123   120    1
     7   123   124    1
     8     2     5    1
     9   120   119    1
    10   124   125    1
    11   125   126    1
    12    15    16    1
    13     5     6    1
    14   119   113   am
    15    19    16    1
    16    19    20    1
    17   114   113    2
    18    16    17    1
    19    26    25    2
    20    18    17    2
    21     6     8   ar
    22     6     7   ar
    23   113   112    1
    24    17    23   am
    25    11     8   ar
    26    11    13   ar
    27     8    10   ar
    28     7     9   ar
    29    20    22   ar
    30    20    21   ar
    31    25    24    1
    32    23    24    1
    33    13    14   ar
    34    10     9   ar
    35    10    12   ar
    36   117   116   ar
    37    31    32    1
    38   112   115    1
    39   112   111    1
    40    24    27    1
    41    14    12   ar
    42   116   115    1
    43   116   118   ar
    44    35    32    1
    45    35    36    1
    46    27    28    1
    47    65    64    1
    48    32    33    1
    49    63    64    1
    50    63    62    1
    51    36    37   ar
    52    36    38   ar
    53    61    62    1
    54    61    58    1
    55    57    58    1
    56    34    33    2
    57    37    39   ar
    58    56    55    1
    59    28    29   ar
    60    28    30   ar
    61    38    40   ar
    62    54    55    1
    63    54    53    1
    64   105   106    2
    65   105   104    1
    66    58    59    1
    67    39    41   ar
    68    53    50    1
    69    98    99    1
    70    98    97    1
    71    40    41   ar
    72   107   104    1
    73   107   108    1
    74   104   103    1
    75   101   100    1
    76    60    59    2
    77    41    42    1
    78    99   100    2
    79   110   108   ar
    80   100   102    1
    81    97    96    1
    82   108   109   ar
    83    52    51    2
    84    50    51    1
    85    50    49    1
    86    49    45   am
    87    73    71   ar
    88    96    93    1
    89    93    92    1
    90    93    94    1
    91    79    78    1
    92    71    70    1
    93    71    72   ar
    94    70    67    1
    95    45    46    2
    96    45    44    1
    97    47    44    1
    98    47    48    1
    99    66    67    1
   100    43    44    1
   101    94    95    2
   102    67    68    1
   103    78    75    1
   104    74    75    1
   105    75    76    1
   106    68    69    2
   107    91    90    1
   108    76    77    2
   109    89    90   ar
   110    89    87   ar
   111    90    88   ar
   112    87    85   ar
   113    88    86   ar
   114    85    86   ar
   115    85    84    1
   116    80    81    1
   117    84    81    1
   118    81    82    1
   119    82    83    2
