@<TRIPOS>MOLECULE
tmp/3igvA00.pdb
 200 189 0 0 0
SMALL
GASTEIGER

@<TRIPOS>ATOM
      1  N         87.7640    5.7080   57.9980 N.3   188  PHE188     -0.1241
      2  CA        88.6220    4.6900   57.3900 C.3   188  PHE188      0.1605
      3  C         87.8340    3.6010   56.6570 C.2   188  PHE188      0.2264
      4  O         88.4270    2.7190   56.0310 O.2   188  PHE188     -0.2867
      5  CB        89.5600    4.0590   58.4260 C.3   188  PHE188      0.0534
      6  CG        90.6690    4.9670   58.8840 C.ar  188  PHE188     -0.0203
      7  CD1       91.6070    5.4600   57.9810 C.ar  188  PHE188     -0.0042
      8  CD2       90.7940    5.3070   60.2280 C.ar  188  PHE188     -0.0042
      9  CE1       92.6410    6.2950   58.4060 C.ar  188  PHE188     -0.0003
     10  CE2       91.8270    6.1340   60.6620 C.ar  188  PHE188     -0.0003
     11  CZ        92.7490    6.6320   59.7500 C.ar  188  PHE188     -0.0000
     12  N         88.2450    6.8000   48.4680 N.3   192  PRO192     -0.2116
     13  CA        88.1940    8.2060   48.0620 C.3   192  PRO192      0.1372
     14  C         86.8310    8.6440   47.5280 C.2   192  PRO192      0.2244
     15  O         86.3150    9.6820   47.9490 O.2   192  PRO192     -0.2868
     16  CB        89.2550    8.2860   46.9620 C.3   192  PRO192      0.0268
     17  CG        90.2320    7.2440   47.3380 C.3   192  PRO192      0.0207
     18  CD        89.4040    6.1100   47.8710 C.3   192  PRO192      0.0892
     19  N         84.2940    8.9390   50.2850 N.3   195  ARG195     -0.1245
     20  CA        84.6030   10.0640   51.1630 C.3   195  ARG195      0.1563
     21  C         84.1410   11.3820   50.5440 C.2   195  ARG195      0.2260
     22  O         83.4690   12.1790   51.2100 O.2   195  ARG195     -0.2867
     23  CB        86.0950   10.1140   51.5030 C.3   195  ARG195      0.0307
     24  CG        86.4490   11.1750   52.5310 C.3   195  ARG195      0.0489
     25  CD        87.9330   11.2100   52.8210 C.3   195  ARG195      0.2205
     26  NE        88.2990   12.3590   53.6500 N.pl3 195  ARG195     -0.0865
     27  CZ        88.4260   12.3290   54.9750 C.cat 195  ARG195      0.5346
     28  NH1       88.2130   11.2070   55.6560 N.pl3 195  ARG195      0.1354
     29  NH2       88.7650   13.4310   55.6260 N.pl3 195  ARG195      0.1354
     30  N         99.2950   12.4790   69.9800 N.3   220  ASP220     -0.1239
     31  CA        99.8020   11.3660   70.7780 C.3   220  ASP220      0.1674
     32  C        100.1840   11.7860   72.1870 C.2   220  ASP220      0.2266
     33  O         99.9030   11.0690   73.1460 O.2   220  ASP220     -0.2867
     34  CB       101.0030   10.7180   70.0900 C.3   220  ASP220      0.1410
     35  CG       100.6290   10.0220   68.8010 C.2   220  ASP220      0.3668
     36  OD1       99.4160    9.8530   68.5320 O.co2 220  ASP220     -0.2456
     37  OD2      101.5550    9.6430   68.0570 O.co2 220  ASP220     -0.2456
     38  N         97.0370    2.1700   67.9330 N.3   282  THR282     -0.1203
     39  CA        97.3210    3.5870   67.7170 C.3   282  THR282      0.1994
     40  C         96.1780    4.2660   66.9670 C.2   282  THR282      0.2618
     41  O         95.6310    5.2660   67.4380 O.2   282  THR282     -0.2717
     42  CB        98.6610    3.8100   66.9790 C.3   282  THR282      0.1784
     43  OG1       99.6960    3.0780   67.6420 O.3   282  THR282     -0.2211
     44  CG2       99.0370    5.2890   66.9650 C.3   282  THR282      0.0376
     45  N         95.8090    3.6990   65.8210 N.am  283  SER283     -0.1951
     46  CA        94.7740    4.2700   64.9620 C.3   283  SER283      0.1924
     47  C         93.3840    4.2660   65.5980 C.2   283  SER283      0.2314
     48  O         92.7300    5.3050   65.6630 O.2   283  SER283     -0.2863
     49  CB        94.7310    3.5450   63.6150 C.3   283  SER283      0.2116
     50  OG        93.6190    3.9710   62.8430 O.3   283  SER283     -0.2180
     51  N         93.2030    6.4560   68.9120 N.3   286  ASN286     -0.1240
     52  CA        93.1360    7.8800   68.5850 C.3   286  ASN286      0.1653
     53  C         91.7950    8.2620   68.0030 C.2   286  ASN286      0.2266
     54  O         91.2360    9.2950   68.3660 O.2   286  ASN286     -0.2867
     55  CB        94.2440    8.2790   67.6100 C.3   286  ASN286      0.1155
     56  CG        95.5870    8.4080   68.2780 C.2   286  ASN286      0.2627
     57  OD1       95.6950    8.3710   69.5100 O.2   286  ASN286     -0.2716
     58  ND2       96.6270    8.5590   67.4690 N.am  286  ASN286     -0.0877
     59  N         89.3680   10.4550   61.3750 N.3   311  ASN311     -0.1225
     60  CA        90.3510    9.4720   60.9450 C.3   311  ASN311      0.1785
     61  C         91.5540    9.5450   61.8740 C.2   311  ASN311      0.2598
     62  O         92.4500   10.3700   61.6790 O.2   311  ASN311     -0.2718
     63  CB        90.7930    9.7420   59.5040 C.3   311  ASN311      0.1169
     64  CG        89.6890    9.5180   58.4980 C.2   311  ASN311      0.2627
     65  OD1       88.7650   10.3220   58.3790 O.2   311  ASN311     -0.2716
     66  ND2       89.7900    8.4290   57.7500 N.am  311  ASN311     -0.0877
     67  N         91.5690    8.6940   62.8940 N.am  312  GLY312     -0.1942
     68  CA        92.5890    8.7790   63.9350 C.3   312  GLY312      0.2014
     69  C         92.5060   10.1320   64.6050 C.2   312  GLY312      0.2639
     70  O         91.4580   10.5000   65.1370 O.2   312  GLY312     -0.2714
     71  N         93.6030   10.8840   64.5470 N.am  313  ASP313     -0.1957
     72  CA        93.6670   12.2350   65.1170 C.3   313  ASP313      0.1840
     73  C         93.2320   13.3390   64.1420 C.2   313  ASP313      0.2622
     74  O         93.2450   14.5210   64.4900 O.2   313  ASP313     -0.2715
     75  CB        95.0710   12.5240   65.6720 C.3   313  ASP313      0.1450
     76  CG        96.1610   12.5410   64.5960 C.2   313  ASP313      0.3671
     77  OD1       95.9200   12.1440   63.4330 O.co2 313  ASP313     -0.2456
     78  OD2       97.2900   12.9510   64.9330 O.co2 313  ASP313     -0.2456
     79  N         92.8590   12.9510   62.9270 N.am  314  ASP314     -0.1971
     80  CA        92.3880   13.8990   61.9310 C.3   314  ASP314      0.1709
     81  C         90.8700   14.0760   62.0480 C.2   314  ASP314      0.2293
     82  O         90.1090   13.1040   61.9620 O.2   314  ASP314     -0.2864
     83  CB        92.7850   13.4400   60.5310 C.3   314  ASP314      0.1436
     84  CG        92.7010   14.5520   59.5120 C.2   314  ASP314      0.3671
     85  OD1       91.5710   14.9160   59.1140 O.co2 314  ASP314     -0.2456
     86  OD2       93.7680   15.0590   59.1040 O.co2 314  ASP314     -0.2456
     87  N         92.3320   15.0690   56.3540 N.3   361  CYS361     -0.1221
     88  CA        93.2110   13.9980   55.8720 C.3   361  CYS361      0.1808
     89  C         94.1480   14.5230   54.7890 C.2   361  CYS361      0.2602
     90  O         94.3500   13.8750   53.7550 O.2   361  CYS361     -0.2717
     91  CB        92.4060   12.8080   55.3540 C.3   361  CYS361      0.0970
     92  SG        91.8120   11.7140   56.6300 S.3   361  CYS361     -0.0800
     93  N         94.6940   15.7130   55.0370 N.am  362  SER362     -0.1938
     94  CA        95.6000   16.4060   54.1160 C.3   362  SER362      0.2055
     95  C         94.9900   16.6680   52.7330 C.2   362  SER362      0.2643
     96  O         95.6940   17.0680   51.8020 O.2   362  SER362     -0.2714
     97  CB        96.9320   15.6580   53.9920 C.3   362  SER362      0.2130
     98  OG        97.5200   15.4820   55.2650 O.3   362  SER362     -0.2179
     99  N         93.6800   16.4600   52.6220 N.am  363  SER363     -0.1949
    100  CA        92.9730   16.5710   51.3490 C.3   363  SER363      0.1924
    101  C         91.8220   17.5800   51.3910 C.2   363  SER363      0.2314
    102  O         91.1350   17.7180   52.4070 O.2   363  SER363     -0.2863
    103  CB        92.4550   15.1980   50.9210 C.3   363  SER363      0.2116
    104  OG        93.4830   14.2220   50.9990 O.3   363  SER363     -0.2180
    105  N         88.9680   14.4010   45.5350 N.3   379  LEU379     -0.1245
    106  CA        89.8450   14.9170   46.5770 C.3   379  LEU379      0.1561
    107  C         91.2330   15.1680   46.0250 C.2   379  LEU379      0.2260
    108  O         91.7470   14.3840   45.2290 O.2   379  LEU379     -0.2867
    109  CB        89.9020   13.9750   47.7860 C.3   379  LEU379      0.0270
    110  CG        88.6720   13.9480   48.7040 C.3   379  LEU379      0.0019
    111  CD1       88.6680   12.6950   49.5600 C.3   379  LEU379      0.0001
    112  CD2       88.5750   15.2000   49.5730 C.3   379  LEU379      0.0001
    113  N         95.1410   17.7160   46.9830 N.3   381  ARG381     -0.1245
    114  CA        95.9670   18.3820   47.9850 C.3   381  ARG381      0.1563
    115  C         97.0710   19.1880   47.3110 C.2   381  ARG381      0.2260
    116  O         97.2790   19.0760   46.1040 O.2   381  ARG381     -0.2867
    117  CB        96.5780   17.3640   48.9580 C.3   381  ARG381      0.0307
    118  CG        97.5150   16.3300   48.3280 C.3   381  ARG381      0.0489
    119  CD        98.3810   15.6470   49.3830 C.3   381  ARG381      0.2205
    120  NE        99.4450   16.5170   49.8840 N.pl3 381  ARG381     -0.0865
    121  CZ       100.0240   16.3880   51.0760 C.cat 381  ARG381      0.5346
    122  NH1       99.6400   15.4310   51.9100 N.pl3 381  ARG381      0.1354
    123  NH2      100.9830   17.2230   51.4460 N.pl3 381  ARG381      0.1354
    124  N        105.7220    5.8200   48.2820 N.3   402  SER402     -0.1217
    125  CA       104.6800    6.8300   48.4460 C.3   402  SER402      0.1889
    126  C        104.0840    7.2950   47.1200 C.2   402  SER402      0.2288
    127  O        102.9200    7.6850   47.0720 O.2   402  SER402     -0.2866
    128  CB       105.1900    8.0250   49.2540 C.3   402  SER402      0.2089
    129  OG       106.0100    8.8740   48.4720 O.3   402  SER402     -0.2183
    130  N        101.1700    5.1360   46.3800 N.3   405  GLY405     -0.1210
    131  CA       100.1200    5.4780   47.3290 C.3   405  GLY405      0.1956
    132  C         99.3760    6.7140   46.8600 C.2   405  GLY405      0.2611
    133  O         98.1440    6.7310   46.8470 O.2   405  GLY405     -0.2717
    134  N        100.1330    7.7340   46.4490 N.am  406  ASN406     -0.1974
    135  CA        99.5730    8.9960   45.9650 C.3   406  ASN406      0.1688
    136  C         98.8190    8.8600   44.6470 C.2   406  ASN406      0.2292
    137  O         97.7910    9.5070   44.4580 O.2   406  ASN406     -0.2864
    138  CB       100.6560   10.0750   45.8580 C.3   406  ASN406      0.1181
    139  CG       101.0000   10.6970   47.2050 C.2   406  ASN406      0.2629
    140  OD1      100.1140   11.0870   47.9730 O.2   406  ASN406     -0.2716
    141  ND2      102.2920   10.7980   47.4960 N.am  406  ASN406     -0.0877
    142  N         95.5280    7.0020   45.6210 N.3   409  MET409     -0.1230
    143  CA        94.5920    7.8110   46.3920 C.3   409  MET409      0.1702
    144  C         94.1990    9.1230   45.7020 C.2   409  MET409      0.2592
    145  O         93.1260    9.6710   45.9780 O.2   409  MET409     -0.2718
    146  CB        95.1280    8.0580   47.8080 C.3   409  MET409      0.0401
    147  CG        95.2200    6.7920   48.6630 C.3   409  MET409      0.0596
    148  SD        93.6480    5.9050   48.8690 S.3   409  MET409     -0.1393
    149  CE        92.8660    6.8520   50.1710 C.3   409  MET409      0.0692
    150  N         95.0560    9.6140   44.8050 N.am  410  TYR410     -0.1976
    151  CA        94.8250   10.8930   44.1220 C.3   410  TYR410      0.1639
    152  C         94.7640   10.7720   42.5980 C.2   410  TYR410      0.2290
    153  O         95.0080   11.7500   41.8840 O.2   410  TYR410     -0.2864
    154  CB        95.9010   11.9160   44.5050 C.3   410  TYR410      0.0560
    155  CG        95.8820   12.3380   45.9470 C.ar  410  TYR410     -0.0198
    156  CD1       94.9360   13.2540   46.4100 C.ar  410  TYR410     -0.0009
    157  CD2       96.8240   11.8400   46.8490 C.ar  410  TYR410     -0.0009
    158  CE1       94.9210   13.6560   47.7440 C.ar  410  TYR410      0.0417
    159  CE2       96.8190   12.2300   48.1870 C.ar  410  TYR410      0.0417
    160  CZ        95.8650   13.1370   48.6290 C.ar  410  TYR410      0.1957
    161  OH        95.8510   13.5300   49.9480 O.3   410  TYR410     -0.2866
    162  N        101.4300    2.0250   51.1680 N.3   441  GLN441     -0.1231
    163  CA       100.5500    2.1090   52.3300 C.3   441  GLN441      0.1698
    164  C         99.2060    2.7800   52.0550 C.2   441  GLN441      0.2592
    165  O         99.1420    3.8710   51.4920 O.2   441  GLN441     -0.2718
    166  CB       101.2680    2.7730   53.5070 C.3   441  GLN441      0.0381
    167  CG       102.2370    1.8390   54.2190 C.3   441  GLN441      0.0905
    168  CD       102.8610    2.4420   55.4660 C.2   441  GLN441      0.2608
    169  OE1      102.9110    3.6620   55.6340 O.2   441  GLN441     -0.2717
    170  NE2      103.3500    1.5810   56.3460 N.am  441  GLN441     -0.0878
    171  N         98.1350    2.0960   52.4410 N.am  442  ILE442     -0.1966
    172  CA        96.7990    2.6780   52.4360 C.3   442  ILE442      0.1727
    173  C         96.2100    2.5750   53.8400 C.2   442  ILE442      0.2616
    174  O         96.0360    1.4730   54.3730 O.2   442  ILE442     -0.2715
    175  CB        95.8580    2.0120   51.4040 C.3   442  ILE442      0.0290
    176  CG1       96.4370    2.1350   49.9930 C.3   442  ILE442      0.0022
    177  CG2       94.4520    2.6390   51.4670 C.3   442  ILE442      0.0023
    178  CD1       95.6990    1.3150   48.9580 C.3   442  ILE442      0.0001
    179  N         95.9160    3.7420   54.4160 N.am  443  TYR443     -0.1960
    180  CA        95.3940    3.8840   55.7750 C.3   443  TYR443      0.1771
    181  C         96.2430    3.1430   56.8120 C.2   443  TYR443      0.2620
    182  O         95.7130    2.4980   57.7190 O.2   443  TYR443     -0.2715
    183  CB        93.9090    3.4850   55.8560 C.3   443  TYR443      0.0574
    184  CG        92.9500    4.3800   55.0800 C.ar  443  TYR443     -0.0198
    185  CD1       93.3190    5.6690   54.6780 C.ar  443  TYR443     -0.0009
    186  CD2       91.6580    3.9480   54.7780 C.ar  443  TYR443     -0.0009
    187  CE1       92.4370    6.4850   53.9760 C.ar  443  TYR443      0.0417
    188  CE2       90.7660    4.7660   54.0830 C.ar  443  TYR443      0.0417
    189  CZ        91.1670    6.0260   53.6850 C.ar  443  TYR443      0.1957
    190  OH        90.2960    6.8320   52.9980 O.3   443  TYR443     -0.2866
    191  N         97.5640    3.2440   56.6590 N.am  444  GLY444     -0.1954
    192  CA        98.5250    2.6330   57.5790 C.3   444  GLY444      0.1869
    193  C         98.9180    1.2030   57.2510 C.2   444  GLY444      0.2309
    194  O         99.9490    0.7190   57.7160 O.2   444  GLY444     -0.2863
    195  N         97.7310    2.9120   61.1420 N.3   551  SER551     -0.1217
    196  CA        98.9720    3.6870   61.2340 C.3   551  SER551      0.1889
    197  C         99.8560    3.1940   62.3730 C.2   551  SER551      0.2288
    198  O         99.4240    3.1670   63.5310 O.2   551  SER551     -0.2866
    199  CB        98.6810    5.1770   61.4150 C.3   551  SER551      0.2089
    200  OG        99.8820    5.9200   61.5800 O.3   551  SER551     -0.2183
@<TRIPOS>BOND
     1   153   152    2
     2   152   151    1
     3   151   154    1
     4   151   150    1
     5   137   136    2
     6   154   155    1
     7   136   135    1
     8   150   144   am
     9   108   107    2
    10   105   106    1
    11   142   143    1
    12   144   145    2
    13   144   143    1
    14   138   135    1
    15   138   139    1
    16   155   156   ar
    17   155   157   ar
    18   135   134    1
    19   107   106    1
    20   116   115    2
    21   130   131    1
    22   143   146    1
    23   156   158   ar
    24   134   132   am
    25   106   109    1
    26   133   132    2
    27   157   159   ar
    28   132   131    1
    29    16    17    1
    30    16    13    1
    31   113   114    1
    32   127   126    2
    33   126   125    1
    34   139   141   am
    35   139   140    2
    36   115   114    1
    37    17    18    1
    38    14    15    2
    39    14    13    1
    40   158   160   ar
    41   109   110    1
    42   146   147    1
    43    18    12    1
    44   114   117    1
    45    13    12    1
    46   159   160   ar
    47   124   125    1
    48   118   117    1
    49   118   119    1
    50   125   128    1
    51   129   128    1
    52   160   161    1
    53   147   148    1
    54   110   111    1
    55   110   112    1
    56   148   149    1
    57   178   176    1
    58   119   120    1
    59   120   121    2
    60   176   175    1
    61    19    20    1
    62    21    20    1
    63    21    22    2
    64   103   104    1
    65   103   100    1
    66   121   123    1
    67   121   122    1
    68    20    23    1
    69   162   163    1
    70   100   101    1
    71   100    99    1
    72   101   102    2
    73   175   177    1
    74   175   172    1
    75   165   164    2
    76    23    24    1
    77    96    95    2
    78   164   163    1
    79   164   171   am
    80   163   166    1
    81   172   171    1
    82   172   173    1
    83    24    25    1
    84    99    95   am
    85    95    94    1
    86    25    26    1
    87   190   189    1
    88   166   167    1
    89    26    27    2
    90   189   187   ar
    91   189   188   ar
    92    90    89    2
    93   173   174    2
    94   173   179   am
    95   187   185   ar
    96    97    94    1
    97    97    98    1
    98   188   186   ar
    99    94    93    1
   100   167   168    1
   101   179   180    1
   102   185   184   ar
   103   186   184   ar
   104    89    93   am
   105    89    88    1
   106    27    29    1
   107    27    28    1
   108   184   183    1
   109    91    88    1
   110    91    92    1
   111   168   169    2
   112   168   170   am
   113   180   183    1
   114   180   181    1
   115    88    87    1
   116     4     3    2
   117     3     2    1
   118   191   181   am
   119   191   192    1
   120   181   182    2
   121   193   192    1
   122   193   194    2
   123     2     1    1
   124     2     5    1
   125    66    64   am
   126     7     9   ar
   127     7     6   ar
   128    65    64    2
   129     9    11   ar
   130     5     6    1
   131    64    63    1
   132     6     8   ar
   133    86    84   ar
   134    85    84   ar
   135    63    60    1
   136    84    83    1
   137    11    10   ar
   138     8    10   ar
   139    83    80    1
   140    60    59    1
   141    60    61    1
   142   195   196    1
   143   196   199    1
   144   196   197    1
   145   199   200    1
   146    62    61    2
   147    61    67   am
   148    80    81    1
   149    80    79    1
   150    82    81    2
   151   197   198    2
   152    50    49    1
   153    67    68    1
   154    79    73   am
   155    77    76   ar
   156    49    46    1
   157    68    69    1
   158    73    74    2
   159    73    72    1
   160    71    69   am
   161    71    72    1
   162    76    78   ar
   163    76    75    1
   164    69    70    2
   165    46    47    1
   166    46    45    1
   167    72    75    1
   168    47    48    2
   169    45    40   am
   170    44    42    1
   171    40    41    2
   172    40    39    1
   173    42    43    1
   174    42    39    1
   175    58    56   am
   176    55    56    1
   177    55    52    1
   178    39    38    1
   179    53    54    2
   180    53    52    1
   181    37    35   ar
   182    56    57    2
   183    36    35   ar
   184    52    51    1
   185    35    34    1
   186    30    31    1
   187    34    31    1
   188    31    32    1
   189    32    33    2
