@<TRIPOS>MOLECULE
tmp/3ih0A00.pdb
 175 162 0 0 0
SMALL
GASTEIGER

@<TRIPOS>ATOM
      1  N          7.3020    5.5410   29.9560 N.3   157  ASP157     -0.1239
      2  CA         7.0660    6.1230   28.6400 C.3   157  ASP157      0.1674
      3  C          5.5630    6.3580   28.5250 C.2   157  ASP157      0.2266
      4  O          4.7910    5.4150   28.3490 O.2   157  ASP157     -0.2867
      5  CB         7.5240    5.1650   27.5370 C.3   157  ASP157      0.1410
      6  CG         7.5170    5.8130   26.1600 C.2   157  ASP157      0.3668
      7  OD1        6.6890    6.7180   25.9360 O.co2 157  ASP157     -0.2456
      8  OD2        8.3280    5.4100   25.2970 O.co2 157  ASP157     -0.2456
      9  N          3.5860    7.0320   26.3110 N.3   159  ASN159     -0.1240
     10  CA         2.9750    6.2990   25.1940 C.3   159  ASN159      0.1653
     11  C          1.4420    6.3640   25.2210 C.2   159  ASN159      0.2266
     12  O          0.7630    5.3430   25.3320 O.2   159  ASN159     -0.2867
     13  CB         3.4550    4.8430   25.2500 C.3   159  ASN159      0.1155
     14  CG         3.1470    4.0750   23.9840 C.2   159  ASN159      0.2627
     15  OD1        3.1740    4.6280   22.8850 O.2   159  ASN159     -0.2716
     16  ND2        2.8780    2.7830   24.1310 N.am  159  ASN159     -0.0877
     17  N         -2.3380    6.4870   24.2800 N.3   161  ARG161     -0.1245
     18  CA        -3.2380    5.9530   23.2670 C.3   161  ARG161      0.1563
     19  C         -4.6760    6.1830   23.7330 C.2   161  ARG161      0.2260
     20  O         -5.2330    5.3660   24.4670 O.2   161  ARG161     -0.2867
     21  CB        -2.9840    4.4600   23.0890 C.3   161  ARG161      0.0307
     22  CG        -1.5790    4.1190   22.6230 C.3   161  ARG161      0.0489
     23  CD        -1.4160    4.3650   21.1320 C.3   161  ARG161      0.2205
     24  NE        -0.0730    4.0260   20.6610 N.pl3 161  ARG161     -0.0865
     25  CZ         1.0350    4.6830   20.9960 C.cat 161  ARG161      0.5346
     26  NH1        0.9740    5.7280   21.8100 N.pl3 161  ARG161      0.1354
     27  NH2        2.2090    4.2920   20.5180 N.pl3 161  ARG161      0.1354
     28  N          9.5170    9.7170   29.8130 N.3   186  LYS186     -0.1245
     29  CA         9.7100    9.9580   28.3880 C.3   186  LYS186      0.1561
     30  C          8.3510   10.2510   27.7550 C.2   186  LYS186      0.2260
     31  O          7.3700    9.5460   28.0170 O.2   186  LYS186     -0.2867
     32  CB        10.3600    8.7210   27.7490 C.3   186  LYS186      0.0271
     33  CG        10.3200    8.6900   26.2360 C.3   186  LYS186      0.0035
     34  CD        10.8870    7.3880   25.7110 C.3   186  LYS186      0.0206
     35  CE        10.6690    7.2410   24.2110 C.3   186  LYS186      0.1093
     36  NZ         9.2240    7.2970   23.8320 N.3   186  LYS186     -0.1314
     37  N          6.3160   12.5810   24.1750 N.3   188  SER188     -0.1217
     38  CA         6.4480   13.4080   22.9850 C.3   188  SER188      0.1889
     39  C          5.8780   14.7730   23.3400 C.2   188  SER188      0.2288
     40  O          5.1120   14.8960   24.2990 O.2   188  SER188     -0.2866
     41  CB         5.6510   12.8210   21.8250 C.3   188  SER188      0.2089
     42  OG         4.2630   12.8730   22.0990 O.3   188  SER188     -0.2183
     43  N          2.1730   14.8320   23.6930 N.3   191  GLU191     -0.1245
     44  CA         1.7040   14.2760   24.9580 C.3   191  GLU191      0.1567
     45  C          1.8650   15.2620   26.1090 C.2   191  GLU191      0.2260
     46  O          0.9750   15.3940   26.9550 O.2   191  GLU191     -0.2867
     47  CB         2.4500   12.9760   25.2640 C.3   191  GLU191      0.0388
     48  CG         2.2060   11.9100   24.2100 C.3   191  GLU191      0.1160
     49  CD         3.0840   10.6860   24.3730 C.2   191  GLU191      0.3649
     50  OE1        4.1400   10.7810   25.0380 O.co2 191  GLU191     -0.2457
     51  OE2        2.7190    9.6320   23.8170 O.co2 191  GLU191     -0.2457
     52  N         10.3560   14.0870   23.3020 N.3   210  THR210     -0.1218
     53  CA        10.6990   13.9010   21.8980 C.3   210  THR210      0.1862
     54  C          9.9660   14.8780   21.0140 C.2   210  THR210      0.2287
     55  O          8.8530   15.2900   21.3240 O.2   210  THR210     -0.2866
     56  CB        10.3800   12.4910   21.4110 C.3   210  THR210      0.1770
     57  OG1        9.0400   12.1470   21.7850 O.3   210  THR210     -0.2211
     58  CG2       11.3700   11.5060   21.9920 C.3   210  THR210      0.0375
     59  N          9.7450   14.2620   17.4770 N.3   212  GLY212     -0.1210
     60  CA         9.6440   13.5910   16.1960 C.3   212  GLY212      0.1940
     61  C         10.9650   13.5980   15.4530 C.2   212  GLY212      0.2453
     62  O         12.0330   13.5410   16.0650 O.2   212  GLY212     -0.2732
     63  N         10.9270   13.6780   14.1200 N.am  213  PRO213     -0.2728
     64  CA        12.1340   13.6900   13.2910 C.3   213  PRO213      0.1401
     65  C         13.1100   14.8160   13.6360 C.2   213  PRO213      0.2269
     66  O         14.3160   14.6670   13.4580 O.2   213  PRO213     -0.2865
     67  CB        11.5770   13.8250   11.8800 C.3   213  PRO213      0.0296
     68  CG        10.2440   13.1320   11.9870 C.3   213  PRO213      0.0237
     69  CD         9.7180   13.6750   13.2830 C.3   213  PRO213      0.0939
     70  N         14.1050   15.9070   16.4910 N.3   215  GLY215     -0.1210
     71  CA        15.0440   15.5490   17.5350 C.3   215  GLY215      0.1956
     72  C         14.3690   15.4620   18.8910 C.2   215  GLY215      0.2611
     73  O         13.1520   15.2760   18.9730 O.2   215  GLY215     -0.2717
     74  N         15.1500   15.5950   19.9590 N.am  216  PHE216     -0.1976
     75  CA        14.5900   15.5190   21.2980 C.3   216  PHE216      0.1639
     76  C         15.2020   16.5180   22.2690 C.2   216  PHE216      0.2290
     77  O         16.1190   17.2650   21.9190 O.2   216  PHE216     -0.2864
     78  CB        14.7480   14.1050   21.8490 C.3   216  PHE216      0.0560
     79  CG        16.1720   13.6590   21.9840 C.ar  216  PHE216     -0.0200
     80  CD1       16.7800   13.6000   23.2330 C.ar  216  PHE216     -0.0042
     81  CD2       16.9000   13.2620   20.8640 C.ar  216  PHE216     -0.0042
     82  CE1       18.0880   13.1450   23.3690 C.ar  216  PHE216     -0.0003
     83  CE2       18.2090   12.8050   20.9880 C.ar  216  PHE216     -0.0003
     84  CZ        18.8040   12.7450   22.2410 C.ar  216  PHE216     -0.0000
     85  N         18.3280   16.0810   15.8900 N.3   229  SER229     -0.1202
     86  CA        18.5710   14.7600   15.3230 C.3   229  SER229      0.2020
     87  C         19.6310   14.7280   14.2370 C.2   229  SER229      0.2618
     88  O         19.7400   15.6560   13.4230 O.2   229  SER229     -0.2717
     89  CB        17.2780   14.1840   14.7540 C.3   229  SER229      0.2103
     90  OG        16.8520   14.9470   13.6440 O.3   229  SER229     -0.2182
     91  N         20.4080   13.6460   14.2340 N.am  230  TYR230     -0.1975
     92  CA        21.4460   13.4380   13.2290 C.3   230  TYR230      0.1639
     93  C         20.7090   13.2760   11.9100 C.2   230  TYR230      0.2290
     94  O         19.5750   12.8050   11.8890 O.2   230  TYR230     -0.2864
     95  CB        22.2490   12.1660   13.5370 C.3   230  TYR230      0.0560
     96  CG        23.2420   12.3080   14.6750 C.ar  230  TYR230     -0.0198
     97  CD1       23.6270   11.2000   15.4320 C.ar  230  TYR230     -0.0009
     98  CD2       23.8030   13.5470   14.9930 C.ar  230  TYR230     -0.0009
     99  CE1       24.5380   11.3240   16.4800 C.ar  230  TYR230      0.0417
    100  CE2       24.7150   13.6820   16.0350 C.ar  230  TYR230      0.0417
    101  CZ        25.0760   12.5690   16.7760 C.ar  230  TYR230      0.1957
    102  OH        25.9640   12.7080   17.8190 O.3   230  TYR230     -0.2866
    103  N         19.5930   11.6240    8.5630 N.3   232  VAL232     -0.1245
    104  CA        19.5180   10.3020    7.9640 C.3   232  VAL232      0.1561
    105  C         18.2890   10.2010    7.0640 C.2   232  VAL232      0.2260
    106  O         17.3280   10.9570    7.2210 O.2   232  VAL232     -0.2867
    107  CB        19.4050    9.1950    9.0360 C.3   232  VAL232      0.0252
    108  CG1       20.6020    9.2330    9.9580 C.3   232  VAL232      0.0019
    109  CG2       18.1240    9.3700    9.8240 C.3   232  VAL232      0.0019
    110  N         15.5300    7.8740    6.5430 N.3   234  PRO234     -0.2116
    111  CA        14.8250    6.7560    7.1720 C.3   234  PRO234      0.1372
    112  C         14.2020    5.6940    6.2780 C.2   234  PRO234      0.2244
    113  O         13.5540    5.9950    5.2800 O.2   234  PRO234     -0.2868
    114  CB        13.7840    7.4580    8.0380 C.3   234  PRO234      0.0268
    115  CG        13.4960    8.7060    7.2650 C.3   234  PRO234      0.0207
    116  CD        14.8710    9.1530    6.8640 C.3   234  PRO234      0.0892
    117  N         10.6760    4.2600   10.5750 N.3   237  THR237     -0.1203
    118  CA        10.8630    4.8780   11.8820 C.3   237  THR237      0.1994
    119  C          9.9500    4.3040   12.9620 C.2   237  THR237      0.2618
    120  O          9.8750    4.8390   14.0640 O.2   237  THR237     -0.2717
    121  CB        10.6400    6.4060   11.8140 C.3   237  THR237      0.1784
    122  OG1        9.3170    6.6730   11.3440 O.3   237  THR237     -0.2211
    123  CG2       11.6530    7.0570   10.8790 C.3   237  THR237      0.0376
    124  N          9.2660    3.2090   12.6550 N.am  238  THR238     -0.1952
    125  CA         8.3590    2.5960   13.6110 C.3   238  THR238      0.1897
    126  C          8.9710    2.2950   14.9780 C.2   238  THR238      0.2313
    127  O          8.3670    2.5920   16.0090 O.2   238  THR238     -0.2863
    128  CB         7.7770    1.2990   13.0490 C.3   238  THR238      0.1794
    129  OG1        7.1060    1.5810   11.8130 O.3   238  THR238     -0.2208
    130  CG2        6.7960    0.6900   14.0370 C.3   238  THR238      0.0378
    131  N         11.7600    3.6330   16.2850 N.3   240  ALA240     -0.1231
    132  CA        12.6370    4.7000   16.7820 C.3   240  ALA240      0.1694
    133  C         12.4340    5.0730   18.2570 C.2   240  ALA240      0.2592
    134  O         13.3990    5.1990   19.0210 O.2   240  ALA240     -0.2718
    135  CB        12.4730    5.9460   15.9060 C.3   240  ALA240      0.0304
    136  N         11.1750    5.2600   18.6430 N.am  241  GLY241     -0.1957
    137  CA        10.8540    5.6310   20.0100 C.3   241  GLY241      0.1869
    138  C         11.3620    4.6340   21.0320 C.2   241  GLY241      0.2309
    139  O         11.9750    5.0030   22.0350 O.2   241  GLY241     -0.2863
    140  N         15.0910    4.5820   21.1630 N.3   244  PHE244     -0.1241
    141  CA        15.5060    5.7720   21.9000 C.3   244  PHE244      0.1605
    142  C         15.4590    5.4670   23.3920 C.2   244  PHE244      0.2264
    143  O         16.4160    5.7240   24.1160 O.2   244  PHE244     -0.2867
    144  CB        14.5550    6.9320   21.5900 C.3   244  PHE244      0.0534
    145  CG        14.7690    8.1460   22.4530 C.ar  244  PHE244     -0.0203
    146  CD1       15.8070    9.0380   22.1940 C.ar  244  PHE244     -0.0042
    147  CD2       13.9140    8.4110   23.5100 C.ar  244  PHE244     -0.0042
    148  CE1       15.9830   10.1750   22.9850 C.ar  244  PHE244     -0.0003
    149  CE2       14.0840    9.5450   24.3050 C.ar  244  PHE244     -0.0003
    150  CZ        15.1170   10.4270   24.0380 C.ar  244  PHE244     -0.0000
    151  N         20.7610    9.8510   20.5850 N.3   267  ASN267     -0.1240
    152  CA        20.5610   10.4310   19.2670 C.3   267  ASN267      0.1653
    153  C         21.0810    9.4690   18.1940 C.2   267  ASN267      0.2266
    154  O         20.4060    9.2090   17.1930 O.2   267  ASN267     -0.2867
    155  CB        21.2850   11.7800   19.1860 C.3   267  ASN267      0.1155
    156  CG        20.9610   12.5340   17.9220 C.2   267  ASN267      0.2627
    157  OD1       20.0300   12.1790   17.2080 O.2   267  ASN267     -0.2716
    158  ND2       21.7190   13.5930   17.6430 N.am  267  ASN267     -0.0877
    159  N         18.9120    6.1120   18.0630 N.3   270  ALA270     -0.1231
    160  CA        17.6170    6.3800   17.4450 C.3   270  ALA270      0.1694
    161  C         17.7720    6.5780   15.9400 C.2   270  ALA270      0.2591
    162  O         17.0420    5.9820   15.1410 O.2   270  ALA270     -0.2718
    163  CB        16.9920    7.6220   18.0660 C.3   270  ALA270      0.0304
    164  N         18.7180    7.4310   15.5650 N.am  271  ALA271     -0.1980
    165  CA        18.9770    7.7220   14.1640 C.3   271  ALA271      0.1597
    166  C         19.2820    6.4620   13.3650 C.2   271  ALA271      0.2287
    167  O         18.7470    6.2640   12.2800 O.2   271  ALA271     -0.2864
    168  CB        20.1300    8.6930   14.0450 C.3   271  ALA271      0.0319
    169  N         16.4430    3.9650   12.4090 N.3   274  THR274     -0.1218
    170  CA        15.6230    4.2630   11.2450 C.3   274  THR274      0.1862
    171  C         16.1130    3.5150   10.0030 C.2   274  THR274      0.2287
    172  O         15.4400    3.5040    8.9780 O.2   274  THR274     -0.2866
    173  CB        15.5960    5.7750   10.9480 C.3   274  THR274      0.1770
    174  OG1       16.9140    6.2210   10.6230 O.3   274  THR274     -0.2211
    175  CG2       15.0980    6.5450   12.1620 C.3   274  THR274      0.0375
@<TRIPOS>BOND
     1   113   112    2
     2   112   111    1
     3   110   116    1
     4   110   111    1
     5   116   115    1
     6   105   106    2
     7   105   104    1
     8   111   114    1
     9   115   114    1
    10   104   103    1
    11   104   107    1
    12   172   171    2
    13   107   109    1
    14   107   108    1
    15   171   170    1
    16   117   118    1
    17   174   173    1
    18   123   121    1
    19   173   170    1
    20   173   175    1
    21   170   169    1
    22   122   121    1
    23   129   128    1
    24   121   118    1
    25    67    68    1
    26    67    64    1
    27   118   119    1
    28    94    93    2
    29    93    92    1
    30    68    69    1
    31   167   166    2
    32   124   119   am
    33   124   125    1
    34   119   120    2
    35   128   125    1
    36   128   130    1
    37    92    95    1
    38    92    91    1
    39    69    63    1
    40    64    65    1
    41    64    63    1
    42   166   165    1
    43    88    87    2
    44    66    65    2
    45    95    96    1
    46   125   126    1
    47    90    89    1
    48   168   165    1
    49    63    61   am
    50   165   164    1
    51    91    87   am
    52    87    86    1
    53    96    98   ar
    54    96    97   ar
    55    89    86    1
    56   126   127    2
    57    98   100   ar
    58   162   161    2
    59    86    85    1
    60    97    99   ar
    61    61    62    2
    62    61    60    1
    63   164   161   am
    64   135   132    1
    65   161   160    1
    66   100   101   ar
    67    60    59    1
    68   131   132    1
    69    99   101   ar
    70    70    71    1
    71   101   102    1
    72   132   133    1
    73   154   153    2
    74   157   156    2
    75   160   159    1
    76   160   163    1
    77    71    72    1
    78   158   156   am
    79   156   155    1
    80   153   152    1
    81   133   136   am
    82   133   134    2
    83   136   137    1
    84    72    73    2
    85    72    74   am
    86   155   152    1
    87   152   151    1
    88    74    75    1
    89   137   138    1
    90    27    25    1
    91    24    25    2
    92    24    23    1
    93    81    83   ar
    94    81    79   ar
    95    83    84   ar
    96    25    26    1
    97    54    55    2
    98    54    53    1
    99   138   139    2
   100    23    22    1
   101   140   141    1
   102    75    78    1
   103    75    76    1
   104    56    57    1
   105    56    53    1
   106    56    58    1
   107   144   141    1
   108   144   145    1
   109    41    42    1
   110    41    38    1
   111    78    79    1
   112    53    52    1
   113   141   142    1
   114    77    76    2
   115    79    80   ar
   116   146   145   ar
   117   146   148   ar
   118    84    82   ar
   119   145   147   ar
   120    22    21    1
   121    15    14    2
   122    38    39    1
   123    38    37    1
   124   148   150   ar
   125    21    18    1
   126    80    82   ar
   127    18    19    1
   128    18    17    1
   129    39    40    2
   130   142   143    2
   131   147   149   ar
   132    43    44    1
   133    19    20    2
   134    51    49   ar
   135    36    35    1
   136    14    16   am
   137    14    13    1
   138   150   149   ar
   139    48    49    1
   140    48    47    1
   141    35    34    1
   142    49    50   ar
   143    44    47    1
   144    44    45    1
   145    10    11    1
   146    10    13    1
   147    10     9    1
   148    11    12    2
   149     8     6   ar
   150    34    33    1
   151     7     6   ar
   152    45    46    2
   153     6     5    1
   154    33    32    1
   155     5     2    1
   156    32    29    1
   157    30    31    2
   158    30    29    1
   159     4     3    2
   160    29    28    1
   161     3     2    1
   162     2     1    1
