@<TRIPOS>MOLECULE
tmp/3ihbA00.pdb
 136 129 0 0 0
SMALL
GASTEIGER

@<TRIPOS>ATOM
      1  N         16.6840   22.0360   19.9410 N.3    27  TYR27      -0.1227
      2  CA        15.7270   22.7590   20.7840 C.3    27  TYR27       0.1736
      3  C         15.3130   22.1790   22.1430 C.2    27  TYR27       0.2595
      4  O         14.3260   22.6180   22.7360 O.2    27  TYR27      -0.2718
      5  CB        14.4770   23.1030   19.9610 C.3    27  TYR27       0.0548
      6  CG        13.6900   21.9290   19.4190 C.ar   27  TYR27      -0.0200
      7  CD1       12.6660   21.3460   20.1670 C.ar   27  TYR27      -0.0009
      8  CD2       13.9330   21.4340   18.1350 C.ar   27  TYR27      -0.0009
      9  CE1       11.8950   20.3030   19.6490 C.ar   27  TYR27       0.0417
     10  CE2       13.1690   20.3900   17.6070 C.ar   27  TYR27       0.0417
     11  CZ        12.1500   19.8330   18.3710 C.ar   27  TYR27       0.1957
     12  OH        11.3800   18.8160   17.8570 O.3    27  TYR27      -0.2866
     13  N         16.0780   21.2150   22.6420 N.am   28  ILE28      -0.1980
     14  CA        15.8250   20.5880   23.9430 C.3    28  ILE28       0.1595
     15  C         17.1830   20.0830   24.4140 C.2    28  ILE28       0.2287
     16  O         17.6380   19.0240   23.9870 O.2    28  ILE28      -0.2864
     17  CB        14.8310   19.4020   23.8210 C.3    28  ILE28       0.0276
     18  CG1       13.4510   19.9270   23.3980 C.3    28  ILE28       0.0022
     19  CG2       14.7300   18.6540   25.1450 C.3    28  ILE28       0.0022
     20  CD1       12.4310   18.8440   23.1060 C.3    28  ILE28       0.0001
     21  N          9.0480   10.2680   21.3020 N.3    63  GLN63      -0.1231
     22  CA         8.5810   11.5060   20.7020 C.3    63  GLN63       0.1698
     23  C          7.4720   11.2970   19.6650 C.2    63  GLN63       0.2592
     24  O          6.5290   10.5520   19.9140 O.2    63  GLN63      -0.2718
     25  CB         9.7670   12.2440   20.0840 C.3    63  GLN63       0.0381
     26  CG        10.8870   12.5810   21.0780 C.3    63  GLN63       0.0905
     27  CD        10.4360   13.4920   22.2250 C.2    63  GLN63       0.2608
     28  OE1        9.6570   14.4200   22.0260 O.2    63  GLN63      -0.2717
     29  NE2       10.9490   13.2360   23.4280 N.am   63  GLN63      -0.0878
     30  N          7.5940   11.9410   18.5030 N.am   64  SER64      -0.1952
     31  CA         6.5800   11.8570   17.4430 C.3    64  SER64       0.1924
     32  C          6.1300   10.4610   17.0860 C.2    64  SER64       0.2314
     33  O          4.9690   10.2600   16.7250 O.2    64  SER64      -0.2863
     34  CB         7.0520   12.5530   16.1600 C.3    64  SER64       0.2116
     35  OG         6.6880   13.9260   16.1450 O.3    64  SER64      -0.2180
     36  N          2.7500    9.2910   18.3110 N.3    67  LYS67      -0.1245
     37  CA         1.5200    9.7980   17.6980 C.3    67  LYS67       0.1561
     38  C          0.5720    8.7660   17.0760 C.2    67  LYS67       0.2260
     39  O         -0.6390    8.8600   17.2470 O.2    67  LYS67      -0.2867
     40  CB         1.8750   10.8810   16.6770 C.3    67  LYS67       0.0271
     41  CG         2.3030   12.1760   17.3410 C.3    67  LYS67       0.0035
     42  CD         2.8320   13.1700   16.3410 C.3    67  LYS67       0.0206
     43  CE         3.1790   14.4730   17.0230 C.3    67  LYS67       0.1093
     44  NZ         3.9670   15.3390   16.1340 N.3    67  LYS67      -0.1314
     45  N          1.9720   18.0710   15.3710 N.3   114  ASN114     -0.1240
     46  CA         1.7860   18.4240   16.7800 C.3   114  ASN114      0.1653
     47  C          0.3680   18.8820   17.1150 C.2   114  ASN114      0.2266
     48  O         -0.2520   18.3600   18.0390 O.2   114  ASN114     -0.2867
     49  CB         2.7890   19.5120   17.1860 C.3   114  ASN114      0.1155
     50  CG         4.2280   19.0160   17.1880 C.2   114  ASN114      0.2627
     51  OD1        4.5190   17.9030   16.7440 O.2   114  ASN114     -0.2716
     52  ND2        5.1410   19.8500   17.6850 N.am  114  ASN114     -0.0877
     53  N         11.8450   19.5540   28.4090 N.3   160  GLU160     -0.1245
     54  CA        10.9980   20.0690   27.3450 C.3   160  GLU160      0.1567
     55  C          9.8800   20.9710   27.8620 C.2   160  GLU160      0.2260
     56  O          9.5240   21.9440   27.2080 O.2   160  GLU160     -0.2867
     57  CB        10.4120   18.9170   26.5080 C.3   160  GLU160      0.0388
     58  CG         9.2690   19.3500   25.5960 C.3   160  GLU160      0.1160
     59  CD         9.0020   18.3980   24.4360 C.2   160  GLU160      0.3649
     60  OE1        9.3020   17.1860   24.5460 O.co2 160  GLU160     -0.2457
     61  OE2        8.4670   18.8700   23.4100 O.co2 160  GLU160     -0.2457
     62  N          5.9650   26.8440   21.9110 N.3   166  ARG166     -0.1231
     63  CA         5.3710   26.5390   20.6130 C.3   166  ARG166      0.1694
     64  C          4.1420   25.6370   20.7580 C.2   166  ARG166      0.2592
     65  O          3.0760   25.9700   20.2490 O.2   166  ARG166     -0.2718
     66  CB         6.3950   25.8890   19.6630 C.3   166  ARG166      0.0321
     67  CG         5.8280   25.6060   18.2680 C.3   166  ARG166      0.0489
     68  CD         6.9060   25.2150   17.2570 C.3   166  ARG166      0.2205
     69  NE         6.3700   25.0530   15.9020 N.pl3 166  ARG166     -0.0865
     70  CZ         5.6320   24.0180   15.4950 C.cat 166  ARG166      0.5346
     71  NH1        5.3360   23.0320   16.3250 N.pl3 166  ARG166      0.1354
     72  NH2        5.1710   23.9760   14.2540 N.pl3 166  ARG166      0.1354
     73  N          4.2770   24.5070   21.4470 N.am  167  ASN167     -0.1974
     74  CA         3.1300   23.6160   21.6280 C.3   167  ASN167      0.1688
     75  C          2.0240   24.2590   22.4760 C.2   167  ASN167      0.2292
     76  O          0.8490   23.9270   22.3160 O.2   167  ASN167     -0.2864
     77  CB         3.5550   22.2840   22.2510 C.3   167  ASN167      0.1181
     78  CG         4.2190   21.3570   21.2440 C.2   167  ASN167      0.2629
     79  OD1        3.7980   21.2700   20.0890 O.2   167  ASN167     -0.2716
     80  ND2        5.2480   20.6450   21.6830 N.am  167  ASN167     -0.0877
     81  N          0.8440   15.5600   26.6060 N.3   191  TYR191     -0.1241
     82  CA         1.4870   15.2250   25.3370 C.3   191  TYR191      0.1605
     83  C          3.0110   15.1730   25.4720 C.2   191  TYR191      0.2264
     84  O          3.6640   14.3050   24.8840 O.2   191  TYR191     -0.2867
     85  CB         1.0850   16.2430   24.2620 C.3   191  TYR191      0.0534
     86  CG         1.9350   16.2260   23.0050 C.ar  191  TYR191     -0.0201
     87  CD1        1.8320   15.1910   22.0710 C.ar  191  TYR191     -0.0009
     88  CD2        2.8460   17.2550   22.7480 C.ar  191  TYR191     -0.0009
     89  CE1        2.6160   15.1800   20.9180 C.ar  191  TYR191      0.0417
     90  CE2        3.6330   17.2540   21.5940 C.ar  191  TYR191      0.0417
     91  CZ         3.5150   16.2190   20.6870 C.ar  191  TYR191      0.1957
     92  OH         4.3070   16.2190   19.5630 O.3   191  TYR191     -0.2866
     93  N          5.3850   12.0290   24.8150 N.3   195  CYS195     -0.1235
     94  CA         6.5600   12.0040   23.9530 C.3   195  CYS195      0.1677
     95  C          7.8090   11.5220   24.6710 C.2   195  CYS195      0.2270
     96  O          8.7940   11.1380   24.0300 O.2   195  CYS195     -0.2867
     97  CB         6.8270   13.4000   23.3840 C.3   195  CYS195      0.0956
     98  SG         5.6250   13.9720   22.1670 S.3   195  CYS195     -0.0801
     99  N          5.2510   14.3860    6.0370 N.3   243  TYR243     -0.1241
    100  CA         4.7940   15.7340    5.7180 C.3   243  TYR243      0.1605
    101  C          4.6900   16.0610    4.2210 C.2   243  TYR243      0.2264
    102  O          4.0640   15.3230    3.4720 O.2   243  TYR243     -0.2867
    103  CB         5.6990   16.7520    6.4330 C.3   243  TYR243      0.0534
    104  CG         5.8910   16.4540    7.9110 C.ar  243  TYR243     -0.0201
    105  CD1        6.9480   15.6530    8.3500 C.ar  243  TYR243     -0.0009
    106  CD2        4.9840   16.9260    8.8650 C.ar  243  TYR243     -0.0009
    107  CE1        7.0980   15.3260    9.7050 C.ar  243  TYR243      0.0417
    108  CE2        5.1190   16.6000   10.2270 C.ar  243  TYR243      0.0417
    109  CZ         6.1830   15.8010   10.6360 C.ar  243  TYR243      0.1957
    110  OH         6.3460   15.4720   11.9620 O.3   243  TYR243     -0.2866
    111  N          7.1900    6.9130   10.5830 N.3   258  LYS258     -0.1231
    112  CA         7.2370    8.1610   11.3200 C.3   258  LYS258      0.1693
    113  C          8.5160    8.2060   12.1250 C.2   258  LYS258      0.2593
    114  O          8.8680    7.2510   12.8170 O.2   258  LYS258     -0.2718
    115  CB         6.0570    8.3080   12.2820 C.3   258  LYS258      0.0285
    116  CG         5.9470    9.7240   12.8750 C.3   258  LYS258      0.0035
    117  CD         5.7060   10.7500   11.7510 C.3   258  LYS258      0.0206
    118  CE         5.7220   12.1950   12.2440 C.3   258  LYS258      0.1093
    119  NZ         7.1150   12.6130   12.5770 N.3   258  LYS258     -0.1314
    120  N          9.2120    9.3270   12.0290 N.am  259  SER259     -0.1938
    121  CA        10.4460    9.5260   12.7630 C.3   259  SER259      0.2055
    122  C         10.1540   10.3740   14.0030 C.2   259  SER259      0.2644
    123  O          9.1060   11.0120   14.0920 O.2   259  SER259     -0.2714
    124  CB        11.4710   10.2340   11.8680 C.3   259  SER259      0.2130
    125  OG        12.6130   10.6280   12.6090 O.3   259  SER259     -0.2179
    126  N         11.0850   10.3610   14.9520 N.am  260  GLY260     -0.1939
    127  CA        10.9660   11.1410   16.1740 C.3   260  GLY260      0.2014
    128  C         12.2800   11.8770   16.3600 C.2   260  GLY260      0.2638
    129  O         13.3410   11.3130   16.0780 O.2   260  GLY260     -0.2714
    130  N         12.2290   13.1210   16.8320 N.am  261  VAL261     -0.1977
    131  CA        13.4420   13.9260   17.0000 C.3   261  VAL261      0.1596
    132  C         14.5260   13.4100   17.9530 C.2   261  VAL261      0.2287
    133  O         15.5550   14.0670   18.1290 O.2   261  VAL261     -0.2864
    134  CB        13.0890   15.3770   17.4060 C.3   261  VAL261      0.0276
    135  CG1       12.1510   15.9650   16.3900 C.3   261  VAL261      0.0022
    136  CG2       12.4660   15.4100   18.7900 C.3   261  VAL261      0.0022
@<TRIPOS>BOND
     1   102   101    2
     2   101   100    1
     3   100    99    1
     4   100   103    1
     5   103   104    1
     6   104   105   ar
     7   104   106   ar
     8   105   107   ar
     9   106   108   ar
    10   107   109   ar
    11   108   109   ar
    12   111   112    1
    13   109   110    1
    14   112   113    1
    15   112   115    1
    16   117   118    1
    17   117   116    1
    18   124   125    1
    19   124   121    1
    20   120   113   am
    21   120   121    1
    22   113   114    2
    23   118   119    1
    24   115   116    1
    25   121   122    1
    26   122   123    2
    27   122   126   am
    28    72    70    1
    29   126   127    1
    30    45    46    1
    31    70    69    2
    32    70    71    1
    33    69    68    1
    34   129   128    2
    35    44    43    1
    36    35    34    1
    37    34    31    1
    38   127   128    1
    39    42    43    1
    40    42    41    1
    41   128   130   am
    42   135   134    1
    43    40    41    1
    44    40    37    1
    45    33    32    2
    46    51    50    2
    47    46    47    1
    48    46    49    1
    49   130   131    1
    50   131   134    1
    51   131   132    1
    52    38    39    2
    53    38    37    1
    54    32    31    1
    55    47    48    2
    56    49    50    1
    57    50    52   am
    58    68    67    1
    59   134   136    1
    60    31    30    1
    61    10     8   ar
    62    10    11   ar
    63    37    36    1
    64    12    11    1
    65   132   133    2
    66     8     6   ar
    67    67    66    1
    68    11     9   ar
    69    30    23   am
    70     6     5    1
    71     6     7   ar
    72    92    91    1
    73     9     7   ar
    74    66    63    1
    75    23    24    2
    76    23    22    1
    77     1     2    1
    78     5     2    1
    79    25    22    1
    80    25    26    1
    81    79    78    2
    82    65    64    2
    83    63    64    1
    84    63    62    1
    85    91    89   ar
    86    91    90   ar
    87    22    21    1
    88    64    73   am
    89     2     3    1
    90    89    87   ar
    91    26    27    1
    92    78    80   am
    93    78    77    1
    94    73    74    1
    95    90    88   ar
    96    74    77    1
    97    74    75    1
    98    28    27    2
    99    87    86   ar
   100     3    13   am
   101     3     4    2
   102    98    97    1
   103    27    29   am
   104    76    75    2
   105    13    14    1
   106    88    86   ar
   107    86    85    1
   108    20    18    1
   109    97    94    1
   110    18    17    1
   111    61    59   ar
   112    17    14    1
   113    17    19    1
   114    14    15    1
   115    94    95    1
   116    94    93    1
   117    16    15    2
   118    96    95    2
   119    85    82    1
   120    59    60   ar
   121    59    58    1
   122    84    83    2
   123    82    83    1
   124    82    81    1
   125    58    57    1
   126    57    54    1
   127    56    55    2
   128    54    55    1
   129    54    53    1
