@<TRIPOS>MOLECULE
tmp/3ihgA01.pdb
 216 210 0 0 0
SMALL
GASTEIGER

@<TRIPOS>ATOM
      1  N         14.2360   26.5550   -6.3010 N.3    45  ARG45      -0.1231
      2  CA        13.2740   27.2850   -7.1150 C.3    45  ARG45       0.1694
      3  C         12.1120   27.7760   -6.2150 C.2    45  ARG45       0.2592
      4  O         12.4030   28.4420   -5.2220 O.2    45  ARG45      -0.2718
      5  CB        12.8260   26.4020   -8.2940 C.3    45  ARG45       0.0321
      6  CG        14.0270   25.9390   -9.1300 C.3    45  ARG45       0.0489
      7  CD        13.6510   24.8820  -10.1180 C.3    45  ARG45       0.2205
      8  NE        13.6530   23.6260   -9.4410 N.pl3  45  ARG45      -0.0865
      9  CZ        12.7630   22.6730   -9.6090 C.cat  45  ARG45       0.5346
     10  NH1       11.7430   22.8140  -10.4740 N.pl3  45  ARG45       0.1354
     11  NH2       12.8960   21.5950   -8.8520 N.pl3  45  ARG45       0.1354
     12  N         10.8460   27.4330   -6.5200 N.am   46  ALA46      -0.1966
     13  CA         9.6630   28.0040   -5.8280 C.3    46  ALA46       0.1728
     14  C          9.3370   27.2860   -4.5300 C.2    46  ALA46       0.2616
     15  O          9.2370   26.0650   -4.5010 O.2    46  ALA46      -0.2715
     16  CB         8.4580   28.0160   -6.7270 C.3    46  ALA46       0.0334
     17  N          9.2240   28.0260   -3.4390 N.am   47  ALA47      -0.1963
     18  CA         9.0630   27.3790   -2.1590 C.3    47  ALA47       0.1728
     19  C          7.8610   27.9120   -1.4950 C.2    47  ALA47       0.2616
     20  O          7.4410   29.0610   -1.7420 O.2    47  ALA47      -0.2715
     21  CB        10.2610   27.5670   -1.2850 C.3    47  ALA47       0.0334
     22  N          7.2820   27.0560   -0.6710 N.am   48  GLY48      -0.1955
     23  CA         6.1410   27.4350    0.1140 C.3    48  GLY48       0.1869
     24  C          4.8720   27.0830   -0.6200 C.2    48  GLY48       0.2309
     25  O          4.7720   27.3130   -1.8240 O.2    48  GLY48      -0.2863
     26  N         11.3730   24.5560    4.7210 N.3    72  ILE72      -0.1245
     27  CA        12.4810   25.4700    4.7330 C.3    72  ILE72       0.1561
     28  C         12.6070   26.2460    6.0050 C.2    72  ILE72       0.2260
     29  O         13.5450   26.9900    6.1140 O.2    72  ILE72      -0.2867
     30  CB        12.4720   26.4790    3.5570 C.3    72  ILE72       0.0252
     31  CG1       11.2140   27.3250    3.6180 C.3    72  ILE72       0.0019
     32  CG2       12.6620   25.7830    2.2090 C.3    72  ILE72       0.0019
     33  CD1       11.2810   28.5300    2.7610 C.3    72  ILE72       0.0001
     34  N          9.8040   31.2030   10.7940 N.3    79  PHE79      -0.1241
     35  CA        10.0900   31.8160    9.5200 C.3    79  PHE79       0.1605
     36  C          9.6330   33.2380    9.6350 C.2    79  PHE79       0.2264
     37  O          8.5200   33.4920   10.0070 O.2    79  PHE79      -0.2867
     38  CB         9.3210   31.0740    8.3730 C.3    79  PHE79       0.0534
     39  CG         9.7400   31.4690    6.9810 C.ar   79  PHE79      -0.0203
     40  CD1       10.8090   30.8560    6.3670 C.ar   79  PHE79      -0.0042
     41  CD2        9.0540   32.4450    6.2850 C.ar   79  PHE79      -0.0042
     42  CE1       11.2030   31.2390    5.0710 C.ar   79  PHE79      -0.0003
     43  CE2        9.4270   32.8140    4.9930 C.ar   79  PHE79      -0.0003
     44  CZ        10.5070   32.2260    4.3960 C.ar   79  PHE79      -0.0000
     45  N          9.5740   37.2650    7.7340 N.3    81  ILE81      -0.1245
     46  CA         9.7280   38.0110    6.4770 C.3    81  ILE81       0.1561
     47  C          9.9960   39.4910    6.7030 C.2    81  ILE81       0.2260
     48  O          9.2040   40.1800    7.3400 O.2    81  ILE81      -0.2867
     49  CB         8.5330   37.8230    5.5400 C.3    81  ILE81       0.0252
     50  CG1        8.2660   36.3380    5.3320 C.3    81  ILE81       0.0019
     51  CG2        8.7820   38.5420    4.1930 C.3    81  ILE81       0.0019
     52  CD1        6.9320   36.0600    4.7070 C.3    81  ILE81       0.0001
     53  N          1.7690   33.8960   10.2640 N.3   102  MET102     -0.1245
     54  CA         1.5340   33.8740    8.8320 C.3   102  MET102      0.1570
     55  C          0.2840   33.0430    8.5920 C.2   102  MET102      0.2261
     56  O         -0.6310   33.4690    7.8590 O.2   102  MET102     -0.2867
     57  CB         2.7060   33.2350    8.1210 C.3   102  MET102      0.0387
     58  CG         2.8500   33.5880    6.6750 C.3   102  MET102      0.0595
     59  SD         4.1820   32.5940    5.9860 S.3   102  MET102     -0.1393
     60  CE         5.4520   32.9170    7.2100 C.3   102  MET102      0.0692
     61  N         -0.2170   26.6880    5.7390 N.3   114  TRP114     -0.1241
     62  CA         0.9270   26.7710    4.8820 C.3   114  TRP114      0.1605
     63  C          1.7640   25.4690    5.0150 C.2   114  TRP114      0.2264
     64  O          1.7520   24.7390    6.0500 O.2   114  TRP114     -0.2867
     65  CB         1.7740   27.9970    5.2560 C.3   114  TRP114      0.0550
     66  CG         1.2760   29.3070    4.7530 C.ar  114  TRP114      0.0003
     67  CD1        0.2840   30.0780    5.2910 C.ar  114  TRP114      0.0946
     68  CD2        1.7450   30.0080    3.5900 C.ar  114  TRP114      0.0152
     69  NE1        0.0970   31.2260    4.5390 N.ar  114  TRP114     -0.2442
     70  CE2        0.9760   31.2010    3.4800 C.ar  114  TRP114      0.0810
     71  CE3        2.7450   29.7470    2.6330 C.ar  114  TRP114      0.0012
     72  CZ2        1.1780   32.1260    2.4590 C.ar  114  TRP114      0.0191
     73  CZ3        2.9370   30.6540    1.6260 C.ar  114  TRP114      0.0001
     74  CH2        2.1490   31.8480    1.5480 C.ar  114  TRP114      0.0015
     75  N          5.9520   24.5360    3.7010 N.3   116  MET116     -0.1245
     76  CA         7.1200   25.2950    3.3270 C.3   116  MET116      0.1570
     77  C          8.2120   24.4930    2.5740 C.2   116  MET116      0.2261
     78  O          9.4110   24.7540    2.7180 O.2   116  MET116     -0.2867
     79  CB         7.6750   26.0040    4.5580 C.3   116  MET116      0.0387
     80  CG         6.6700   26.9000    5.2570 C.3   116  MET116      0.0595
     81  SD         6.4440   28.5720    4.6360 S.3   116  MET116     -0.1393
     82  CE         8.0360   29.2610    4.6840 C.3   116  MET116      0.0692
     83  N         18.0960   40.0040  -12.2730 N.3   202  MET202     -0.1245
     84  CA        18.6320   39.6450  -10.9890 C.3   202  MET202      0.1570
     85  C         19.4820   38.4460  -11.2090 C.2   202  MET202      0.2261
     86  O         19.2290   37.6600  -12.1340 O.2   202  MET202     -0.2867
     87  CB        17.4720   39.2590  -10.0800 C.3   202  MET202      0.0387
     88  CG        17.6110   39.6540   -8.6280 C.3   202  MET202      0.0595
     89  SD        16.0850   40.1940   -7.8760 S.3   202  MET202     -0.1393
     90  CE        15.2580   38.6300   -7.8350 C.3   202  MET202      0.0692
     91  N         12.7590   35.0440    4.8620 N.3   222  TRP222     -0.1241
     92  CA        12.9740   35.7170    3.6050 C.3   222  TRP222      0.1605
     93  C         13.2500   37.1890    3.8160 C.2   222  TRP222      0.2264
     94  O         12.5320   37.8670    4.5490 O.2   222  TRP222     -0.2867
     95  CB        11.7220   35.5810    2.7500 C.3   222  TRP222      0.0550
     96  CG        11.9180   35.9940    1.3560 C.ar  222  TRP222      0.0003
     97  CD1       11.4340   37.0990    0.7740 C.ar  222  TRP222      0.0946
     98  CD2       12.6820   35.3100    0.3660 C.ar  222  TRP222      0.0152
     99  NE1       11.8140   37.1530   -0.5430 N.ar  222  TRP222     -0.2442
    100  CE2       12.5920   36.0650   -0.8200 C.ar  222  TRP222      0.0810
    101  CE3       13.4130   34.1070    0.3540 C.ar  222  TRP222      0.0012
    102  CZ2       13.2110   35.6780   -2.0120 C.ar  222  TRP222      0.0191
    103  CZ3       14.0220   33.7140   -0.8510 C.ar  222  TRP222      0.0001
    104  CH2       13.9140   34.5040   -2.0150 C.ar  222  TRP222      0.0015
    105  N         14.1480   40.9790    2.1530 N.3   224  TYR224     -0.1241
    106  CA        14.3160   41.9490    1.1180 C.3   224  TYR224      0.1605
    107  C         15.4090   42.9580    1.4820 C.2   224  TYR224      0.2264
    108  O         15.2640   43.7350    2.4160 O.2   224  TYR224     -0.2867
    109  CB        12.9990   42.6290    0.8180 C.3   224  TYR224      0.0534
    110  CG        11.8510   41.6840    0.5870 C.ar  224  TYR224     -0.0201
    111  CD1       11.5840   41.1540   -0.6580 C.ar  224  TYR224     -0.0009
    112  CD2       11.0100   41.3400    1.6220 C.ar  224  TYR224     -0.0009
    113  CE1       10.5340   40.3030   -0.8490 C.ar  224  TYR224      0.0417
    114  CE2        9.9820   40.5140    1.4280 C.ar  224  TYR224      0.0417
    115  CZ         9.7380   40.0090    0.1880 C.ar  224  TYR224      0.1957
    116  OH         8.6670   39.1740    0.0240 O.3   224  TYR224     -0.2866
    117  N         17.4470   39.9630   -2.3440 N.3   233  THR233     -0.1218
    118  CA        16.6510   39.1670   -1.4600 C.3   233  THR233      0.1862
    119  C         17.5320   38.0170   -1.0080 C.2   233  THR233      0.2287
    120  O         18.5060   37.6730   -1.6780 O.2   233  THR233     -0.2866
    121  CB        15.3420   38.5810   -2.1400 C.3   233  THR233      0.1770
    122  OG1       15.6740   37.7110   -3.2270 O.3   233  THR233     -0.2211
    123  CG2       14.4050   39.6640   -2.6530 C.3   233  THR233      0.0375
    124  N         16.4870   31.0550    3.0330 N.3   236  PRO236     -0.2116
    125  CA        16.8410   29.7510    3.5220 C.3   236  PRO236      0.1372
    126  C         16.5220   28.6430    2.4940 C.2   236  PRO236      0.2244
    127  O         15.7700   28.8770    1.5770 O.2   236  PRO236     -0.2868
    128  CB        15.8610   29.5860    4.7110 C.3   236  PRO236      0.0268
    129  CG        14.6110   30.1890    4.1650 C.3   236  PRO236      0.0207
    130  CD        15.1170   31.4310    3.4290 C.3   236  PRO236      0.0892
    131  N         19.7990   36.8120   -4.0940 N.3   246  PHE246     -0.1241
    132  CA        19.4890   37.3650   -5.3810 C.3   246  PHE246      0.1605
    133  C         19.9280   38.8110   -5.3340 C.2   246  PHE246      0.2264
    134  O         19.8000   39.4530   -4.2950 O.2   246  PHE246     -0.2867
    135  CB        17.9950   37.2720   -5.6940 C.3   246  PHE246      0.0534
    136  CG        17.4950   35.8890   -6.0050 C.ar  246  PHE246     -0.0203
    137  CD1       17.4270   35.4390   -7.3150 C.ar  246  PHE246     -0.0042
    138  CD2       17.0200   35.0590   -4.9860 C.ar  246  PHE246     -0.0042
    139  CE1       16.8960   34.1600   -7.6300 C.ar  246  PHE246     -0.0003
    140  CE2       16.5170   33.7720   -5.2780 C.ar  246  PHE246     -0.0003
    141  CZ        16.4500   33.3250   -6.6260 C.ar  246  PHE246     -0.0000
    142  N         18.5350   35.7810  -14.2180 N.3   288  TRP288     -0.1241
    143  CA        17.1170   35.5920  -14.3870 C.3   288  TRP288      0.1605
    144  C         16.5810   36.9720  -14.8100 C.2   288  TRP288      0.2264
    145  O         16.9410   37.9940  -14.2410 O.2   288  TRP288     -0.2867
    146  CB        16.4930   35.1360  -13.0660 C.3   288  TRP288      0.0550
    147  CG        14.9820   34.7790  -13.0960 C.ar  288  TRP288      0.0003
    148  CD1       14.1060   34.8320  -14.1910 C.ar  288  TRP288      0.0946
    149  CD2       14.1780   34.3380  -11.9830 C.ar  288  TRP288      0.0152
    150  NE1       12.8310   34.4550  -13.8010 N.ar  288  TRP288     -0.2442
    151  CE2       12.8510   34.1370  -12.4660 C.ar  288  TRP288      0.0810
    152  CE3       14.4500   34.0950  -10.6200 C.ar  288  TRP288      0.0012
    153  CZ2       11.8100   33.7130  -11.6330 C.ar  288  TRP288      0.0191
    154  CZ3       13.4190   33.6680   -9.8030 C.ar  288  TRP288      0.0001
    155  CH2       12.1080   33.4890  -10.3200 C.ar  288  TRP288      0.0015
    156  N         13.1860   38.8410  -14.7290 N.3   290  MET290     -0.1245
    157  CA        11.8360   38.7600  -14.2380 C.3   290  MET290      0.1570
    158  C         10.8600   39.5880  -15.0530 C.2   290  MET290      0.2261
    159  O         11.2020   40.6700  -15.5610 O.2   290  MET290     -0.2867
    160  CB        11.7980   39.1310  -12.7900 C.3   290  MET290      0.0387
    161  CG        12.1120   37.9710  -11.9990 C.3   290  MET290      0.0595
    162  SD        13.0770   38.4890  -10.6510 S.3   290  MET290     -0.1393
    163  CE        14.6380   37.8300  -11.1730 C.3   290  MET290      0.0692
    164  N          8.4900   36.7170   -9.2530 N.3   315  PRO315     -0.2102
    165  CA         8.5370   35.7800   -8.1350 C.3   315  PRO315      0.1504
    166  C          8.0530   36.4070   -6.8190 C.2   315  PRO315      0.2576
    167  O          7.8070   35.6760   -5.8310 O.2   315  PRO315     -0.2718
    168  CB        10.0230   35.4240   -8.0270 C.3   315  PRO315      0.0282
    169  CG        10.7350   36.5720   -8.6430 C.3   315  PRO315      0.0208
    170  CD         9.8180   37.1150   -9.7240 C.3   315  PRO315      0.0893
    171  N          7.8960   37.7290   -6.7980 N.am  316  THR316     -0.1939
    172  CA         7.5630   38.4210   -5.5460 C.3   316  THR316      0.2028
    173  C          6.2210   38.0110   -4.9350 C.2   316  THR316      0.2643
    174  O          5.1710   38.0900   -5.5590 O.2   316  THR316     -0.2714
    175  CB         7.5860   39.9560   -5.7170 C.3   316  THR316      0.1808
    176  OG1        7.0460   40.2980   -7.0020 O.3   316  THR316     -0.2208
    177  CG2        8.9770   40.4980   -5.5600 C.3   316  THR316      0.0379
    178  N          6.2600   37.5730   -3.6900 N.am  317  GLY317     -0.1939
    179  CA         5.0340   37.0710   -2.9920 C.3   317  GLY317      0.2014
    180  C          4.9010   35.5530   -3.0570 C.2   317  GLY317      0.2639
    181  O          3.9420   35.0170   -2.5490 O.2   317  GLY317     -0.2714
    182  N          5.8720   34.8720   -3.6710 N.am  318  GLY318     -0.1954
    183  CA         5.9300   33.4140   -3.6960 C.3   318  GLY318      0.1869
    184  C          4.7350   32.6950   -4.2970 C.2   318  GLY318      0.2309
    185  O          4.2990   31.6280   -3.7920 O.2   318  GLY318     -0.2863
    186  N          7.8780   46.2250   -1.5720 N.3   373  ARG373     -0.1231
    187  CA         9.0140   45.5430   -0.8960 C.3   373  ARG373      0.1694
    188  C         10.3960   45.6770   -1.5600 C.2   373  ARG373      0.2591
    189  O         11.4170   45.4570   -0.9000 O.2   373  ARG373     -0.2718
    190  CB         8.6830   44.0630   -0.6530 C.3   373  ARG373      0.0321
    191  CG         7.3860   43.8160    0.1500 C.3   373  ARG373      0.0489
    192  CD         7.1840   42.3540    0.5390 C.3   373  ARG373      0.2205
    193  NE         5.7990   42.0930    0.8870 N.pl3 373  ARG373     -0.0865
    194  CZ         5.2620   40.8870    1.0260 C.cat 373  ARG373      0.5346
    195  NH1        6.0100   39.8200    0.8710 N.pl3 373  ARG373      0.1354
    196  NH2        3.9640   40.7520    1.3220 N.pl3 373  ARG373      0.1354
    197  N         10.4270   46.0250   -2.8500 N.am  374  MET374     -0.1979
    198  CA        11.6810   46.1370   -3.5820 C.3   374  MET374      0.1605
    199  C         11.8440   47.4900   -4.2860 C.2   374  MET374      0.2287
    200  O         12.9540   47.9850   -4.4350 O.2   374  MET374     -0.2864
    201  CB        11.8110   45.0470   -4.6320 C.3   374  MET374      0.0413
    202  CG        11.8380   43.6140   -4.1590 C.3   374  MET374      0.0598
    203  SD        13.3430   43.2270   -3.3580 S.3   374  MET374     -0.1393
    204  CE        14.6320   43.4350   -4.5740 C.3   374  MET374      0.0692
    205  N         -3.3820   40.3940   -0.3480 N.3   388  TYR388     -0.1241
    206  CA        -2.8470   39.0350   -0.5350 C.3   388  TYR388      0.1605
    207  C         -3.8990   37.9500   -0.3330 C.2   388  TYR388      0.2264
    208  O         -4.0940   37.1080   -1.2210 O.2   388  TYR388     -0.2867
    209  CB        -1.6380   38.8120    0.3630 C.3   388  TYR388      0.0534
    210  CG        -0.7010   37.6810    0.0190 C.ar  388  TYR388     -0.0201
    211  CD1       -0.5460   36.5840    0.8770 C.ar  388  TYR388     -0.0009
    212  CD2        0.0830   37.7100   -1.1250 C.ar  388  TYR388     -0.0009
    213  CE1        0.3340   35.5580    0.5800 C.ar  388  TYR388      0.0417
    214  CE2        0.9700   36.6870   -1.4050 C.ar  388  TYR388      0.0417
    215  CZ         1.0900   35.6440   -0.5650 C.ar  388  TYR388      0.1957
    216  OH         1.9970   34.6830   -0.8850 O.3   388  TYR388     -0.2866
@<TRIPOS>BOND
     1   159   158    2
     2   158   157    1
     3   144   143    1
     4   144   145    2
     5   156   157    1
     6   143   142    1
     7   143   146    1
     8   157   160    1
     9   148   150   ar
    10   148   147   ar
    11   150   151   ar
    12   147   146    1
    13   147   149   ar
    14   160   161    1
    15   151   149   ar
    16   151   153   ar
    17    83    84    1
    18    86    85    2
    19   161   162    1
    20   149   152   ar
    21   153   155   ar
    22    85    84    1
    23   163   162    1
    24    84    87    1
    25   152   154   ar
    26    10     9    1
    27   155   154   ar
    28     7     8    1
    29     7     6    1
    30    87    88    1
    31   170   164    1
    32   170   169    1
    33     9     8    2
    34     9    11    1
    35   164   165    1
    36     6     5    1
    37   169   168    1
    38    88    89    1
    39     5     2    1
    40   165   168    1
    41   165   166    1
    42    89    90    1
    43   139   137   ar
    44   139   141   ar
    45   137   136   ar
    46     2     1    1
    47     2     3    1
    48   176   175    1
    49   166   171   am
    50   166   167    2
    51   171   172    1
    52    16    13    1
    53   141   140   ar
    54    12     3   am
    55    12    13    1
    56     3     4    2
    57   136   135    1
    58   136   138   ar
    59    13    14    1
    60   175   177    1
    61   175   172    1
    62   135   132    1
    63   174   173    2
    64   172   173    1
    65   132   133    1
    66   132   131    1
    67   133   134    2
    68   140   138   ar
    69   173   178   am
    70   201   202    1
    71   201   198    1
    72   204   203    1
    73    14    15    2
    74    14    17   am
    75   200   199    2
    76   184   185    2
    77   184   183    1
    78   199   198    1
    79   202   203    1
    80   183   182    1
    81   178   179    1
    82   182   180   am
    83   198   197    1
    84    17    18    1
    85   122   121    1
    86   180   179    1
    87   180   181    2
    88   197   188   am
    89   123   121    1
    90   117   118    1
    91    18    19    1
    92    18    21    1
    93   121   118    1
    94   104   102   ar
    95   104   103   ar
    96   102   100   ar
    97    25    24    2
    98    20    19    2
    99   120   119    2
   100   186   187    1
   101   188   189    2
   102   188   187    1
   103    19    22   am
   104   118   119    1
   105   214   212   ar
   106   214   215   ar
   107   208   207    2
   108   212   210   ar
   109   187   190    1
   110   216   215    1
   111   103   101   ar
   112   113   111   ar
   113   113   115   ar
   114   100    99   ar
   115   100    98   ar
   116    22    23    1
   117   111   110   ar
   118   190   191    1
   119    24    23    1
   120   215   213   ar
   121    99    97   ar
   122   206   205    1
   123   206   207    1
   124   206   209    1
   125   210   209    1
   126   210   211   ar
   127   116   115    1
   128   191   192    1
   129   115   114   ar
   130   101    98   ar
   131    98    96   ar
   132   192   193    1
   133   213   211   ar
   134   110   109    1
   135   110   112   ar
   136    97    96   ar
   137   109   106    1
   138   195   194    1
   139   193   194    2
   140   194   196    1
   141   106   107    1
   142   106   105    1
   143    96    95    1
   144   114   112   ar
   145   107   108    2
   146    74    73   ar
   147    74    72   ar
   148   127   126    2
   149    73    71   ar
   150    32    30    1
   151    72    70   ar
   152   126   125    1
   153    77    78    2
   154    77    76    1
   155    71    68   ar
   156    95    92    1
   157    33    31    1
   158   124   130    1
   159   124   125    1
   160    76    75    1
   161    76    79    1
   162   130   129    1
   163    70    68   ar
   164    70    69   ar
   165   125   128    1
   166    30    31    1
   167    30    27    1
   168    68    66   ar
   169    92    93    1
   170    92    91    1
   171    93    94    2
   172   129   128    1
   173    51    49    1
   174    44    43   ar
   175    44    42   ar
   176    69    67   ar
   177    79    80    1
   178    81    82    1
   179    81    80    1
   180    52    50    1
   181    26    27    1
   182    27    28    1
   183    66    65    1
   184    66    67   ar
   185    62    63    1
   186    62    65    1
   187    62    61    1
   188    43    41   ar
   189    63    64    2
   190    42    40   ar
   191    50    49    1
   192    49    46    1
   193    59    58    1
   194    59    60    1
   195    28    29    2
   196    41    39   ar
   197    40    39   ar
   198    46    47    1
   199    46    45    1
   200    58    57    1
   201    47    48    2
   202    39    38    1
   203    56    55    2
   204    57    54    1
   205    38    35    1
   206    55    54    1
   207    54    53    1
   208    35    36    1
   209    35    34    1
   210    36    37    2
