@<TRIPOS>MOLECULE
tmp/3ihjA00.pdb
 122 113 0 0 0
SMALL
GASTEIGER

@<TRIPOS>ATOM
      1  N        -13.0520   47.0570   12.5570 N.3   125  GLY125     -0.1210
      2  CA       -13.4970   48.4580   12.3850 C.3   125  GLY125      0.1956
      3  C        -12.9220   49.0690   11.1190 C.2   125  GLY125      0.2612
      4  O        -11.9290   48.5800   10.5740 O.2   125  GLY125     -0.2717
      5  N        -13.5550   50.1500   10.6530 N.am  126  ALA126     -0.1965
      6  CA       -13.0340   50.9720    9.5570 C.3   126  ALA126      0.1728
      7  C        -11.6940   51.6080    9.9360 C.2   126  ALA126      0.2616
      8  O        -10.8770   51.8460    9.0710 O.2   126  ALA126     -0.2715
      9  CB       -14.0340   52.0850    9.1430 C.3   126  ALA126      0.0334
     10  N        -11.5160   51.9030   11.2140 N.am  127  SER127     -0.1950
     11  CA       -10.2660   52.4540   11.7760 C.3   127  SER127      0.1924
     12  C         -9.0370   51.6300   11.4040 C.2   127  SER127      0.2314
     13  O         -8.0380   52.1710   11.0370 O.2   127  SER127     -0.2863
     14  CB       -10.3590   52.4590   13.3050 C.3   127  SER127      0.2116
     15  OG       -11.1820   53.5000   13.7430 O.3   127  SER127     -0.2180
     16  N         -8.4420   51.8650    7.5380 N.3   130  ILE130     -0.1245
     17  CA        -7.8670   53.1390    7.2170 C.3   130  ILE130      0.1561
     18  C         -6.3740   53.1380    7.6330 C.2   130  ILE130      0.2260
     19  O         -5.5110   53.5830    6.8730 O.2   130  ILE130     -0.2867
     20  CB        -8.6360   54.2830    7.9080 C.3   130  ILE130      0.0252
     21  CG1      -10.0130   54.5190    7.2650 C.3   130  ILE130      0.0019
     22  CG2       -7.8360   55.5760    7.8930 C.3   130  ILE130      0.0019
     23  CD1      -11.0740   55.0140    8.2570 C.3   130  ILE130      0.0001
     24  N        -12.0870   64.5820   10.8760 N.3   155  TYR155     -0.1241
     25  CA       -12.2840   63.4290   11.7330 C.3   155  TYR155      0.1605
     26  C        -10.8550   63.1270   12.2290 C.2   155  TYR155      0.2264
     27  O         -9.9760   62.7520   11.4500 O.2   155  TYR155     -0.2867
     28  CB       -12.9490   62.2490   11.0100 C.3   155  TYR155      0.0534
     29  CG       -13.1040   61.0520   11.9410 C.ar  155  TYR155     -0.0201
     30  CD1      -13.9480   61.1020   13.0430 C.ar  155  TYR155     -0.0009
     31  CD2      -12.3480   59.8990   11.7580 C.ar  155  TYR155     -0.0009
     32  CE1      -14.0450   60.0660   13.8790 C.ar  155  TYR155      0.0417
     33  CE2      -12.4650   58.8290   12.6170 C.ar  155  TYR155      0.0417
     34  CZ       -13.2930   58.9250   13.6620 C.ar  155  TYR155      0.1957
     35  OH       -13.3770   57.8700   14.5420 O.3   155  TYR155     -0.2866
     36  N         -9.0500   60.9720   13.6490 N.3   157  LEU157     -0.1245
     37  CA        -8.2640   59.7810   13.3870 C.3   157  LEU157      0.1561
     38  C         -7.1390   60.0200   12.3390 C.2   157  LEU157      0.2260
     39  O         -6.0320   59.5200   12.4780 O.2   157  LEU157     -0.2867
     40  CB        -9.1600   58.6300   12.9090 C.3   157  LEU157      0.0270
     41  CG        -8.4060   57.3430   12.5000 C.3   157  LEU157      0.0019
     42  CD1       -7.7710   56.7370   13.7410 C.3   157  LEU157      0.0001
     43  CD2       -9.2610   56.3210   11.8200 C.3   157  LEU157      0.0001
     44  N        -14.5720   61.8950    3.3640 N.3   206  ILE206     -0.1245
     45  CA       -15.4910   61.3710    4.3580 C.3   206  ILE206      0.1561
     46  C        -16.8850   61.7360    3.8850 C.2   206  ILE206      0.2260
     47  O        -17.2220   62.9100    3.8570 O.2   206  ILE206     -0.2867
     48  CB       -15.2440   61.9380    5.7420 C.3   206  ILE206      0.0252
     49  CG1      -13.7310   61.8160    6.1020 C.3   206  ILE206      0.0019
     50  CG2      -16.0560   61.1870    6.7780 C.3   206  ILE206      0.0019
     51  CD1      -13.4460   62.3960    7.5080 C.3   206  ILE206      0.0001
     52  N        -18.2710   63.8220    8.9430 N.3   210  ASN210     -0.1240
     53  CA       -18.1550   63.8510   10.4090 C.3   210  ASN210      0.1653
     54  C        -16.9840   64.7760   10.7450 C.2   210  ASN210      0.2266
     55  O        -15.8800   64.4660   10.3470 O.2   210  ASN210     -0.2867
     56  CB       -17.8700   62.4440   10.9210 C.3   210  ASN210      0.1155
     57  CG       -17.6860   62.3850   12.4350 C.2   210  ASN210      0.2627
     58  OD1      -17.7490   63.4060   13.1040 O.2   210  ASN210     -0.2716
     59  ND2      -17.4420   61.1680   12.9750 N.am  210  ASN210     -0.0877
     60  N        -14.2690   57.1140    2.9680 N.3   238  ASP238     -0.1239
     61  CA       -14.6890   56.7580    4.2960 C.3   238  ASP238      0.1674
     62  C        -16.2000   56.9650    4.3770 C.2   238  ASP238      0.2266
     63  O        -16.6920   58.1060    4.5630 O.2   238  ASP238     -0.2867
     64  CB       -13.9280   57.6140    5.2760 C.3   238  ASP238      0.1410
     65  CG       -14.3090   57.3650    6.7150 C.2   238  ASP238      0.3668
     66  OD1      -15.2870   56.6340    6.9560 O.co2 238  ASP238     -0.2456
     67  OD2      -13.6080   57.8990    7.6040 O.co2 238  ASP238     -0.2456
     68  N        -18.5700   55.1930    6.3660 N.3   240  VAL240     -0.1231
     69  CA       -19.1540   54.4820    7.5140 C.3   240  VAL240      0.1692
     70  C        -20.5840   54.9370    7.8430 C.2   240  VAL240      0.2592
     71  O        -21.3590   54.1530    8.3510 O.2   240  VAL240     -0.2718
     72  CB       -18.2150   54.5490    8.7920 C.3   240  VAL240      0.0266
     73  CG1      -16.8370   53.8410    8.4770 C.3   240  VAL240      0.0020
     74  CG2      -18.0040   56.0120    9.2650 C.3   240  VAL240      0.0020
     75  N        -20.9330   56.1860    7.5100 N.am  241  TYR241     -0.1976
     76  CA       -22.2830   56.6920    7.7490 C.3   241  TYR241      0.1639
     77  C        -23.2230   56.5790    6.5660 C.2   241  TYR241      0.2290
     78  O        -24.2350   57.2140    6.5510 O.2   241  TYR241     -0.2864
     79  CB       -22.2150   58.1470    8.2090 C.3   241  TYR241      0.0560
     80  CG       -21.9040   58.2710    9.6720 C.ar  241  TYR241     -0.0198
     81  CD1      -22.8460   57.9000   10.6180 C.ar  241  TYR241     -0.0009
     82  CD2      -20.6610   58.7010   10.1150 C.ar  241  TYR241     -0.0009
     83  CE1      -22.5950   58.0430   11.9490 C.ar  241  TYR241      0.0417
     84  CE2      -20.4040   58.8180   11.4680 C.ar  241  TYR241      0.0417
     85  CZ       -21.3940   58.4940   12.3540 C.ar  241  TYR241      0.1957
     86  OH       -21.1860   58.5510   13.7130 O.3   241  TYR241     -0.2866
     87  N        -18.1990   49.9720    8.4220 N.3   277  SER277     -0.1217
     88  CA       -18.0430   49.6050    9.8240 C.3   277  SER277      0.1889
     89  C        -19.3730   49.0010   10.3210 C.2   277  SER277      0.2288
     90  O        -20.3640   49.1910    9.7030 O.2   277  SER277     -0.2866
     91  CB       -17.7620   50.8680   10.6060 C.3   277  SER277      0.2089
     92  OG       -18.0390   50.7270   11.9820 O.3   277  SER277     -0.2183
     93  N        -20.2010   49.7980   13.5210 N.3   279  SER279     -0.1202
     94  CA       -20.4170   50.6240   14.7020 C.3   279  SER279      0.2020
     95  C        -21.2520   51.8650   14.4620 C.2   279  SER279      0.2618
     96  O        -21.6580   52.5050   15.4070 O.2   279  SER279     -0.2717
     97  CB       -19.0740   51.1000   15.2520 C.3   279  SER279      0.2103
     98  OG       -18.4960   50.0580   15.9970 O.3   279  SER279     -0.2182
     99  N        -21.4600   52.2400   13.2120 N.am  280  LYS280     -0.1979
    100  CA       -22.0600   53.5410   12.9050 C.3   280  LYS280      0.1596
    101  C        -23.4300   53.3630   12.3120 C.2   280  LYS280      0.2287
    102  O        -23.7390   52.3170   11.7440 O.2   280  LYS280     -0.2864
    103  CB       -21.1410   54.3440   11.9720 C.3   280  LYS280      0.0298
    104  CG       -19.7530   54.6520   12.5930 C.3   280  LYS280      0.0038
    105  CD       -19.9040   55.4350   13.9190 C.3   280  LYS280      0.0206
    106  CE       -18.5530   55.6920   14.6010 C.3   280  LYS280      0.1093
    107  NZ       -17.5520   56.0990   13.5760 N.3   280  LYS280     -0.1314
    108  N        -17.1040   44.2290   16.9920 N.3   289  ARG289     -0.1231
    109  CA       -16.5010   45.2910   16.1710 C.3   289  ARG289      0.1694
    110  C        -15.9610   44.7500   14.8600 C.2   289  ARG289      0.2592
    111  O        -14.9820   43.9920   14.8280 O.2   289  ARG289     -0.2718
    112  CB       -15.3640   45.9340   16.9390 C.3   289  ARG289      0.0321
    113  CG       -14.9380   47.2330   16.4290 C.3   289  ARG289      0.0489
    114  CD       -14.0370   47.9050   17.4470 C.3   289  ARG289      0.2205
    115  NE       -13.0380   48.7120   16.7800 N.pl3 289  ARG289     -0.0865
    116  CZ       -13.2990   49.8690   16.1990 C.cat 289  ARG289      0.5346
    117  NH1      -14.5390   50.3880   16.2390 N.pl3 289  ARG289      0.1354
    118  NH2      -12.3130   50.5180   15.5930 N.pl3 289  ARG289      0.1354
    119  N        -16.6210   45.1250   13.7730 N.am  290  GLY290     -0.1957
    120  CA       -16.2880   44.6080   12.4700 C.3   290  GLY290      0.1869
    121  C        -16.2110   45.7120   11.4330 C.2   290  GLY290      0.2309
    122  O        -16.5150   46.8570   11.6780 O.2   290  GLY290     -0.2863
@<TRIPOS>BOND
     1    60    61    1
     2    44    45    1
     3    47    46    2
     4    46    45    1
     5    61    62    1
     6    61    64    1
     7    45    48    1
     8    62    63    2
     9    64    65    1
    10    48    49    1
    11    48    50    1
    12    49    51    1
    13    68    69    1
    14    78    77    2
    15    77    76    1
    16    65    66   ar
    17    65    67   ar
    18    19    18    2
    19    17    16    1
    20    17    18    1
    21    17    20    1
    22    21    20    1
    23    21    23    1
    24    75    76    1
    25    75    70   am
    26    69    70    1
    27    69    72    1
    28    76    79    1
    29    70    71    2
    30    22    20    1
    31    79    80    1
    32    87    88    1
    33    73    72    1
    34    72    74    1
    35    52    53    1
    36     8     7    2
    37     9     6    1
    38     6     7    1
    39     6     5    1
    40    80    82   ar
    41    80    81   ar
    42    90    89    2
    43    88    89    1
    44    88    91    1
    45     7    10   am
    46    82    84   ar
    47    55    54    2
    48    53    54    1
    49    53    56    1
    50     4     3    2
    51    91    92    1
    52    81    83   ar
    53     5     3   am
    54    24    25    1
    55    56    57    1
    56    28    25    1
    57    28    29    1
    58    13    12    2
    59     3     2    1
    60    10    11    1
    61    12    11    1
    62   121   122    2
    63   121   120    1
    64    27    26    2
    65    84    85   ar
    66    25    26    1
    67   102   101    2
    68    31    29   ar
    69    31    33   ar
    70    11    14    1
    71    43    41    1
    72    29    30   ar
    73    83    85   ar
    74   103   104    1
    75   103   100    1
    76   101   100    1
    77    38    39    2
    78    38    37    1
    79    85    86    1
    80     2     1    1
    81    57    59   am
    82    57    58    2
    83   120   119    1
    84    41    40    1
    85    41    42    1
    86   104   105    1
    87    33    34   ar
    88   100    99    1
    89    40    37    1
    90    30    32   ar
    91    99    95   am
    92    14    15    1
    93    37    36    1
    94    93    94    1
    95   107   106    1
    96    34    32   ar
    97    34    35    1
    98   119   110   am
    99   105   106    1
   100    95    94    1
   101    95    96    2
   102    94    97    1
   103   111   110    2
   104   110   109    1
   105    97    98    1
   106   118   116    1
   107   109   112    1
   108   109   108    1
   109   116   117    1
   110   116   115    2
   111   113   112    1
   112   113   114    1
   113   115   114    1
