@<TRIPOS>MOLECULE
tmp/3ihkB00.pdb
 105 100 0 0 0
SMALL
GASTEIGER

@<TRIPOS>ATOM
      1  N          4.6700   21.8280   51.3960 N.3    25  ASP25      -0.1239
      2  CA         5.6380   21.7660   52.4890 C.3    25  ASP25       0.1674
      3  C          5.2710   22.7340   53.6110 C.2    25  ASP25       0.2266
      4  O          4.2180   22.6040   54.2260 O.2    25  ASP25      -0.2867
      5  CB         7.0500   22.0780   51.9660 C.3    25  ASP25       0.1410
      6  CG         8.1110   21.1020   52.4870 C.2    25  ASP25       0.3668
      7  OD1        8.4400   20.1290   51.7740 O.co2  25  ASP25      -0.2456
      8  OD2        8.6150   21.3090   53.6120 O.co2  25  ASP25      -0.2456
      9  N          8.0410   17.1840   50.1540 N.3    44  ASP44      -0.1239
     10  CA         8.9090   16.2040   50.7980 C.3    44  ASP44       0.1674
     11  C          9.0670   16.5350   52.2860 C.2    44  ASP44       0.2266
     12  O          9.7640   15.8380   53.0270 O.2    44  ASP44      -0.2867
     13  CB        10.2620   16.1640   50.0880 C.3    44  ASP44       0.1410
     14  CG        11.0230   17.4450   50.2280 C.2    44  ASP44       0.3668
     15  OD1       10.4120   18.5310   50.1180 O.co2  44  ASP44      -0.2456
     16  OD2       12.2430   17.3650   50.4370 O.co2  44  ASP44      -0.2456
     17  N         10.7260   18.6660   54.1610 N.3    46  ASP46      -0.1225
     18  CA        12.0440   18.7720   54.7690 C.3    46  ASP46       0.1805
     19  C         12.1860   20.1570   55.3680 C.2    46  ASP46       0.2598
     20  O         13.2030   20.4640   55.9770 O.2    46  ASP46      -0.2718
     21  CB        13.1400   18.5730   53.7280 C.3    46  ASP46       0.1424
     22  CG        13.0190   19.5390   52.5560 C.2    46  ASP46       0.3668
     23  OD1       11.9780   20.2280   52.4340 O.co2  46  ASP46      -0.2456
     24  OD2       13.9720   19.5980   51.7440 O.co2  46  ASP46      -0.2456
     25  N         11.1540   20.9770   55.1730 N.am   47  SER47      -0.1952
     26  CA        11.1090   22.3510   55.6560 C.3    47  SER47       0.1924
     27  C         10.1710   22.4980   56.8260 C.2    47  SER47       0.2314
     28  O          9.9010   23.6210   57.2550 O.2    47  SER47      -0.2863
     29  CB        10.6320   23.2810   54.5550 C.3    47  SER47       0.2116
     30  OG        11.3470   23.0090   53.3710 O.3    47  SER47      -0.2180
     31  N         13.2170   13.2070   48.9850 N.3    67  ALA67      -0.1231
     32  CA        13.9730   14.3470   49.5030 C.3    67  ALA67       0.1694
     33  C         14.7790   14.9480   48.3750 C.2    67  ALA67       0.2592
     34  O         15.0460   16.1560   48.3530 O.2    67  ALA67      -0.2718
     35  CB        14.9020   13.9080   50.6360 C.3    67  ALA67       0.0304
     36  N         15.1580   14.0850   47.4360 N.am   68  GLU68      -0.1966
     37  CA        15.9380   14.5010   46.2830 C.3    68  GLU68       0.1733
     38  C         15.3130   14.0560   44.9680 C.2    68  GLU68       0.2616
     39  O         15.2550   12.8700   44.6550 O.2    68  GLU68      -0.2715
     40  CB        17.3720   13.9800   46.4060 C.3    68  GLU68       0.0429
     41  CG        17.5120   12.4930   46.5930 C.3    68  GLU68       0.1163
     42  CD        18.9180   12.1100   46.9970 C.2    68  GLU68       0.3649
     43  OE1       19.2590   10.9140   46.8600 O.co2  68  GLU68      -0.2457
     44  OE2       19.6700   13.0050   47.4600 O.co2  68  GLU68      -0.2457
     45  N         14.8530   15.0340   44.2000 N.am   69  LYS69      -0.1963
     46  CA        14.2060   14.7790   42.9260 C.3    69  LYS69       0.1728
     47  C         14.7040   15.7720   41.8890 C.2    69  LYS69       0.2616
     48  O         15.8350   16.2260   41.9700 O.2    69  LYS69      -0.2715
     49  CB        12.6960   14.9030   43.1050 C.3    69  LYS69       0.0311
     50  CG        12.2700   16.1450   43.8830 C.3    69  LYS69       0.0038
     51  CD        10.8140   16.0550   44.3490 C.3    69  LYS69       0.0206
     52  CE        10.3990   17.2920   45.1730 C.3    69  LYS69       0.1093
     53  NZ        11.3110   17.5920   46.3290 N.3    69  LYS69      -0.1314
     54  N         13.8640   16.1120   40.9220 N.am   70  ASN70      -0.1958
     55  CA        14.2520   17.0530   39.8850 C.3    70  ASN70       0.1819
     56  C         13.4280   18.3240   39.9210 C.2    70  ASN70       0.2621
     57  O         13.9190   19.4080   39.6030 O.2    70  ASN70      -0.2715
     58  CB        14.1090   16.3920   38.5330 C.3    70  ASN70       0.1195
     59  CG        15.3820   15.7610   38.0710 C.2    70  ASN70       0.2630
     60  OD1       16.1970   15.2910   38.8700 O.2    70  ASN70      -0.2716
     61  ND2       15.5670   15.7380   36.7610 N.am   70  ASN70      -0.0877
     62  N         12.1670   18.1840   40.3080 N.am   71  ASP71      -0.1957
     63  CA        11.2620   19.3230   40.4000 C.3    71  ASP71       0.1840
     64  C         11.1460   19.8830   41.8260 C.2    71  ASP71       0.2623
     65  O         11.4460   19.2070   42.8040 O.2    71  ASP71      -0.2715
     66  CB         9.8630   18.9260   39.9170 C.3    71  ASP71       0.1450
     67  CG         9.8420   18.4680   38.4740 C.2    71  ASP71       0.3671
     68  OD1        8.7580   18.0490   38.0100 O.co2  71  ASP71      -0.2456
     69  OD2       10.8950   18.5290   37.8060 O.co2  71  ASP71      -0.2456
     70  N         10.7100   21.1320   41.9260 N.am   72  THR72      -0.1937
     71  CA        10.5180   21.7780   43.2130 C.3    72  THR72       0.2028
     72  C          9.1710   21.2630   43.7140 C.2    72  THR72       0.2642
     73  O          8.3600   20.7870   42.9130 O.2    72  THR72      -0.2714
     74  CB        10.4430   23.2990   43.0440 C.3    72  THR72       0.1808
     75  OG1       11.6700   23.7680   42.4870 O.3    72  THR72      -0.2208
     76  CG2       10.2070   23.9800   44.3680 C.3    72  THR72       0.0379
     77  N          8.9350   21.3460   45.0260 N.am   73  ASP73      -0.1971
     78  CA         7.6750   20.8870   45.5880 C.3    73  ASP73       0.1709
     79  C          6.5490   21.6360   44.9170 C.2    73  ASP73       0.2293
     80  O          5.4990   21.0660   44.6650 O.2    73  ASP73      -0.2864
     81  CB         7.6200   21.1010   47.1030 C.3    73  ASP73       0.1436
     82  CG         8.4410   20.0850   47.8540 C.2    73  ASP73       0.3671
     83  OD1        8.5760   18.9570   47.3240 O.co2  73  ASP73      -0.2456
     84  OD2        8.9380   20.4020   48.9640 O.co2  73  ASP73      -0.2456
     85  N         15.5690   33.1000   49.5400 N.3    99  ARG99      -0.1245
     86  CA        16.4170   32.4560   48.5590 C.3    99  ARG99       0.1563
     87  C         16.0320   32.8830   47.1440 C.2    99  ARG99       0.2260
     88  O         14.8730   32.8070   46.7660 O.2    99  ARG99      -0.2867
     89  CB        16.2900   30.9490   48.6980 C.3    99  ARG99       0.0307
     90  CG        16.9010   30.4080   49.9680 C.3    99  ARG99       0.0489
     91  CD        16.7790   28.8860   50.0440 C.3    99  ARG99       0.2205
     92  NE        17.3140   28.2280   48.8530 N.pl3  99  ARG99      -0.0865
     93  CZ        17.3740   26.9090   48.6780 C.cat  99  ARG99       0.5346
     94  NH1       16.9420   26.0810   49.6190 N.pl3  99  ARG99       0.1354
     95  NH2       17.8440   26.4130   47.5430 N.pl3  99  ARG99       0.1354
     96  N         15.0560   30.0850   44.3340 N.3   102  HIS102     -0.1241
     97  CA        13.7090   29.5810   44.4440 C.3   102  HIS102      0.1621
     98  C         12.7100   30.5110   43.7620 C.2   102  HIS102      0.2264
     99  O         11.7190   30.0460   43.2220 O.2   102  HIS102     -0.2867
    100  CB        13.3450   29.4000   45.9080 C.3   102  HIS102      0.0745
    101  CG        13.6470   28.0340   46.4290 C.ar  102  HIS102      0.0817
    102  ND1       13.9770   27.7940   47.7460 N.ar  102  HIS102     -0.2268
    103  CD2       13.6590   26.8280   45.8120 C.ar  102  HIS102      0.1154
    104  CE1       14.1800   26.5000   47.9160 C.ar  102  HIS102      0.1986
    105  NE2       13.9930   25.8910   46.7580 N.ar  102  HIS102     -0.2212
@<TRIPOS>BOND
     1    61    59   am
     2    69    67   ar
     3    68    67   ar
     4    59    58    1
     5    59    60    2
     6    67    66    1
     7    58    55    1
     8    57    56    2
     9    55    56    1
    10    55    54    1
    11    66    63    1
    12    56    62   am
    13    62    63    1
    14    63    64    1
    15    54    47   am
    16    64    70   am
    17    64    65    2
    18    47    48    2
    19    47    46    1
    20    70    71    1
    21    75    74    1
    22    73    72    2
    23    46    49    1
    24    46    45    1
    25    74    71    1
    26    74    76    1
    27    49    50    1
    28    71    72    1
    29    99    98    2
    30    72    77   am
    31    98    97    1
    32    50    51    1
    33    45    38   am
    34    96    97    1
    35    51    52    1
    36    97   100    1
    37    39    38    2
    38    80    79    2
    39    79    78    1
    40    38    37    1
    41    77    78    1
    42    52    53    1
    43    78    81    1
    44   103   101   ar
    45   103   105   ar
    46   100   101    1
    47    37    40    1
    48    37    36    1
    49    40    41    1
    50   101   102   ar
    51    41    42    1
    52   105   104   ar
    53    88    87    2
    54    43    42   ar
    55    42    44   ar
    56    81    82    1
    57    87    86    1
    58    83    82   ar
    59    36    33   am
    60    95    93    1
    61   102   104   ar
    62    82    84   ar
    63    34    33    2
    64    33    32    1
    65    86    89    1
    66    86    85    1
    67    93    92    2
    68    93    94    1
    69    89    90    1
    70    92    91    1
    71    31    32    1
    72    32    35    1
    73    90    91    1
    74    13    14    1
    75    13    10    1
    76    15    14   ar
    77     9    10    1
    78    14    16   ar
    79    10    11    1
    80     1     2    1
    81    24    22   ar
    82     7     6   ar
    83     5     6    1
    84     5     2    1
    85    11    12    2
    86    23    22   ar
    87     6     8   ar
    88     2     3    1
    89    22    21    1
    90    30    29    1
    91     3     4    2
    92    21    18    1
    93    17    18    1
    94    29    26    1
    95    18    19    1
    96    25    19   am
    97    25    26    1
    98    19    20    2
    99    26    27    1
   100    27    28    2
