@<TRIPOS>MOLECULE
tmp/3ihkB01.pdb
 109 106 0 0 0
SMALL
GASTEIGER

@<TRIPOS>ATOM
      1  N          2.9490   49.5430   37.7540 N.3   146  TYR146     -0.1241
      2  CA         4.0010   49.3330   36.7870 C.3   146  TYR146      0.1605
      3  C          3.8800   47.9620   36.1580 C.2   146  TYR146      0.2264
      4  O          3.3520   47.0440   36.7800 O.2   146  TYR146     -0.2867
      5  CB         5.3410   49.4450   37.4790 C.3   146  TYR146      0.0534
      6  CG         5.6150   50.8020   38.0600 C.ar  146  TYR146     -0.0201
      7  CD1        5.9010   51.8830   37.2290 C.ar  146  TYR146     -0.0009
      8  CD2        5.6230   51.0030   39.4400 C.ar  146  TYR146     -0.0009
      9  CE1        6.1950   53.1350   37.7520 C.ar  146  TYR146      0.0417
     10  CE2        5.9140   52.2520   39.9780 C.ar  146  TYR146      0.0417
     11  CZ         6.1980   53.3150   39.1280 C.ar  146  TYR146      0.1957
     12  OH         6.4570   54.5690   39.6460 O.3   146  TYR146     -0.2866
     13  N          6.8220   45.6060   21.9560 N.3   158  ILE158     -0.1245
     14  CA         5.7630   46.1990   22.7610 C.3   158  ILE158      0.1561
     15  C          5.1450   47.3880   22.0640 C.2   158  ILE158      0.2260
     16  O          5.8590   48.1990   21.4750 O.2   158  ILE158     -0.2867
     17  CB         6.3160   46.6550   24.1120 C.3   158  ILE158      0.0252
     18  CG1        7.0030   45.4800   24.7990 C.3   158  ILE158      0.0019
     19  CG2        5.2060   47.2070   24.9680 C.3   158  ILE158      0.0019
     20  CD1        7.7620   45.8650   26.0160 C.3   158  ILE158      0.0001
     21  N          5.9850   53.2680   27.3070 N.3   163  TYR163     -0.1227
     22  CA         7.2630   53.0830   26.6070 C.3   163  TYR163      0.1736
     23  C          7.0970   51.9260   25.5930 C.2   163  TYR163      0.2595
     24  O          6.6940   50.8250   25.9660 O.2   163  TYR163     -0.2718
     25  CB         8.3560   52.7240   27.6120 C.3   163  TYR163      0.0548
     26  CG         8.6710   53.7980   28.6160 C.ar  163  TYR163     -0.0200
     27  CD1        9.5930   54.8010   28.3260 C.ar  163  TYR163     -0.0009
     28  CD2        8.0740   53.7940   29.8650 C.ar  163  TYR163     -0.0009
     29  CE1        9.9170   55.7690   29.2600 C.ar  163  TYR163      0.0417
     30  CE2        8.3850   54.7510   30.8030 C.ar  163  TYR163      0.0417
     31  CZ         9.3040   55.7350   30.4990 C.ar  163  TYR163      0.1957
     32  OH         9.5920   56.6840   31.4440 O.3   163  TYR163     -0.2866
     33  N          7.3980   52.1720   24.3200 N.am  164  GLU164     -0.1965
     34  CA         7.2510   51.1410   23.2900 C.3   164  GLU164      0.1733
     35  C          8.6040   50.5730   22.8880 C.2   164  GLU164      0.2616
     36  O          9.6360   51.2110   23.0590 O.2   164  GLU164     -0.2715
     37  CB         6.5480   51.7090   22.0530 C.3   164  GLU164      0.0429
     38  CG         5.2300   52.4070   22.3620 C.3   164  GLU164      0.1163
     39  CD         4.3430   52.6200   21.1280 C.2   164  GLU164      0.3649
     40  OE1        4.8660   53.0200   20.0600 O.co2 164  GLU164     -0.2457
     41  OE2        3.1120   52.3990   21.2320 O.co2 164  GLU164     -0.2457
     42  N          8.5980   49.3650   22.3510 N.am  165  LEU165     -0.1977
     43  CA         9.8320   48.7260   21.9390 C.3   165  LEU165      0.1596
     44  C          9.5850   48.2210   20.5490 C.2   165  LEU165      0.2287
     45  O          8.7120   47.3750   20.3620 O.2   165  LEU165     -0.2864
     46  CB        10.1310   47.5430   22.8420 C.3   165  LEU165      0.0297
     47  CG        11.3770   46.7180   22.5570 C.3   165  LEU165      0.0022
     48  CD1       12.6040   47.5700   22.7790 C.3   165  LEU165      0.0001
     49  CD2       11.4060   45.5170   23.4870 C.3   165  LEU165      0.0001
     50  N         16.7240   48.0380   21.8120 N.3   171  PHE171     -0.1241
     51  CA        17.9690   48.0040   22.5780 C.3   171  PHE171      0.1605
     52  C         17.9200   46.7810   23.4800 C.2   171  PHE171      0.2264
     53  O         16.9240   46.5660   24.1620 O.2   171  PHE171     -0.2867
     54  CB        18.1260   49.2610   23.4260 C.3   171  PHE171      0.0534
     55  CG        16.9510   49.5540   24.3080 C.ar  171  PHE171     -0.0203
     56  CD1       15.8210   50.1780   23.8000 C.ar  171  PHE171     -0.0042
     57  CD2       16.9870   49.2370   25.6630 C.ar  171  PHE171     -0.0042
     58  CE1       14.7360   50.4890   24.6370 C.ar  171  PHE171     -0.0003
     59  CE2       15.9100   49.5420   26.5030 C.ar  171  PHE171     -0.0003
     60  CZ        14.7840   50.1710   25.9900 C.ar  171  PHE171     -0.0000
     61  N         18.2910   43.9770   26.4190 N.3   173  LYS173     -0.1245
     62  CA        18.0790   43.9520   27.8660 C.3   173  LYS173      0.1561
     63  C         17.2130   42.7460   28.1680 C.2   173  LYS173      0.2260
     64  O         16.1800   42.5510   27.5360 O.2   173  LYS173     -0.2867
     65  CB        17.3560   45.2070   28.3600 C.3   173  LYS173      0.0271
     66  CG        18.2720   46.3390   28.7630 C.3   173  LYS173      0.0035
     67  CD        17.7260   47.1100   29.9500 C.3   173  LYS173      0.0206
     68  CE        18.6930   48.2070   30.3750 C.3   173  LYS173      0.1093
     69  NZ        20.1140   47.7460   30.4880 N.3   173  LYS173     -0.1314
     70  N         12.5370   44.4960   30.4530 N.3   176  TYR176     -0.1227
     71  CA        12.2510   45.9100   30.2550 C.3   176  TYR176      0.1736
     72  C         11.2400   46.2960   31.3060 C.2   176  TYR176      0.2596
     73  O         10.0400   46.2970   31.0450 O.2   176  TYR176     -0.2718
     74  CB        11.6830   46.1200   28.8500 C.3   176  TYR176      0.0548
     75  CG        12.6180   45.6390   27.7540 C.ar  176  TYR176     -0.0200
     76  CD1       13.6930   46.4220   27.3200 C.ar  176  TYR176     -0.0009
     77  CD2       12.4630   44.3750   27.1910 C.ar  176  TYR176     -0.0009
     78  CE1       14.5870   45.9510   26.3530 C.ar  176  TYR176      0.0417
     79  CE2       13.3480   43.8990   26.2320 C.ar  176  TYR176      0.0417
     80  CZ        14.4070   44.6890   25.8150 C.ar  176  TYR176      0.1957
     81  OH        15.2690   44.2140   24.8470 O.3   176  TYR176     -0.2866
     82  N         11.7340   46.6330   32.4960 N.am  177  SER177     -0.1938
     83  CA        10.8620   46.9710   33.6220 C.3   177  SER177      0.2055
     84  C         10.4100   48.4160   33.7330 C.2   177  SER177      0.2644
     85  O         10.8610   49.2780   32.9950 O.2   177  SER177     -0.2714
     86  CB        11.5310   46.5660   34.9340 C.3   177  SER177      0.2130
     87  OG        12.7590   47.2340   35.0850 O.3   177  SER177     -0.2179
     88  N          9.4850   48.6550   34.6570 N.am  178  SER178     -0.1935
     89  CA         8.9690   49.9920   34.9120 C.3   178  SER178      0.2055
     90  C          8.2160   50.6630   33.7410 C.2   178  SER178      0.2643
     91  O          8.4990   51.8090   33.3820 O.2   178  SER178     -0.2714
     92  CB        10.1310   50.8820   35.3790 C.3   178  SER178      0.2130
     93  OG        10.7380   50.3630   36.5580 O.3   178  SER178     -0.2179
     94  N          7.2480   49.9630   33.1590 N.am  179  ASN179     -0.1971
     95  CA         6.4850   50.5270   32.0540 C.3   179  ASN179      0.1688
     96  C          5.1230   50.8840   32.6100 C.2   179  ASN179      0.2292
     97  O          4.7860   50.4340   33.6970 O.2   179  ASN179     -0.2864
     98  CB         6.3350   49.5040   30.9420 C.3   179  ASN179      0.1181
     99  CG         6.0370   50.1450   29.6180 C.2   179  ASN179      0.2629
    100  OD1        5.2150   51.0550   29.5270 O.2   179  ASN179     -0.2716
    101  ND2        6.6990   49.6690   28.5700 N.am  179  ASN179     -0.0877
    102  N          4.0840   50.1770   44.3210 N.3   202  ASP202     -0.1239
    103  CA         5.1380   50.6050   45.2370 C.3   202  ASP202      0.1674
    104  C          4.7990   50.7020   46.7110 C.2   202  ASP202      0.2266
    105  O          5.6220   51.1940   47.4900 O.2   202  ASP202     -0.2867
    106  CB         5.7280   51.9330   44.7810 C.3   202  ASP202      0.1410
    107  CG         6.9850   51.7420   44.0020 C.2   202  ASP202      0.3668
    108  OD1        7.9300   51.1510   44.5780 O.co2 202  ASP202     -0.2456
    109  OD2        7.0310   52.1590   42.8230 O.co2 202  ASP202     -0.2456
@<TRIPOS>BOND
     1    40    39   ar
     2    45    44    2
     3    44    43    1
     4    39    41   ar
     5    39    38    1
     6    16    15    2
     7    50    51    1
     8    43    42    1
     9    43    46    1
    10    13    14    1
    11    37    38    1
    12    37    34    1
    13    15    14    1
    14    42    35   am
    15    47    48    1
    16    47    46    1
    17    47    49    1
    18    51    54    1
    19    51    52    1
    20    14    17    1
    21    35    36    2
    22    35    34    1
    23    34    33    1
    24    54    55    1
    25    52    53    2
    26    56    55   ar
    27    56    58   ar
    28    17    18    1
    29    17    19    1
    30    55    57   ar
    31    33    23   am
    32    58    60   ar
    33    18    20    1
    34    81    80    1
    35    23    24    2
    36    23    22    1
    37    57    59   ar
    38    80    79   ar
    39    80    78   ar
    40    60    59   ar
    41    79    77   ar
    42    78    76   ar
    43    61    62    1
    44    22    21    1
    45    22    25    1
    46    77    75   ar
    47    76    75   ar
    48    64    63    2
    49    25    26    1
    50    75    74    1
    51    62    63    1
    52    62    65    1
    53    27    26   ar
    54    27    29   ar
    55    65    66    1
    56   101    99   am
    57    26    28   ar
    58    66    67    1
    59    74    71    1
    60    29    31   ar
    61   100    99    2
    62    99    98    1
    63    28    30   ar
    64    67    68    1
    65    71    70    1
    66    71    72    1
    67    68    69    1
    68    31    30   ar
    69    31    32    1
    70    98    95    1
    71    73    72    2
    72    72    82   am
    73    95    96    1
    74    95    94    1
    75    82    83    1
    76    96    97    2
    77    85    84    2
    78    94    90   am
    79    91    90    2
    80    83    84    1
    81    83    86    1
    82    84    88   am
    83    90    89    1
    84    88    89    1
    85    89    92    1
    86    86    87    1
    87    92    93    1
    88     3     4    2
    89     3     2    1
    90     2     5    1
    91     2     1    1
    92     7     9   ar
    93     7     6   ar
    94     5     6    1
    95     9    11   ar
    96     6     8   ar
    97    11    12    1
    98    11    10   ar
    99     8    10   ar
   100   109   107   ar
   101   107   108   ar
   102   107   106    1
   103   102   103    1
   104   106   103    1
   105   103   104    1
   106   104   105    2
