@<TRIPOS>MOLECULE
tmp/3ihlA00.pdb
 110 105 0 0 0
SMALL
GASTEIGER

@<TRIPOS>ATOM
      1  N         65.1650   44.0370   37.9880 N.3    12  SER12      -0.1202
      2  CA        66.4300   44.2630   38.6740 C.3    12  SER12       0.2020
      3  C         66.1630   44.3770   40.1780 C.2    12  SER12       0.2619
      4  O         65.0100   44.4740   40.6070 O.2    12  SER12      -0.2717
      5  CB        67.0730   45.5410   38.1770 C.3    12  SER12       0.2103
      6  OG        66.1360   46.5920   38.2880 O.3    12  SER12      -0.2182
      7  N         67.2310   44.3480   40.9690 N.am   13  GLY13      -0.1942
      8  CA        67.1250   44.3830   42.4150 C.3    13  GLY13       0.2014
      9  C         66.3810   43.1880   42.9580 C.2    13  GLY13       0.2639
     10  O         65.7070   43.2940   43.9740 O.2    13  GLY13      -0.2714
     11  N         66.5200   42.0420   42.2890 N.am   14  ILE14      -0.1963
     12  CA        65.7630   40.8430   42.6290 C.3    14  ILE14       0.1727
     13  C         66.5210   39.9730   43.6350 C.2    14  ILE14       0.2617
     14  O         65.9330   39.0740   44.2190 O.2    14  ILE14      -0.2715
     15  CB        65.4210   40.0330   41.3360 C.3    14  ILE14       0.0290
     16  CG1       64.3770   38.9360   41.5830 C.3    14  ILE14       0.0022
     17  CG2       66.6600   39.3690   40.7800 C.3    14  ILE14       0.0023
     18  CD1       63.0790   39.3780   42.1790 C.3    14  ILE14       0.0001
     19  N         67.8190   40.2250   43.8340 N.am   15  GLY15      -0.1940
     20  CA        68.6270   39.4390   44.7860 C.3    15  GLY15       0.2014
     21  C         69.7750   38.6050   44.2080 C.2    15  GLY15       0.2639
     22  O         70.3050   37.7150   44.8830 O.2    15  GLY15      -0.2714
     23  N         70.1800   38.8830   42.9760 N.am   16  LYS16      -0.1963
     24  CA        71.2170   38.0890   42.3420 C.3    16  LYS16       0.1728
     25  C         72.4640   38.0710   43.2040 C.2    16  LYS16       0.2617
     26  O         73.0440   37.0190   43.4440 O.2    16  LYS16      -0.2715
     27  CB        71.5630   38.6430   40.9670 C.3    16  LYS16       0.0311
     28  CG        70.4510   38.4930   39.9400 C.3    16  LYS16       0.0038
     29  CD        70.9190   38.9090   38.5660 C.3    16  LYS16       0.0206
     30  CE        71.2410   40.3640   38.5020 C.3    16  LYS16       0.1093
     31  NZ        70.1580   41.1770   39.0870 N.3    16  LYS16      -0.1314
     32  N         72.8620   39.2430   43.6860 N.am   17  GLY17      -0.1940
     33  CA        74.0670   39.3730   44.4750 C.3    17  GLY17       0.2014
     34  C         74.0010   38.5710   45.7460 C.2    17  GLY17       0.2638
     35  O         74.9450   37.8690   46.0690 O.2    17  GLY17      -0.2714
     36  N         72.8850   38.6480   46.4720 N.am   18  ILE18      -0.1977
     37  CA        72.7820   37.9350   47.7490 C.3    18  ILE18       0.1596
     38  C         72.7890   36.4390   47.5610 C.2    18  ILE18       0.2287
     39  O         73.4230   35.7270   48.3410 O.2    18  ILE18      -0.2864
     40  CB        71.5370   38.3510   48.5480 C.3    18  ILE18       0.0276
     41  CG1       71.7370   39.7790   49.0760 C.3    18  ILE18       0.0022
     42  CG2       71.2880   37.3960   49.7240 C.3    18  ILE18       0.0022
     43  CD1       72.9940   39.9730   50.0170 C.3    18  ILE18       0.0001
     44  N         78.2370   35.6590   38.7200 N.3   106  GLU106     -0.1245
     45  CA        77.0460   36.4850   38.8990 C.3   106  GLU106      0.1567
     46  C         76.8640   37.3310   37.6400 C.2   106  GLU106      0.2260
     47  O         77.7130   38.1770   37.3210 O.2   106  GLU106     -0.2867
     48  CB        77.2540   37.3740   40.1360 C.3   106  GLU106      0.0388
     49  CG        76.0740   38.2630   40.5490 C.3   106  GLU106      0.1160
     50  CD        76.4890   39.2990   41.5840 C.2   106  GLU106      0.3649
     51  OE1       77.4830   39.0530   42.3210 O.co2 106  GLU106     -0.2457
     52  OE2       75.8260   40.3640   41.6660 O.co2 106  GLU106     -0.2457
     53  N         61.6660   34.7820   44.4380 N.3   177  ARG177     -0.1245
     54  CA        61.7470   35.8760   45.3920 C.3   177  ARG177      0.1563
     55  C         60.3800   36.5190   45.5700 C.2   177  ARG177      0.2260
     56  O         59.7460   36.9010   44.5910 O.2   177  ARG177     -0.2867
     57  CB        62.7150   36.9160   44.8520 C.3   177  ARG177      0.0307
     58  CG        64.1690   36.4840   44.9130 C.3   177  ARG177      0.0489
     59  CD        64.7890   36.7510   46.2730 C.3   177  ARG177      0.2205
     60  NE        64.7880   38.1730   46.6260 N.pl3 177  ARG177     -0.0865
     61  CZ        64.0560   38.7450   47.5830 C.cat 177  ARG177      0.5346
     62  NH1       63.2030   38.0590   48.3450 N.pl3 177  ARG177      0.1354
     63  NH2       64.1850   40.0330   47.7920 N.pl3 177  ARG177      0.1354
     64  N         62.7740   32.1000   48.4490 N.3   204  ILE204     -0.1231
     65  CA        63.4860   33.0050   49.3320 C.3   204  ILE204      0.1692
     66  C         62.7010   34.3010   49.4500 C.2   204  ILE204      0.2592
     67  O         62.7040   35.1240   48.5360 O.2   204  ILE204     -0.2718
     68  CB        64.9130   33.3270   48.8180 C.3   204  ILE204      0.0266
     69  CG1       65.7560   32.0460   48.6710 C.3   204  ILE204      0.0019
     70  CG2       65.5940   34.3100   49.7530 C.3   204  ILE204      0.0020
     71  CD1       66.1910   31.4100   49.9690 C.3   204  ILE204      0.0001
     72  N         62.0390   34.4890   50.5810 N.am  205  HIS205     -0.1962
     73  CA        61.2320   35.6830   50.7800 C.3   205  HIS205      0.1787
     74  C         62.0810   36.8240   51.3370 C.2   205  HIS205      0.2620
     75  O         63.2420   36.6380   51.7380 O.2   205  HIS205     -0.2715
     76  CB        60.0290   35.4080   51.6960 C.3   205  HIS205      0.0785
     77  CG        60.3630   34.6010   52.9090 C.ar  205  HIS205      0.0821
     78  ND1       60.3590   33.2220   52.9050 N.ar  205  HIS205     -0.2267
     79  CD2       60.7290   34.9740   54.1580 C.ar  205  HIS205      0.1154
     80  CE1       60.7130   32.7800   54.1000 C.ar  205  HIS205      0.1986
     81  NE2       60.9410   33.8240   54.8780 N.ar  205  HIS205     -0.2212
     82  N         61.4930   38.0160   51.3340 N.am  206  ASP206     -0.1957
     83  CA        62.0660   39.1490   52.0310 C.3   206  ASP206      0.1840
     84  C         62.2570   38.7900   53.4980 C.2   206  ASP206      0.2621
     85  O         61.3250   38.3570   54.1630 O.2   206  ASP206     -0.2715
     86  CB        61.1570   40.3590   51.8940 C.3   206  ASP206      0.1450
     87  CG        61.1780   40.9430   50.5020 C.2   206  ASP206      0.3671
     88  OD1       62.0040   40.5150   49.6580 O.co2 206  ASP206     -0.2456
     89  OD2       60.3720   41.8560   50.2460 O.co2 206  ASP206     -0.2456
     90  N         63.4890   38.9380   53.9720 N.am  207  VAL207     -0.1977
     91  CA        63.8390   38.6970   55.3760 C.3   207  VAL207      0.1596
     92  C         64.3310   40.0100   55.9950 C.2   207  VAL207      0.2287
     93  O         64.5910   40.9810   55.2890 O.2   207  VAL207     -0.2864
     94  CB        64.9350   37.6130   55.5020 C.3   207  VAL207      0.0276
     95  CG1       64.4090   36.2740   54.9950 C.3   207  VAL207      0.0022
     96  CG2       66.2120   38.0400   54.7610 C.3   207  VAL207      0.0022
     97  N         70.0480   39.6640   55.9810 N.3   210  THR210     -0.1218
     98  CA        70.4650   38.8350   54.8630 C.3   210  THR210      0.1862
     99  C         71.1930   37.5610   55.3030 C.2   210  THR210      0.2287
    100  O         71.4000   36.6780   54.4850 O.2   210  THR210     -0.2866
    101  CB        71.3490   39.6040   53.8560 C.3   210  THR210      0.1770
    102  OG1       72.5830   39.9360   54.4760 O.3   210  THR210     -0.2211
    103  CG2       70.6730   40.8760   53.3750 C.3   210  THR210      0.0375
    104  N         69.2050   34.4400   54.4720 N.3   213  VAL213     -0.1245
    105  CA        69.1590   33.8520   53.1410 C.3   213  VAL213      0.1561
    106  C         69.8910   32.4980   53.0470 C.2   213  VAL213      0.2260
    107  O         69.3030   31.5370   52.5720 O.2   213  VAL213     -0.2867
    108  CB        69.6050   34.8280   52.0420 C.3   213  VAL213      0.0252
    109  CG1       69.7910   34.0860   50.7110 C.3   213  VAL213      0.0019
    110  CG2       68.5560   35.9130   51.8810 C.3   213  VAL213      0.0019
@<TRIPOS>BOND
     1    47    46    2
     2    46    45    1
     3     1     2    1
     4     5     6    1
     5     5     2    1
     6    30    29    1
     7    30    31    1
     8    29    28    1
     9     2     3    1
    10    44    45    1
    11    45    48    1
    12    28    27    1
    13    48    49    1
    14     3     4    2
    15     3     7   am
    16    49    50    1
    17    17    15    1
    18    27    24    1
    19     7     8    1
    20    15    16    1
    21    15    12    1
    22    16    18    1
    23    50    52   ar
    24    50    51   ar
    25    11    12    1
    26    11     9   am
    27    24    23    1
    28    24    25    1
    29     8     9    1
    30    12    13    1
    31     9    10    2
    32    23    21   am
    33    25    26    2
    34    25    32   am
    35    13    19   am
    36    13    14    2
    37    32    33    1
    38    19    20    1
    39    21    20    1
    40    21    22    2
    41    53    54    1
    42    33    34    1
    43    56    55    2
    44    57    58    1
    45    57    54    1
    46    58    59    1
    47    54    55    1
    48    34    35    2
    49    34    36   am
    50    59    60    1
    51    36    37    1
    52    60    61    2
    53    38    37    1
    54    38    39    2
    55    61    63    1
    56    61    62    1
    57    37    40    1
    58    64    65    1
    59    67    66    2
    60    40    41    1
    61    40    42    1
    62    69    68    1
    63    69    71    1
    64    68    65    1
    65    68    70    1
    66    41    43    1
    67    65    66    1
    68    66    72   am
    69    88    87   ar
    70    89    87   ar
    71    87    86    1
    72    72    73    1
    73   109   108    1
    74    73    74    1
    75    73    76    1
    76    82    74   am
    77    82    83    1
    78    74    75    2
    79    76    77    1
    80   110   108    1
    81    86    83    1
    82    83    84    1
    83   108   105    1
    84   107   106    2
    85    78    77   ar
    86    78    80   ar
    87    77    79   ar
    88   106   105    1
    89   105   104    1
    90   103   101    1
    91    84    90   am
    92    84    85    2
    93   101   102    1
    94   101    98    1
    95    90    91    1
    96    80    81   ar
    97    79    81   ar
    98   100    99    2
    99    96    94    1
   100    98    99    1
   101    98    97    1
   102    95    94    1
   103    93    92    2
   104    91    94    1
   105    91    92    1
