@<TRIPOS>MOLECULE
tmp/3ihtA00.pdb
 174 170 0 0 0
SMALL
GASTEIGER

@<TRIPOS>ATOM
      1  N         14.4210   40.7910    7.9710 N.3    14  GLN14      -0.1245
      2  CA        14.2220   41.8690    8.9550 C.3    14  GLN14       0.1566
      3  C         14.9200   41.6330   10.2260 C.2    14  GLN14       0.2260
      4  O         15.5530   42.5430   10.7870 O.2    14  GLN14      -0.2867
      5  CB        12.7290   42.0440    9.2960 C.3    14  GLN14       0.0367
      6  CG        11.9500   42.6430    8.2190 C.3    14  GLN14       0.0905
      7  CD        10.4360   42.5880    8.4770 C.2    14  GLN14       0.2608
      8  OE1        9.9240   41.6590    9.1210 O.2    14  GLN14      -0.2717
      9  NE2        9.7310   43.5910    7.9980 N.am   14  GLN14      -0.0878
     10  N         10.2660   53.4850   13.9220 N.3    34  GLU34      -0.1245
     11  CA         9.5990   52.3180   13.3410 C.3    34  GLU34       0.1567
     12  C          8.4410   52.8270   12.5000 C.2    34  GLU34       0.2260
     13  O          7.4640   53.3550   13.0420 O.2    34  GLU34      -0.2867
     14  CB         9.0990   51.4090   14.4810 C.3    34  GLU34       0.0388
     15  CG         8.1800   50.2560   14.0850 C.3    34  GLU34       0.1160
     16  CD         8.8940   49.1070   13.3940 C.2    34  GLU34       0.3649
     17  OE1       10.0740   49.2840   13.0070 O.co2  34  GLU34      -0.2457
     18  OE2        8.2920   48.0210   13.2520 O.co2  34  GLU34      -0.2457
     19  N          5.3730   52.1810   10.4360 N.3    36  GLY36      -0.1210
     20  CA         4.3920   51.1210   10.2430 C.3    36  GLY36       0.1956
     21  C          4.4040   50.1520   11.4010 C.2    36  GLY36       0.2612
     22  O          5.3620   49.4110   11.6010 O.2    36  GLY36      -0.2717
     23  N          3.3500   50.1320   12.1720 N.am   37  LEU37      -0.1965
     24  CA         3.2680   49.2160   13.3200 C.3    37  LEU37       0.1728
     25  C          2.6970   47.8620   12.9500 C.2    37  LEU37       0.2617
     26  O          3.2650   46.8270   13.2610 O.2    37  LEU37      -0.2715
     27  CB         2.4030   49.8730   14.4190 C.3    37  LEU37       0.0311
     28  CG         2.2150   49.0380   15.6850 C.3    37  LEU37       0.0022
     29  CD1        3.5760   48.6750   16.3690 C.3    37  LEU37       0.0001
     30  CD2        1.2460   49.7670   16.6560 C.3    37  LEU37       0.0001
     31  N          1.5330   47.8720   12.2940 N.am   38  GLY38      -0.1940
     32  CA         0.7900   46.6590   11.9880 C.3    38  GLY38       0.2014
     33  C          0.5160   45.7820   13.1970 C.2    38  GLY38       0.2639
     34  O          0.1720   46.2790   14.2720 O.2    38  GLY38      -0.2714
     35  N          0.7150   44.4820   13.0450 N.am   39  ASN39      -0.1958
     36  CA         0.5520   43.5460   14.1590 C.3    39  ASN39       0.1819
     37  C          1.5390   43.8370   15.2900 C.2    39  ASN39       0.2622
     38  O          1.2500   43.5360   16.4470 O.2    39  ASN39      -0.2715
     39  CB         0.7350   42.1070   13.6570 C.3    39  ASN39       0.1195
     40  CG         0.5110   41.0750   14.7230 C.2    39  ASN39       0.2630
     41  OD1        1.4500   40.6670   15.4130 O.2    39  ASN39      -0.2716
     42  ND2       -0.7300   40.5950   14.8310 N.am   39  ASN39      -0.0877
     43  N          2.7060   44.3370   14.9390 N.am   40  GLY40      -0.1940
     44  CA         3.6990   44.8020   15.8850 C.3    40  GLY40       0.2014
     45  C          4.8650   43.8570   16.1600 C.2    40  GLY40       0.2639
     46  O          5.6080   44.0410   17.1510 O.2    40  GLY40      -0.2714
     47  N          5.0880   42.8580   15.2810 N.am   41  ARG41      -0.1963
     48  CA         6.1880   41.9080   15.5010 C.3    41  ARG41       0.1729
     49  C          7.5680   42.4970   15.4410 C.2    41  ARG41       0.2617
     50  O          8.4020   42.1900   16.2970 O.2    41  ARG41      -0.2715
     51  CB         6.0850   40.6610   14.5930 C.3    41  ARG41       0.0348
     52  CG         4.8200   39.8380   14.8570 C.3    41  ARG41       0.0492
     53  CD         4.8070   38.4760   14.1610 C.3    41  ARG41       0.2205
     54  NE         3.6220   37.7120   14.5040 N.pl3  41  ARG41      -0.0865
     55  CZ         2.4400   37.7970   13.8930 C.cat  41  ARG41       0.5346
     56  NH1        2.2430   38.6340   12.8690 N.pl3  41  ARG41       0.1354
     57  NH2        1.4370   37.0480   14.3310 N.pl3  41  ARG41       0.1354
     58  N          7.8570   43.3510   14.4570 N.am   42  THR42      -0.1937
     59  CA         9.1940   43.9430   14.4060 C.3    42  THR42       0.2028
     60  C          9.3270   44.9510   15.5260 C.2    42  THR42       0.2642
     61  O         10.4140   45.0890   16.0600 O.2    42  THR42      -0.2714
     62  CB         9.6550   44.6080   13.0530 C.3    42  THR42       0.1808
     63  OG1        8.6510   45.5080   12.5590 O.3    42  THR42      -0.2208
     64  CG2       10.0380   43.5080   11.9870 C.3    42  THR42       0.0379
     65  N          8.2550   45.6530   15.8730 N.am   43  TYR43      -0.1973
     66  CA         8.3150   46.5650   17.0190 C.3    43  TYR43       0.1639
     67  C          8.6730   45.7810   18.3060 C.2    43  TYR43       0.2290
     68  O          9.5330   46.1960   19.0810 O.2    43  TYR43      -0.2864
     69  CB         7.0200   47.3320   17.1780 C.3    43  TYR43       0.0560
     70  CG         7.0190   48.1830   18.4450 C.ar   43  TYR43      -0.0198
     71  CD1        7.9480   49.2140   18.6450 C.ar   43  TYR43      -0.0009
     72  CD2        6.0450   47.9840   19.3970 C.ar   43  TYR43      -0.0009
     73  CE1        7.9560   49.9840   19.8570 C.ar   43  TYR43       0.0417
     74  CE2        6.0170   48.7280   20.6100 C.ar   43  TYR43       0.0417
     75  CZ         6.9690   49.7390   20.8190 C.ar   43  TYR43       0.1957
     76  OH         6.9160   50.4600   22.0090 O.3    43  TYR43      -0.2866
     77  N          5.5090   55.1800   14.0750 N.3    58  PHE58      -0.1227
     78  CA         4.7090   55.9960   13.1530 C.3    58  PHE58       0.1736
     79  C          3.6300   55.0900   12.5700 C.2    58  PHE58       0.2595
     80  O          3.9310   54.0320   12.0010 O.2    58  PHE58      -0.2718
     81  CB         5.5680   56.5440   12.0150 C.3    58  PHE58       0.0547
     82  CG         6.6130   57.5440   12.4430 C.ar   58  PHE58      -0.0202
     83  CD1        7.7130   57.1510   13.2030 C.ar   58  PHE58      -0.0042
     84  CD2        6.5180   58.8590   12.0400 C.ar   58  PHE58      -0.0042
     85  CE1        8.6930   58.0490   13.5610 C.ar   58  PHE58      -0.0003
     86  CE2        7.5110   59.7760   12.3990 C.ar   58  PHE58      -0.0003
     87  CZ         8.5830   59.3770   13.1400 C.ar   58  PHE58      -0.0000
     88  N          2.3750   55.4300   12.7830 N.am   59  GLU59      -0.1965
     89  CA         1.2810   54.5660   12.3330 C.3    59  GLU59       0.1733
     90  C          0.0180   55.4160   12.1500 C.2    59  GLU59       0.2616
     91  O         -0.2100   56.3910   12.8740 O.2    59  GLU59      -0.2715
     92  CB         1.0440   53.4270   13.3680 C.3    59  GLU59       0.0429
     93  CG        -0.1230   52.5490   13.1280 C.3    59  GLU59       0.1163
     94  CD        -0.0910   51.8750   11.7420 C.2    59  GLU59       0.3649
     95  OE1        0.8190   51.0680   11.4890 O.co2  59  GLU59      -0.2457
     96  OE2       -0.9760   52.1540   10.9240 O.co2  59  GLU59      -0.2457
     97  N         -0.7880   55.0630   11.1610 N.am   60  ARG60      -0.1963
     98  CA        -2.0150   55.7820   10.8760 C.3    60  ARG60       0.1729
     99  C         -3.1740   55.2150   11.6880 C.2    60  ARG60       0.2616
    100  O         -4.0580   55.9650   12.0810 O.2    60  ARG60      -0.2715
    101  CB        -2.3360   55.7810    9.3630 C.3    60  ARG60       0.0348
    102  CG        -2.6980   54.4380    8.7670 C.3    60  ARG60       0.0492
    103  CD        -2.6800   54.5300    7.2310 C.3    60  ARG60       0.2205
    104  NE        -2.4530   53.2480    6.5860 N.pl3  60  ARG60      -0.0865
    105  CZ        -2.2040   53.1070    5.2870 C.cat  60  ARG60       0.5346
    106  NH1       -2.1190   54.1730    4.5050 N.pl3  60  ARG60       0.1354
    107  NH2       -2.0180   51.9000    4.7770 N.pl3  60  ARG60       0.1354
    108  N         -3.1530   53.9080   11.9670 N.am   61  ALA61      -0.1977
    109  CA        -4.2130   53.2760   12.7470 C.3    61  ALA61       0.1597
    110  C         -3.6640   52.1300   13.6120 C.2    61  ALA61       0.2287
    111  O         -3.1850   51.1390   13.0710 O.2    61  ALA61      -0.2864
    112  CB        -5.2640   52.7460   11.7920 C.3    61  ALA61       0.0319
    113  N         -0.6750   59.2420   12.5420 N.3    78  GLY78      -0.1210
    114  CA        -1.1010   59.9140   11.3240 C.3    78  GLY78       0.1956
    115  C         -0.3810   59.3360   10.1130 C.2    78  GLY78       0.2612
    116  O          0.3090   58.3210   10.1780 O.2    78  GLY78      -0.2717
    117  N         -0.5730   60.0020    9.0100 N.am   79  ASP79      -0.1959
    118  CA         0.0270   59.5760    7.7620 C.3    79  ASP79       0.1840
    119  C          1.4510   60.1000    7.7310 C.2    79  ASP79       0.2622
    120  O          1.6550   61.3060    7.8830 O.2    79  ASP79      -0.2715
    121  CB        -0.7690   60.1700    6.6140 C.3    79  ASP79       0.1450
    122  CG        -0.3960   59.5450    5.2800 C.2    79  ASP79       0.3671
    123  OD1        0.7990   59.5000    4.9360 O.co2  79  ASP79      -0.2456
    124  OD2       -1.3070   59.0360    4.5930 O.co2  79  ASP79      -0.2456
    125  N          2.4140   59.2090    7.5000 N.am   80  ILE80      -0.1963
    126  CA         3.8180   59.6040    7.5250 C.3    80  ILE80       0.1727
    127  C          4.1640   60.6840    6.5090 C.2    80  ILE80       0.2616
    128  O          5.1460   61.3840    6.6750 O.2    80  ILE80      -0.2715
    129  CB         4.8100   58.4330    7.4170 C.3    80  ILE80       0.0290
    130  CG1        4.6600   57.6910    6.1010 C.3    80  ILE80       0.0022
    131  CG2        4.6410   57.4670    8.6190 C.3    80  ILE80       0.0023
    132  CD1        5.7590   56.6190    5.9020 C.3    80  ILE80       0.0001
    133  N          3.3310   60.8680    5.4930 N.am   81  ARG81      -0.1977
    134  CA         3.6050   61.9300    4.5340 C.3    81  ARG81       0.1597
    135  C          3.4860   63.3150    5.1930 C.2    81  ARG81       0.2287
    136  O          4.1610   64.2720    4.7660 O.2    81  ARG81      -0.2864
    137  CB         2.7210   61.7530    3.2760 C.3    81  ARG81       0.0334
    138  CG         3.1280   60.4970    2.4690 C.3    81  ARG81       0.0492
    139  CD         2.0830   60.0190    1.4410 C.3    81  ARG81       0.2205
    140  NE         0.8030   59.6430    2.0420 N.pl3  81  ARG81      -0.0865
    141  CZ        -0.2740   59.2810    1.3470 C.cat  81  ARG81       0.5346
    142  NH1       -0.2110   59.1870    0.0170 N.pl3  81  ARG81       0.1354
    143  NH2       -1.4100   58.9720    1.9770 N.pl3  81  ARG81       0.1354
    144  N          8.6450   49.0470    7.1370 N.3   101  ASP101     -0.1225
    145  CA         7.9880   47.8730    6.5820 C.3   101  ASP101      0.1805
    146  C          6.5340   48.3120    6.2890 C.2   101  ASP101      0.2598
    147  O          5.6020   47.9610    6.9990 O.2   101  ASP101     -0.2718
    148  CB         8.0450   46.7120    7.6020 C.3   101  ASP101      0.1424
    149  CG         7.4600   45.4120    7.0780 C.2   101  ASP101      0.3668
    150  OD1        7.5330   45.1450    5.8410 O.co2 101  ASP101     -0.2456
    151  OD2        6.8900   44.6290    7.9310 O.co2 101  ASP101     -0.2456
    152  N          6.4010   49.1940    5.3080 N.am  102  LEU102     -0.1966
    153  CA         5.1620   49.9010    5.0160 C.3   102  LEU102      0.1728
    154  C          4.3440   49.2460    3.8980 C.2   102  LEU102      0.2616
    155  O          3.2060   49.6830    3.6180 O.2   102  LEU102     -0.2715
    156  CB         5.4840   51.3560    4.6440 C.3   102  LEU102      0.0311
    157  CG         6.0490   52.1970    5.8040 C.3   102  LEU102      0.0022
    158  CD1        7.0260   53.3210    5.2750 C.3   102  LEU102      0.0001
    159  CD2        4.8950   52.7700    6.6210 C.3   102  LEU102      0.0001
    160  N          4.8960   48.2050    3.2730 N.am  103  GLY103     -0.1955
    161  CA         4.2650   47.5920    2.1200 C.3   103  GLY103      0.1869
    162  C          2.9830   46.8500    2.4140 C.2   103  GLY103      0.2309
    163  O          2.8140   46.2770    3.5040 O.2   103  GLY103     -0.2863
    164  N          5.4340   54.0430   -3.5100 N.3   113  PHE113     -0.1241
    165  CA         5.4450   54.6490   -2.1830 C.3   113  PHE113      0.1605
    166  C          6.8560   54.7920   -1.6380 C.2   113  PHE113      0.2264
    167  O          7.2110   55.8170   -1.0820 O.2   113  PHE113     -0.2867
    168  CB         4.6020   53.8270   -1.2040 C.3   113  PHE113      0.0534
    169  CG         4.3520   54.5290    0.1110 C.ar  113  PHE113     -0.0203
    170  CD1        3.6000   55.6820    0.1670 C.ar  113  PHE113     -0.0042
    171  CD2        4.8780   54.0230    1.2840 C.ar  113  PHE113     -0.0042
    172  CE1        3.3620   56.3420    1.3680 C.ar  113  PHE113     -0.0003
    173  CE2        4.6300   54.6770    2.5140 C.ar  113  PHE113     -0.0003
    174  CZ         3.8820   55.8270    2.5520 C.ar  113  PHE113     -0.0000
@<TRIPOS>BOND
     1   164   165    1
     2   165   166    1
     3   165   168    1
     4   166   167    2
     5   168   169    1
     6   142   141    1
     7   169   170   ar
     8   169   171   ar
     9   170   172   ar
    10   171   173   ar
    11   141   143    1
    12   141   140    2
    13   172   174   ar
    14   139   140    1
    15   139   138    1
    16   161   162    1
    17   161   160    1
    18   162   163    2
    19   138   137    1
    20   173   174   ar
    21   160   154   am
    22   137   134    1
    23   155   154    2
    24   154   153    1
    25   106   105    1
    26   134   135    1
    27   134   133    1
    28   124   122   ar
    29   156   153    1
    30   156   157    1
    31   136   135    2
    32   107   105    1
    33   123   122   ar
    34   153   152    1
    35   158   157    1
    36   122   121    1
    37   105   104    2
    38   152   146   am
    39   133   127   am
    40   157   159    1
    41   150   149   ar
    42   132   130    1
    43   130   129    1
    44   146   145    1
    45   146   147    2
    46   127   128    2
    47   127   126    1
    48   145   144    1
    49   145   148    1
    50   104   103    1
    51   121   118    1
    52   149   148    1
    53   149   151   ar
    54   103   102    1
    55   129   126    1
    56   129   131    1
    57   125   126    1
    58   125   119   am
    59   119   118    1
    60   119   120    2
    61   118   117    1
    62     1     2    1
    63     9     7   am
    64     6     7    1
    65     6     5    1
    66     7     8    2
    67   102   101    1
    68     2     5    1
    69     2     3    1
    70   117   115   am
    71   101    98    1
    72   115   116    2
    73   115   114    1
    74     3     4    2
    75    20    19    1
    76    20    21    1
    77    98    97    1
    78    98    99    1
    79    96    94   ar
    80    97    90   am
    81   114   113    1
    82    21    22    2
    83    21    23   am
    84    95    94   ar
    85    99   108   am
    86    99   100    2
    87    94    93    1
    88   112   109    1
    89   108   109    1
    90    64    62    1
    91    32    31    1
    92    32    33    1
    93    80    79    2
    94    81    82    1
    95    81    78    1
    96    84    86   ar
    97    84    82   ar
    98    90    89    1
    99    90    91    2
   100    23    24    1
   101    31    25   am
   102    89    88    1
   103    89    92    1
   104    86    87   ar
   105    82    83   ar
   106    12    13    2
   107    12    11    1
   108    63    62    1
   109    79    88   am
   110    79    78    1
   111   109   110    1
   112    56    55    1
   113    25    26    2
   114    25    24    1
   115    17    16   ar
   116    35    33   am
   117    35    36    1
   118    62    59    1
   119   111   110    2
   120    93    92    1
   121    87    85   ar
   122    78    77    1
   123    33    34    2
   124    83    85   ar
   125    18    16   ar
   126    24    27    1
   127    11    10    1
   128    11    14    1
   129    16    15    1
   130    39    36    1
   131    39    40    1
   132    55    57    1
   133    55    54    2
   134    15    14    1
   135    36    37    1
   136    53    54    1
   137    53    52    1
   138    59    58    1
   139    59    60    1
   140    27    28    1
   141    58    49   am
   142    51    52    1
   143    51    48    1
   144    40    42   am
   145    40    41    2
   146    43    37   am
   147    43    44    1
   148    47    48    1
   149    47    45   am
   150    37    38    2
   151    49    48    1
   152    49    50    2
   153    60    65   am
   154    60    61    2
   155    28    29    1
   156    28    30    1
   157    65    66    1
   158    44    45    1
   159    45    46    2
   160    66    69    1
   161    66    67    1
   162    69    70    1
   163    67    68    2
   164    70    71   ar
   165    70    72   ar
   166    71    73   ar
   167    72    74   ar
   168    73    75   ar
   169    74    75   ar
   170    75    76    1
