@<TRIPOS>MOLECULE
tmp/3ii0C01.pdb
 122 118 0 0 0
SMALL
GASTEIGER

@<TRIPOS>ATOM
      1  N         30.0230  -68.3920  -21.8130 N.3     6  VAL6       -0.1231
      2  CA        30.9390  -67.3770  -21.3350 C.3     6  VAL6        0.1692
      3  C         30.2030  -66.3090  -20.5150 C.2     6  VAL6        0.2592
      4  O         30.7320  -65.7630  -19.5690 O.2     6  VAL6       -0.2718
      5  CB        31.7750  -66.8070  -22.5080 C.3     6  VAL6        0.0266
      6  CG1       31.0290  -65.7090  -23.2310 C.3     6  VAL6        0.0020
      7  CG2       33.1360  -66.3430  -22.0190 C.3     6  VAL6        0.0020
      8  N         28.9530  -66.0530  -20.8470 N.am    7  PHE7       -0.1976
      9  CA        28.1840  -65.0910  -20.1110 C.3     7  PHE7        0.1639
     10  C         27.6990  -65.6340  -18.7590 C.2     7  PHE7        0.2290
     11  O         27.6490  -64.8930  -17.7760 O.2     7  PHE7       -0.2864
     12  CB        27.0290  -64.5670  -20.9710 C.3     7  PHE7        0.0560
     13  CG        27.4780  -63.7170  -22.1540 C.ar    7  PHE7       -0.0200
     14  CD1       26.7660  -63.7240  -23.3180 C.ar    7  PHE7       -0.0042
     15  CD2       28.6110  -62.9150  -22.0890 C.ar    7  PHE7       -0.0042
     16  CE1       27.1510  -62.9270  -24.4060 C.ar    7  PHE7       -0.0003
     17  CE2       28.9970  -62.1300  -23.1630 C.ar    7  PHE7       -0.0003
     18  CZ        28.2550  -62.1390  -24.3220 C.ar    7  PHE7       -0.0000
     19  N         35.3960  -64.3410  -20.5730 N.3    26  VAL26      -0.1231
     20  CA        34.9900  -63.5410  -21.7140 C.3    26  VAL26       0.1692
     21  C         36.1780  -62.7670  -22.2500 C.2    26  VAL26       0.2592
     22  O         37.0260  -62.2950  -21.4990 O.2    26  VAL26      -0.2718
     23  CB        33.8510  -62.5440  -21.3250 C.3    26  VAL26       0.0266
     24  CG1       34.3580  -61.5060  -20.2980 C.3    26  VAL26       0.0020
     25  CG2       33.2790  -61.8540  -22.5610 C.3    26  VAL26       0.0020
     26  N         36.2100  -62.6320  -23.5640 N.am   27  GLY27      -0.1957
     27  CA        37.1820  -61.8100  -24.2670 C.3    27  GLY27       0.1869
     28  C         36.8780  -60.3220  -24.1530 C.2    27  GLY27       0.2309
     29  O         36.4610  -59.6880  -25.1170 O.2    27  GLY27      -0.2863
     30  N         27.8720  -60.4510  -33.9820 N.3    98  THR98      -0.1218
     31  CA        26.8240  -61.4870  -33.8990 C.3    98  THR98       0.1862
     32  C         25.6830  -61.1930  -34.8650 C.2    98  THR98       0.2287
     33  O         25.2530  -62.0620  -35.6150 O.2    98  THR98      -0.2866
     34  CB        26.2600  -61.6280  -32.4580 C.3    98  THR98       0.1770
     35  OG1       27.3170  -61.9970  -31.5530 O.3    98  THR98      -0.2211
     36  CG2       25.1300  -62.7070  -32.4100 C.3    98  THR98       0.0375
     37  N         34.3000  -70.5780  -31.8690 N.3   129  TRP129     -0.1227
     38  CA        33.3830  -69.8320  -31.0200 C.3   129  TRP129      0.1737
     39  C         32.0680  -70.5680  -30.9000 C.2   129  TRP129      0.2595
     40  O         31.4970  -70.9520  -31.8890 O.2   129  TRP129     -0.2718
     41  CB        33.1270  -68.4880  -31.6980 C.3   129  TRP129      0.0564
     42  CG        32.4070  -67.5000  -30.8840 C.ar  129  TRP129      0.0003
     43  CD1       32.6000  -67.2290  -29.5780 C.ar  129  TRP129      0.0946
     44  CD2       31.4190  -66.5870  -31.3460 C.ar  129  TRP129      0.0152
     45  NE1       31.7640  -66.2190  -29.1760 N.ar  129  TRP129     -0.2442
     46  CE2       31.0270  -65.8040  -30.2430 C.ar  129  TRP129      0.0810
     47  CE3       30.7980  -66.3830  -32.5720 C.ar  129  TRP129      0.0012
     48  CZ2       30.0540  -64.8010  -30.3340 C.ar  129  TRP129      0.0191
     49  CZ3       29.8230  -65.3820  -32.6750 C.ar  129  TRP129      0.0001
     50  CH2       29.4660  -64.6010  -31.5600 C.ar  129  TRP129      0.0015
     51  N         31.5760  -70.7070  -29.6760 N.am  130  GLU130     -0.1979
     52  CA        30.3300  -71.4060  -29.3790 C.3   130  GLU130      0.1602
     53  C         29.0960  -70.8700  -30.1280 C.2   130  GLU130      0.2287
     54  O         28.1410  -71.6070  -30.3500 O.2   130  GLU130     -0.2864
     55  CB        30.0690  -71.3380  -27.8560 C.3   130  GLU130      0.0415
     56  CG        29.9280  -69.8790  -27.2480 C.3   130  GLU130      0.1163
     57  CD        29.4600  -69.8390  -25.7570 C.2   130  GLU130      0.3649
     58  OE1       29.7890  -68.8200  -25.0850 O.co2 130  GLU130     -0.2457
     59  OE2       28.7840  -70.8040  -25.2840 O.co2 130  GLU130     -0.2457
     60  N         39.5190  -67.6140  -32.5380 N.3   183  ASN183     -0.1240
     61  CA        38.8610  -67.8830  -31.2720 C.3   183  ASN183      0.1653
     62  C         38.3730  -69.3350  -31.3060 C.2   183  ASN183      0.2266
     63  O         37.4210  -69.6280  -32.0400 O.2   183  ASN183     -0.2867
     64  CB        37.6540  -66.9390  -31.0880 C.3   183  ASN183      0.1155
     65  CG        36.9330  -67.1320  -29.7380 C.2   183  ASN183      0.2627
     66  OD1       37.2200  -68.0540  -28.9840 O.2   183  ASN183     -0.2716
     67  ND2       36.0220  -66.2380  -29.4310 N.am  183  ASN183     -0.0877
     68  N         38.2250  -59.2980  -34.2790 N.3   214  TYR214     -0.1241
     69  CA        39.4120  -58.8540  -33.5230 C.3   214  TYR214      0.1605
     70  C         40.4470  -58.1710  -34.4190 C.2   214  TYR214      0.2264
     71  O         41.6260  -58.1880  -34.1250 O.2   214  TYR214     -0.2867
     72  CB        40.0880  -60.0410  -32.7880 C.3   214  TYR214      0.0534
     73  CG        39.1800  -60.7880  -31.8290 C.ar  214  TYR214     -0.0201
     74  CD1       39.0920  -60.4410  -30.4760 C.ar  214  TYR214     -0.0009
     75  CD2       38.3890  -61.8330  -32.2760 C.ar  214  TYR214     -0.0009
     76  CE1       38.2380  -61.1470  -29.6000 C.ar  214  TYR214      0.0417
     77  CE2       37.5310  -62.5020  -31.4240 C.ar  214  TYR214      0.0417
     78  CZ        37.4510  -62.1630  -30.0940 C.ar  214  TYR214      0.1957
     79  OH        36.5750  -62.8790  -29.2740 O.3   214  TYR214     -0.2866
     80  N         35.5090  -55.1080  -29.7490 N.3   247  LYS247     -0.1245
     81  CA        36.8150  -55.2740  -29.1230 C.3   247  LYS247      0.1561
     82  C         37.8450  -54.2170  -29.5060 C.2   247  LYS247      0.2260
     83  O         38.4510  -53.6050  -28.6250 O.2   247  LYS247     -0.2867
     84  CB        37.3580  -56.6610  -29.4070 C.3   247  LYS247      0.0271
     85  CG        36.8120  -57.7340  -28.4810 C.3   247  LYS247      0.0035
     86  CD        35.6090  -58.3590  -29.0100 C.3   247  LYS247      0.0206
     87  CE        34.7910  -59.0430  -27.8950 C.3   247  LYS247      0.1093
     88  NZ        35.1100  -60.4690  -27.7320 N.3   247  LYS247     -0.1314
     89  N         31.8240  -52.8510  -26.6770 N.3   252  TYR252     -0.1241
     90  CA        31.0270  -54.0260  -26.3240 C.3   252  TYR252      0.1605
     91  C         29.5260  -53.7040  -26.2060 C.2   252  TYR252      0.2264
     92  O         28.7160  -54.2860  -26.9610 O.2   252  TYR252     -0.2867
     93  CB        31.5310  -54.6660  -25.0100 C.3   252  TYR252      0.0534
     94  CG        33.0240  -54.9200  -24.9520 C.ar  252  TYR252     -0.0201
     95  CD1       33.8980  -53.9300  -24.5410 C.ar  252  TYR252     -0.0009
     96  CD2       33.5620  -56.1750  -25.2890 C.ar  252  TYR252     -0.0009
     97  CE1       35.2800  -54.1470  -24.5020 C.ar  252  TYR252      0.0417
     98  CE2       34.9410  -56.4140  -25.2370 C.ar  252  TYR252      0.0417
     99  CZ        35.7960  -55.4040  -24.8470 C.ar  252  TYR252      0.1957
    100  OH        37.1570  -55.6270  -24.8130 O.3   252  TYR252     -0.2866
    101  N         43.3800  -64.3900  -26.6220 N.3   349  PHE349     -0.1241
    102  CA        43.2450  -65.6400  -25.8910 C.3   349  PHE349      0.1605
    103  C         44.5350  -66.4550  -25.8670 C.2   349  PHE349      0.2264
    104  O         45.4770  -66.2130  -26.6490 O.2   349  PHE349     -0.2867
    105  CB        42.1290  -66.4620  -26.5280 C.3   349  PHE349      0.0534
    106  CG        40.7920  -65.7590  -26.5550 C.ar  349  PHE349     -0.0203
    107  CD1       40.0830  -65.5590  -25.3770 C.ar  349  PHE349     -0.0042
    108  CD2       40.2320  -65.3220  -27.7550 C.ar  349  PHE349     -0.0042
    109  CE1       38.8510  -64.9290  -25.3750 C.ar  349  PHE349     -0.0003
    110  CE2       39.0040  -64.6770  -27.7680 C.ar  349  PHE349     -0.0003
    111  CZ        38.3010  -64.4890  -26.5710 C.ar  349  PHE349     -0.0000
    112  N         40.6850  -72.4420  -22.5450 N.3   375  ARG375     -0.1245
    113  CA        40.9120  -71.0990  -23.0560 C.3   375  ARG375      0.1563
    114  C         40.8810  -70.0470  -21.9520 C.2   375  ARG375      0.2260
    115  O         39.9690  -70.0220  -21.1440 O.2   375  ARG375     -0.2867
    116  CB        39.8710  -70.7390  -24.1090 C.3   375  ARG375      0.0307
    117  CG        40.1420  -69.4260  -24.8070 C.3   375  ARG375      0.0489
    118  CD        38.9080  -68.9400  -25.5240 C.3   375  ARG375      0.2205
    119  NE        38.0670  -68.1720  -24.6340 N.pl3 375  ARG375     -0.0865
    120  CZ        36.9290  -67.5700  -24.9860 C.cat 375  ARG375      0.5346
    121  NH1       36.4540  -67.6460  -26.2260 N.pl3 375  ARG375      0.1354
    122  NH2       36.2550  -66.8960  -24.0710 N.pl3 375  ARG375      0.1354
@<TRIPOS>BOND
     1    33    32    2
     2    32    31    1
     3    70    71    2
     4    70    69    1
     5    68    69    1
     6    30    31    1
     7    31    34    1
     8    69    72    1
     9    72    73    1
    10    49    47   ar
    11    49    50   ar
    12    47    44   ar
    13    60    61    1
    14    34    36    1
    15    34    35    1
    16    75    73   ar
    17    75    77   ar
    18    63    62    2
    19    40    39    2
    20    37    38    1
    21    73    74   ar
    22    41    38    1
    23    41    42    1
    24    50    48   ar
    25    77    78   ar
    26    44    42   ar
    27    44    46   ar
    28    62    61    1
    29    61    64    1
    30    64    65    1
    31    38    39    1
    32    39    51   am
    33    42    43   ar
    34    74    76   ar
    35    54    53    2
    36    48    46   ar
    37    46    45   ar
    38    53    52    1
    39    78    76   ar
    40    78    79    1
    41    80    81    1
    42    65    67   am
    43    65    66    2
    44    51    52    1
    45    43    45   ar
    46    82    81    1
    47    82    83    2
    48    84    81    1
    49    84    85    1
    50    52    55    1
    51    86    85    1
    52    86    87    1
    53    87    88    1
    54    55    56    1
    55   110   108   ar
    56   110   111   ar
    57   108   106   ar
    58    56    57    1
    59    92    91    2
    60    89    90    1
    61   104   103    2
    62   101   102    1
    63   111   109   ar
    64   106   105    1
    65   106   107   ar
    66   105   102    1
    67    90    91    1
    68    90    93    1
    69   121   120    1
    70   102   103    1
    71    57    59   ar
    72    57    58   ar
    73   118   117    1
    74   118   119    1
    75   107   109   ar
    76    96    98   ar
    77    96    94   ar
    78    98    99   ar
    79    29    28    2
    80    93    94    1
    81   120   119    2
    82   120   122    1
    83    94    95   ar
    84    99   100    1
    85    99    97   ar
    86   117   116    1
    87    95    97   ar
    88    16    18   ar
    89    16    14   ar
    90    18    17   ar
    91    27    28    1
    92    27    26    1
    93   116   113    1
    94    26    21   am
    95    14    13   ar
    96     6     5    1
    97    17    15   ar
    98   113   112    1
    99   113   114    1
   100    25    23    1
   101     5     7    1
   102     5     2    1
   103    21    20    1
   104    21    22    2
   105    13    15   ar
   106    13    12    1
   107   114   115    2
   108     1     2    1
   109    20    23    1
   110    20    19    1
   111     2     3    1
   112    23    24    1
   113    12     9    1
   114     8     3   am
   115     8     9    1
   116     3     4    2
   117     9    10    1
   118    10    11    2
