@<TRIPOS>MOLECULE
tmp/3ii1A00.pdb
 98 93 0 0 0
SMALL
GASTEIGER

@<TRIPOS>ATOM
      1  N         10.3910   27.7080   12.7220 N.3    47  GLY47      -0.1210
      2  CA         9.2380   28.5520   12.3280 C.3    47  GLY47       0.1956
      3  C          9.0020   28.5430   10.8280 C.2    47  GLY47       0.2611
      4  O          9.7320   27.8800   10.0790 O.2    47  GLY47      -0.2717
      5  N          8.0270   29.3150   10.3580 N.am   48  ASN48      -0.1974
      6  CA         7.6030   29.2020    8.9470 C.3    48  ASN48       0.1688
      7  C          8.6160   29.4990    7.8760 C.2    48  ASN48       0.2292
      8  O          8.7680   28.7510    6.8830 O.2    48  ASN48      -0.2864
      9  CB         6.3810   30.0710    8.6840 C.3    48  ASN48       0.1181
     10  CG         5.1550   29.5940    9.4120 C.2    48  ASN48       0.2629
     11  OD1        5.0190   28.3980    9.8110 O.2    48  ASN48      -0.2716
     12  ND2        4.2390   30.5220    9.6070 N.am   48  ASN48      -0.0877
     13  N          3.0080   34.3100    5.4900 N.3    65  ASP65      -0.1239
     14  CA         3.3250   35.3850    6.4530 C.3    65  ASP65       0.1674
     15  C          3.7020   36.7430    5.8260 C.2    65  ASP65       0.2266
     16  O          3.5440   37.7430    6.5290 O.2    65  ASP65      -0.2867
     17  CB         4.4900   35.0280    7.3860 C.3    65  ASP65       0.1410
     18  CG         4.1690   33.8480    8.3450 C.2    65  ASP65       0.3668
     19  OD1        2.9750   33.5790    8.5920 O.co2  65  ASP65      -0.2456
     20  OD2        5.1210   33.2260    8.8630 O.co2  65  ASP65      -0.2456
     21  N          9.3070   22.1510    9.6550 N.3   192  ASN192     -0.1225
     22  CA         8.3850   22.9110   10.4930 C.3   192  ASN192      0.1785
     23  C          6.9600   22.6800    9.9860 C.2   192  ASN192      0.2597
     24  O          6.6640   23.0460    8.8590 O.2   192  ASN192     -0.2718
     25  CB         8.6770   24.3760   10.4160 C.3   192  ASN192      0.1169
     26  CG         7.8080   25.1910   11.3770 C.2   192  ASN192      0.2627
     27  OD1        7.9420   25.0680   12.5960 O.2   192  ASN192     -0.2716
     28  ND2        6.9560   26.0790   10.8340 N.am  192  ASN192     -0.0877
     29  N          6.1250   22.0650   10.8290 N.am  193  GLU193     -0.1979
     30  CA         4.6850   21.9310   10.6200 C.3   193  GLU193      0.1602
     31  C          4.3630   21.4430    9.2380 C.2   193  GLU193      0.2287
     32  O          3.5900   22.1030    8.5360 O.2   193  GLU193     -0.2864
     33  CB         3.9700   23.2580   10.8770 C.3   193  GLU193      0.0415
     34  CG         4.3750   23.8830   12.2230 C.3   193  GLU193      0.1163
     35  CD         3.5150   25.0800   12.6550 C.2   193  GLU193      0.3649
     36  OE1        2.9450   25.7820   11.7760 O.co2 193  GLU193     -0.2457
     37  OE2        3.4330   25.3270   13.8950 O.co2 193  GLU193     -0.2457
     38  N          0.7700   21.2520    7.4120 N.3   196  ILE196     -0.1245
     39  CA         0.0960   22.4670    6.9060 C.3   196  ILE196      0.1561
     40  C          0.9880   23.2990    5.9120 C.2   196  ILE196      0.2260
     41  O          0.7780   24.5370    5.7350 O.2   196  ILE196     -0.2867
     42  CB        -0.5020   23.3390    8.0730 C.3   196  ILE196      0.0252
     43  CG1        0.5950   23.8030    9.0330 C.3   196  ILE196      0.0019
     44  CG2       -1.6350   22.5940    8.8410 C.3   196  ILE196      0.0019
     45  CD1        0.1020   24.9760   10.1070 C.3   196  ILE196      0.0001
     46  N          0.6540   27.4590    4.8430 N.3   200  THR200     -0.1218
     47  CA         1.8330   28.3400    5.0340 C.3   200  THR200      0.1862
     48  C          2.6880   28.4630    3.7340 C.2   200  THR200      0.2287
     49  O          3.1350   29.5340    3.3830 O.2   200  THR200     -0.2866
     50  CB         2.7120   27.7970    6.2000 C.3   200  THR200      0.1770
     51  OG1        1.8550   27.4490    7.3020 O.3   200  THR200     -0.2211
     52  CG2        3.7060   28.8200    6.6740 C.3   200  THR200      0.0375
     53  N         -0.5620   25.1730   20.8870 N.3   302  TYR302     -0.1241
     54  CA        -0.9890   26.4720   21.3450 C.3   302  TYR302      0.1605
     55  C         -2.4230   26.2520   21.8180 C.2   302  TYR302      0.2264
     56  O         -3.2190   25.6050   21.0960 O.2   302  TYR302     -0.2867
     57  CB        -0.9800   27.5110   20.2050 C.3   302  TYR302      0.0534
     58  CG         0.4140   27.9030   19.6690 C.ar  302  TYR302     -0.0201
     59  CD1        1.1650   28.9250   20.2790 C.ar  302  TYR302     -0.0009
     60  CD2        0.9740   27.2140   18.5800 C.ar  302  TYR302     -0.0009
     61  CE1        2.4360   29.2710   19.7870 C.ar  302  TYR302      0.0417
     62  CE2        2.2510   27.5360   18.0860 C.ar  302  TYR302      0.0417
     63  CZ         2.9630   28.5760   18.6800 C.ar  302  TYR302      0.1957
     64  OH         4.1960   28.8970   18.2000 O.3   302  TYR302     -0.2866
     65  N         -4.0520   32.6150   23.1870 N.3   308  PHE308     -0.1241
     66  CA        -2.8660   33.0980   22.5090 C.3   308  PHE308      0.1605
     67  C         -3.1380   34.5100   21.9060 C.2   308  PHE308      0.2264
     68  O         -3.7560   34.6370   20.8470 O.2   308  PHE308     -0.2867
     69  CB        -2.3910   32.0460   21.4690 C.3   308  PHE308      0.0534
     70  CG        -1.2760   32.5290   20.5870 C.ar  308  PHE308     -0.0203
     71  CD1       -1.5540   33.1530   19.3550 C.ar  308  PHE308     -0.0042
     72  CD2        0.0390   32.4640   21.0190 C.ar  308  PHE308     -0.0042
     73  CE1       -0.5120   33.6720   18.5560 C.ar  308  PHE308     -0.0003
     74  CE2        1.0940   32.9720   20.2290 C.ar  308  PHE308     -0.0003
     75  CZ         0.8190   33.5440   18.9790 C.ar  308  PHE308     -0.0000
     76  N          7.2510   24.4070   20.2850 N.3   365  GLU365     -0.1245
     77  CA         6.5990   25.7410   20.2600 C.3   365  GLU365      0.1567
     78  C          5.3920   25.7100   21.1570 C.2   365  GLU365      0.2260
     79  O          4.6020   24.8100   21.0290 O.2   365  GLU365     -0.2867
     80  CB         6.1150   26.1450   18.8500 C.3   365  GLU365      0.0388
     81  CG         7.1960   26.5090   17.8480 C.3   365  GLU365      0.1160
     82  CD         6.6420   27.0990   16.5420 C.2   365  GLU365      0.3649
     83  OE1        5.4480   27.5360   16.5060 O.co2 365  GLU365     -0.2457
     84  OE2        7.4190   27.1610   15.5410 O.co2 365  GLU365     -0.2457
     85  N          7.6770   29.9000   22.0350 N.3   398  TRP398     -0.1241
     86  CA         7.5680   30.7630   20.8830 C.3   398  TRP398      0.1605
     87  C          6.9330   32.1400   21.2660 C.2   398  TRP398      0.2264
     88  O          5.7330   32.2360   21.4570 O.2   398  TRP398     -0.2867
     89  CB         6.7410   30.0740   19.8000 C.3   398  TRP398      0.0550
     90  CG         6.6990   30.9000   18.5330 C.ar  398  TRP398      0.0003
     91  CD1        5.7450   31.8590   18.1800 C.ar  398  TRP398      0.0946
     92  CD2        7.6700   30.9060   17.4670 C.ar  398  TRP398      0.0152
     93  NE1        6.0560   32.4160   16.9370 N.ar  398  TRP398     -0.2442
     94  CE2        7.2330   31.8600   16.4880 C.ar  398  TRP398      0.0810
     95  CE3        8.8700   30.2130   17.2420 C.ar  398  TRP398      0.0012
     96  CZ2        7.9720   32.1240   15.2960 C.ar  398  TRP398      0.0191
     97  CZ3        9.5840   30.4650   16.0530 C.ar  398  TRP398      0.0001
     98  CH2        9.1340   31.4080   15.0940 C.ar  398  TRP398      0.0015
@<TRIPOS>BOND
     1    49    48    2
     2    48    47    1
     3    46    47    1
     4    47    50    1
     5    13    14    1
     6    41    40    2
     7    15    14    1
     8    15    16    2
     9    40    39    1
    10    50    52    1
    11    50    51    1
    12    14    17    1
    13     8     7    2
    14    39    38    1
    15    39    42    1
    16    17    18    1
    17     7     6    1
    18    42    44    1
    19    42    43    1
    20    18    19   ar
    21    18    20   ar
    22    32    31    2
    23     9     6    1
    24     9    10    1
    25    24    23    2
    26     6     5    1
    27    43    45    1
    28    31    30    1
    29    10    12   am
    30    10    11    2
    31    21    22    1
    32    23    22    1
    33    23    29   am
    34     4     3    2
    35     5     3   am
    36    25    22    1
    37    25    26    1
    38    30    29    1
    39    30    33    1
    40     3     2    1
    41    28    26   am
    42    33    34    1
    43    26    27    2
    44    36    35   ar
    45    34    35    1
    46     2     1    1
    47    35    37   ar
    48    98    96   ar
    49    98    97   ar
    50    96    94   ar
    51    84    82   ar
    52    97    95   ar
    53    94    93   ar
    54    94    92   ar
    55    83    82   ar
    56    82    81    1
    57    93    91   ar
    58    95    92   ar
    59    92    90   ar
    60    81    80    1
    61    62    60   ar
    62    62    63   ar
    63    91    90   ar
    64    64    63    1
    65    90    89    1
    66    73    75   ar
    67    73    71   ar
    68    60    58   ar
    69    63    61   ar
    70    80    77    1
    71    75    74   ar
    72    71    70   ar
    73    58    57    1
    74    58    59   ar
    75    61    59   ar
    76    89    86    1
    77    57    54    1
    78    74    72   ar
    79    77    76    1
    80    77    78    1
    81    70    72   ar
    82    70    69    1
    83    68    67    2
    84    86    87    1
    85    86    85    1
    86    53    54    1
    87    79    78    2
    88    56    55    2
    89    87    88    2
    90    54    55    1
    91    69    66    1
    92    67    66    1
    93    66    65    1
