@<TRIPOS>MOLECULE
tmp/3ii4B01.pdb
 190 183 0 0 0
SMALL
GASTEIGER

@<TRIPOS>ATOM
      1  N          3.9980    8.0040   51.3370 N.3    50  LYS50      -0.1245
      2  CA         2.7850    8.1760   50.5380 C.3    50  LYS50       0.1561
      3  C          1.5910    8.7670   51.2690 C.2    50  LYS50       0.2260
      4  O          0.6000    9.1390   50.6390 O.2    50  LYS50      -0.2867
      5  CB         2.3930    6.8580   49.8640 C.3    50  LYS50       0.0271
      6  CG         3.2270    6.5740   48.6170 C.3    50  LYS50       0.0035
      7  CD         4.7160    6.6440   48.9310 C.3    50  LYS50       0.0206
      8  CE         5.5580    6.7470   47.6790 C.3    50  LYS50       0.1093
      9  NZ         7.0170    6.8310   48.0040 N.3    50  LYS50      -0.1314
     10  N         23.5580    6.9300   50.0990 N.3   147  ARG147     -0.1245
     11  CA        24.9000    7.2340   49.6110 C.3   147  ARG147      0.1563
     12  C         25.0750    8.7440   49.6930 C.2   147  ARG147      0.2260
     13  O         24.2430    9.4960   49.1920 O.2   147  ARG147     -0.2867
     14  CB        25.0340    6.7800   48.1530 C.3   147  ARG147      0.0307
     15  CG        26.4560    6.6570   47.6210 C.3   147  ARG147      0.0489
     16  CD        26.4190    6.3090   46.1300 C.3   147  ARG147      0.2205
     17  NE        25.4910    5.2090   45.8550 N.pl3 147  ARG147     -0.0865
     18  CZ        24.8970    4.9900   44.6820 C.cat 147  ARG147      0.5346
     19  NH1       24.0680    3.9590   44.5350 N.pl3 147  ARG147      0.1354
     20  NH2       25.1230    5.8030   43.6540 N.pl3 147  ARG147      0.1354
     21  N         15.8810   11.8620   41.6730 N.3   180  GLY180     -0.1210
     22  CA        15.2540   10.5620   41.5210 C.3   180  GLY180      0.1956
     23  C         13.8930   10.6530   42.1930 C.2   180  GLY180      0.2612
     24  O         13.5430   11.6900   42.7630 O.2   180  GLY180     -0.2717
     25  N         13.1180    9.5790   42.1440 N.am  181  ALA181     -0.1965
     26  CA        11.7940    9.5850   42.7510 C.3   181  ALA181      0.1728
     27  C         11.7960   10.1030   44.1920 C.2   181  ALA181      0.2616
     28  O         11.0100   10.9860   44.5380 O.2   181  ALA181     -0.2715
     29  CB        11.1990    8.1950   42.6940 C.3   181  ALA181      0.0334
     30  N         12.6800    9.5640   45.0270 N.am  182  ILE182     -0.1977
     31  CA        12.7630    9.9840   46.4250 C.3   182  ILE182      0.1596
     32  C         12.9760   11.4910   46.5650 C.2   182  ILE182      0.2287
     33  O         12.3270   12.1470   47.3830 O.2   182  ILE182     -0.2864
     34  CB        13.8930    9.2250   47.1610 C.3   182  ILE182      0.0276
     35  CG1       13.5170    7.7410   47.2600 C.3   182  ILE182      0.0022
     36  CG2       14.1250    9.8220   48.5480 C.3   182  ILE182      0.0022
     37  CD1       14.5350    6.8790   47.9610 C.3   182  ILE182      0.0001
     38  N          9.7770   13.4560   45.2490 N.3   185  GLU185     -0.1245
     39  CA         8.6310   13.3620   46.1470 C.3   185  GLU185      0.1567
     40  C          8.7780   14.3280   47.3260 C.2   185  GLU185      0.2260
     41  O          7.8430   15.0670   47.6320 O.2   185  GLU185     -0.2867
     42  CB         8.4390   11.9200   46.6400 C.3   185  GLU185      0.0388
     43  CG         8.2650   10.9250   45.4980 C.3   185  GLU185      0.1160
     44  CD         7.9510    9.5180   45.9580 C.2   185  GLU185      0.3649
     45  OE1        8.4990    9.0820   46.9920 O.co2 185  GLU185     -0.2457
     46  OE2        7.1620    8.8370   45.2680 O.co2 185  GLU185     -0.2457
     47  N         14.5180   12.5430   37.0720 N.3   207  LEU207     -0.1245
     48  CA        14.0590   11.1650   36.9120 C.3   207  LEU207      0.1561
     49  C         14.7340   10.5900   35.6680 C.2   207  LEU207      0.2260
     50  O         14.0670   10.1190   34.7490 O.2   207  LEU207     -0.2867
     51  CB        12.5390   11.1120   36.7430 C.3   207  LEU207      0.0270
     52  CG        11.6880   11.6560   37.8950 C.3   207  LEU207      0.0019
     53  CD1       10.2150   11.4560   37.5680 C.3   207  LEU207      0.0001
     54  CD2       12.0520   10.9530   39.1980 C.3   207  LEU207      0.0001
     55  N         16.0950    7.8690   34.9790 N.3   209  ASN209     -0.1225
     56  CA        15.8600    6.4650   34.6510 C.3   209  ASN209      0.1785
     57  C         14.5840    6.2510   33.8440 C.2   209  ASN209      0.2597
     58  O         14.3680    5.1800   33.2800 O.2   209  ASN209     -0.2718
     59  CB        15.8180    5.6220   35.9280 C.3   209  ASN209      0.1169
     60  CG        17.1450    5.6230   36.6710 C.2   209  ASN209      0.2627
     61  OD1       17.5750    6.6470   37.2050 O.2   209  ASN209     -0.2716
     62  ND2       17.8040    4.4750   36.6990 N.am  209  ASN209     -0.0877
     63  N         13.7450    7.2790   33.7810 N.am  210  GLU210     -0.1979
     64  CA        12.4900    7.1900   33.0430 C.3   210  GLU210      0.1602
     65  C         12.7180    7.5110   31.5690 C.2   210  GLU210      0.2287
     66  O         13.8410    7.7960   31.1560 O.2   210  GLU210     -0.2864
     67  CB        11.4730    8.1690   33.6280 C.3   210  GLU210      0.0415
     68  CG        11.1360    7.9370   35.0930 C.3   210  GLU210      0.1163
     69  CD        10.4560    6.6040   35.3400 C.2   210  GLU210      0.3649
     70  OE1        9.9430    6.0000   34.3740 O.co2 210  GLU210     -0.2457
     71  OE2       10.4150    6.1660   36.5070 O.co2 210  GLU210     -0.2457
     72  N         21.4650    4.9780   46.8620 N.3   269  PHE269     -0.1227
     73  CA        21.5030    4.1430   48.0580 C.3   269  PHE269      0.1736
     74  C         22.3630    2.9080   47.8570 C.2   269  PHE269      0.2595
     75  O         22.0850    2.0700   46.9990 O.2   269  PHE269     -0.2718
     76  CB        20.0820    3.7460   48.4630 C.3   269  PHE269      0.0547
     77  CG        19.2140    4.9210   48.8110 C.ar  269  PHE269     -0.0202
     78  CD1       18.5980    5.6700   47.8110 C.ar  269  PHE269     -0.0042
     79  CD2       19.0670    5.3230   50.1370 C.ar  269  PHE269     -0.0042
     80  CE1       17.8520    6.8070   48.1250 C.ar  269  PHE269     -0.0003
     81  CE2       18.3220    6.4600   50.4640 C.ar  269  PHE269     -0.0003
     82  CZ        17.7140    7.2050   49.4560 C.ar  269  PHE269     -0.0000
     83  N         23.4180    2.8070   48.6580 N.am  270  ALA270     -0.1966
     84  CA        24.3500    1.6920   48.5730 C.3   270  ALA270      0.1713
     85  C         23.9230    0.5250   49.4480 C.2   270  ALA270      0.2458
     86  O         23.5020    0.7130   50.5910 O.2   270  ALA270     -0.2730
     87  CB        25.7410    2.1560   48.9740 C.3   270  ALA270      0.0333
     88  N         24.0160   -0.7040   48.9160 N.am  271  PRO271     -0.2727
     89  CA        23.6400   -1.9070   49.6630 C.3   271  PRO271      0.1402
     90  C         24.4340   -2.0480   50.9630 C.2   271  PRO271      0.2269
     91  O         25.6460   -1.8200   50.9900 O.2   271  PRO271     -0.2865
     92  CB        23.9550   -3.0290   48.6810 C.3   271  PRO271      0.0296
     93  CG        23.6700   -2.3920   47.3590 C.3   271  PRO271      0.0237
     94  CD        24.3150   -1.0340   47.5110 C.3   271  PRO271      0.0939
     95  N         30.0870   -3.1590   41.9730 N.3   288  ARG288     -0.1231
     96  CA        29.3620   -2.0140   42.5060 C.3   288  ARG288      0.1694
     97  C         29.1000   -2.1930   44.0030 C.2   288  ARG288      0.2592
     98  O         28.2800   -1.4940   44.6000 O.2   288  ARG288     -0.2718
     99  CB        28.0540   -1.8220   41.7310 C.3   288  ARG288      0.0321
    100  CG        28.2880   -1.5590   40.2500 C.3   288  ARG288      0.0489
    101  CD        27.0740   -0.9830   39.5290 C.3   288  ARG288      0.2205
    102  NE        25.9160   -1.8750   39.5470 N.pl3 288  ARG288     -0.0865
    103  CZ        24.8510   -1.7350   38.7580 C.cat 288  ARG288      0.5346
    104  NH1       24.7970   -0.7360   37.8820 N.pl3 288  ARG288      0.1354
    105  NH2       23.8380   -2.5910   38.8480 N.pl3 288  ARG288      0.1354
    106  N         29.8230   -3.1340   44.6020 N.am  289  LYS289     -0.1966
    107  CA        29.7050   -3.4210   46.0260 C.3   289  LYS289      0.1728
    108  C         28.2790   -3.8060   46.4380 C.2   289  LYS289      0.2616
    109  O         27.7740   -3.3660   47.4740 O.2   289  LYS289     -0.2715
    110  CB        30.1950   -2.2180   46.8400 C.3   289  LYS289      0.0311
    111  CG        31.6080   -1.7520   46.4650 C.3   289  LYS289      0.0038
    112  CD        32.6820   -2.3180   47.3880 C.3   289  LYS289      0.0206
    113  CE        32.6870   -1.6150   48.7570 C.3   289  LYS289      0.1093
    114  NZ        33.0800   -0.1650   48.6970 N.3   289  LYS289     -0.1314
    115  N         27.6360   -4.6210   45.6020 N.am  290  ALA290     -0.1977
    116  CA        26.2920   -5.1300   45.8670 C.3   290  ALA290      0.1597
    117  C         26.4400   -6.6490   45.9420 C.2   290  ALA290      0.2287
    118  O         27.3350   -7.2120   45.3090 O.2   290  ALA290     -0.2864
    119  CB        25.3370   -4.7470   44.7340 C.3   290  ALA290      0.0319
    120  N         20.8360   -4.6130   44.9130 N.3   312  GLY312     -0.1210
    121  CA        20.7890   -3.4810   44.0030 C.3   312  GLY312      0.1956
    122  C         20.2600   -3.6840   42.5960 C.2   312  GLY312      0.2612
    123  O         20.6140   -2.9260   41.6960 O.2   312  GLY312     -0.2717
    124  N         19.4130   -4.6850   42.3930 N.am  313  LEU313     -0.1965
    125  CA        18.8570   -4.9340   41.0670 C.3   313  LEU313      0.1728
    126  C         17.7950   -3.8930   40.7410 C.2   313  LEU313      0.2616
    127  O         17.8370   -3.2470   39.6900 O.2   313  LEU313     -0.2715
    128  CB        18.2490   -6.3350   41.0030 C.3   313  LEU313      0.0311
    129  CG        19.2620   -7.4790   41.0840 C.3   313  LEU313      0.0022
    130  CD1       18.5450   -8.8090   41.1520 C.3   313  LEU313      0.0001
    131  CD2       20.1720   -7.4250   39.8690 C.3   313  LEU313      0.0001
    132  N         16.8400   -3.7450   41.6530 N.am  314  LEU314     -0.1963
    133  CA        15.7550   -2.7830   41.5170 C.3   314  LEU314      0.1728
    134  C         15.3210   -2.4730   42.9400 C.2   314  LEU314      0.2616
    135  O         14.4940   -3.1830   43.5190 O.2   314  LEU314     -0.2715
    136  CB        14.5890   -3.3890   40.7410 C.3   314  LEU314      0.0311
    137  CG        14.0070   -2.5580   39.5990 C.3   314  LEU314      0.0022
    138  CD1       12.7510   -3.2380   39.0770 C.3   314  LEU314      0.0001
    139  CD2       13.6940   -1.1670   40.0760 C.3   314  LEU314      0.0001
    140  N         15.8840   -1.4050   43.4900 N.am  315  GLN315     -0.1963
    141  CA        15.6200   -1.0020   44.8620 C.3   315  GLN315      0.1733
    142  C         14.2170   -0.4730   45.1320 C.2   315  GLN315      0.2616
    143  O         14.0200    0.7190   45.3770 O.2   315  GLN315     -0.2715
    144  CB        16.6820    0.0140   45.2860 C.3   315  GLN315      0.0408
    145  CG        18.0900   -0.4040   44.8520 C.3   315  GLN315      0.0908
    146  CD        19.1950    0.3630   45.5580 C.2   315  GLN315      0.2608
    147  OE1       19.5990    0.0140   46.6660 O.2   315  GLN315     -0.2717
    148  NE2       19.6840    1.4210   44.9200 N.am  315  GLN315     -0.0878
    149  N         13.2520   -1.3890   45.1020 N.am  316  LEU316     -0.1977
    150  CA        11.8450   -1.0930   45.3430 C.3   316  LEU316      0.1596
    151  C         11.2800   -2.1670   46.2710 C.2   316  LEU316      0.2287
    152  O         11.7870   -3.2910   46.3070 O.2   316  LEU316     -0.2864
    153  CB        11.0840   -1.0960   44.0170 C.3   316  LEU316      0.0297
    154  CG        10.8840    0.2020   43.2190 C.3   316  LEU316      0.0022
    155  CD1       11.8020    1.3150   43.7050 C.3   316  LEU316      0.0001
    156  CD2       11.1060   -0.0990   41.7410 C.3   316  LEU316      0.0001
    157  N          7.3480    0.2680   38.1130 N.3   347  ARG347     -0.1231
    158  CA         7.8090    1.2280   39.1060 C.3   347  ARG347      0.1694
    159  C          7.0070    2.5160   38.9910 C.2   347  ARG347      0.2592
    160  O          6.4920    2.8460   37.9240 O.2   347  ARG347     -0.2718
    161  CB         9.2930    1.5370   38.9230 C.3   347  ARG347      0.0321
    162  CG         9.6620    2.0310   37.5450 C.3   347  ARG347      0.0489
    163  CD         9.9980    0.8710   36.6300 C.3   347  ARG347      0.2205
    164  NE        10.4390    1.3390   35.3210 N.pl3 347  ARG347     -0.0865
    165  CZ        11.0140    0.5700   34.4040 C.cat 347  ARG347      0.5346
    166  NH1       11.2250   -0.7150   34.6500 N.pl3 347  ARG347      0.1354
    167  NH2       11.3800    1.0900   33.2410 N.pl3 347  ARG347      0.1354
    168  N          6.9040    3.2450   40.0950 N.am  348  ALA348     -0.1966
    169  CA         6.1530    4.4820   40.0850 C.3   348  ALA348      0.1728
    170  C          6.7080    5.5370   41.0390 C.2   348  ALA348      0.2617
    171  O          7.3270    5.2210   42.0540 O.2   348  ALA348     -0.2715
    172  CB         4.6930    4.1940   40.4170 C.3   348  ALA348      0.0334
    173  N          6.4920    6.7970   40.6760 N.am  349  THR349     -0.1937
    174  CA         6.9060    7.9360   41.4810 C.3   349  THR349      0.2028
    175  C          5.5640    8.5200   41.8930 C.2   349  THR349      0.2642
    176  O          4.7080    8.7650   41.0370 O.2   349  THR349     -0.2714
    177  CB         7.6720    8.9480   40.6450 C.3   349  THR349      0.1808
    178  OG1        8.7660    8.2890   39.9990 O.3   349  THR349     -0.2208
    179  CG2        8.2060   10.0630   41.5250 C.3   349  THR349      0.0379
    180  N          5.3710    8.7550   43.1880 N.am  350  PHE350     -0.1973
    181  CA         4.0720    9.2240   43.6360 C.3   350  PHE350      0.1639
    182  C          3.7780   10.7020   43.8410 C.2   350  PHE350      0.2290
    183  O          2.9790   11.0730   44.6990 O.2   350  PHE350     -0.2864
    184  CB         3.6450    8.4070   44.8600 C.3   350  PHE350      0.0560
    185  CG         3.5490    6.9300   44.5800 C.ar  350  PHE350     -0.0200
    186  CD1        4.6950    6.1380   44.5370 C.ar  350  PHE350     -0.0042
    187  CD2        2.3220    6.3420   44.2870 C.ar  350  PHE350     -0.0042
    188  CE1        4.6190    4.7860   44.2040 C.ar  350  PHE350     -0.0003
    189  CE2        2.2370    4.9900   43.9530 C.ar  350  PHE350     -0.0003
    190  CZ         3.3860    4.2120   43.9110 C.ar  350  PHE350     -0.0000
@<TRIPOS>BOND
     1    66    65    2
     2    65    64    1
     3    64    67    1
     4    64    63    1
     5   167   165    1
     6    58    57    2
     7    67    68    1
     8    63    57   am
     9    57    56    1
    10    70    69   ar
    11   165   166    1
    12   165   164    2
    13    56    55    1
    14    56    59    1
    15    50    49    2
    16    68    69    1
    17   164   163    1
    18    69    71   ar
    19    49    48    1
    20    59    60    1
    21   163   162    1
    22    60    62   am
    23    60    61    2
    24    51    48    1
    25    51    52    1
    26    48    47    1
    27   162   161    1
    28    53    52    1
    29   104   103    1
    30    52    54    1
    31   160   159    2
    32   157   158    1
    33   103   105    1
    34   103   102    2
    35   161   158    1
    36   159   158    1
    37   159   168   am
    38   138   137    1
    39   101   102    1
    40   101   100    1
    41   137   139    1
    42   137   136    1
    43   127   126    2
    44   131   129    1
    45   178   177    1
    46   169   168    1
    47   169   172    1
    48   169   170    1
    49   100    99    1
    50   177   174    1
    51   177   179    1
    52   173   170   am
    53   173   174    1
    54   126   125    1
    55   126   132   am
    56   136   133    1
    57   128   125    1
    58   128   129    1
    59   176   175    2
    60   170   171    2
    61   125   124    1
    62   129   130    1
    63   174   175    1
    64   133   132    1
    65   133   134    1
    66    22    21    1
    67    22    23    1
    68   123   122    2
    69    99    96    1
    70   156   154    1
    71   175   180   am
    72    95    96    1
    73    25    23   am
    74    25    26    1
    75    23    24    2
    76   124   122   am
    77    96    97    1
    78   122   121    1
    79    29    26    1
    80    26    27    1
    81   134   140   am
    82   134   135    2
    83   180   181    1
    84   154   155    1
    85   154   153    1
    86   140   141    1
    87   181   182    1
    88   181   184    1
    89    20    18    1
    90   182   183    2
    91   190   189   ar
    92   190   188   ar
    93   189   187   ar
    94    97    98    2
    95    97   106   am
    96   121   120    1
    97   153   150    1
    98    27    28    2
    99    27    30   am
   100   188   186   ar
   101   187   185   ar
   102    19    18    1
   103   186   185   ar
   104   185   184    1
   105   106   107    1
   106    18    17    2
   107   119   116    1
   108   145   144    1
   109   145   146    1
   110   141   142    1
   111   141   144    1
   112   148   146   am
   113    30    31    1
   114   149   142   am
   115   149   150    1
   116   142   143    2
   117    38    39    1
   118    46    44   ar
   119   118   117    2
   120   150   151    1
   121    43    44    1
   122    43    42    1
   123   146   147    2
   124   115   116    1
   125   115   108   am
   126    17    16    1
   127   116   117    1
   128    44    45   ar
   129   107   108    1
   130   107   110    1
   131    16    15    1
   132    39    42    1
   133    39    40    1
   134   151   152    2
   135    31    32    1
   136    31    34    1
   137   108   109    2
   138   111   110    1
   139   111   112    1
   140    32    33    2
   141    72    73    1
   142    75    74    2
   143    34    35    1
   144    34    36    1
   145    35    37    1
   146    40    41    2
   147    93    94    1
   148    93    92    1
   149   112   113    1
   150    94    88    1
   151    15    14    1
   152     8     9    1
   153     8     7    1
   154    78    80   ar
   155    78    77   ar
   156    74    73    1
   157    74    83   am
   158    73    76    1
   159    80    82   ar
   160    14    11    1
   161    76    77    1
   162    84    83    1
   163    84    87    1
   164    84    85    1
   165     6     7    1
   166     6     5    1
   167    92    89    1
   168   114   113    1
   169    77    79   ar
   170    88    85   am
   171    88    89    1
   172    13    12    2
   173    85    86    2
   174    82    81   ar
   175    11    12    1
   176    11    10    1
   177    89    90    1
   178     5     2    1
   179    79    81   ar
   180     2     3    1
   181     2     1    1
   182     4     3    2
   183    90    91    2
