@<TRIPOS>MOLECULE
tmp/3ii5A00.pdb
 215 201 0 0 0
SMALL
GASTEIGER

@<TRIPOS>ATOM
      1  N        -12.0450   12.6970   17.9130 N.3    16  ILE16      -0.1231
      2  CA       -12.7290   12.1450   16.7430 C.3    16  ILE16       0.1692
      3  C        -11.8000   11.5340   15.6890 C.2    16  ILE16       0.2592
      4  O        -12.2580   10.8240   14.7910 O.2    16  ILE16      -0.2718
      5  CB       -13.6520   13.1860   16.0700 C.3    16  ILE16       0.0266
      6  CG1      -12.8310   14.2810   15.3870 C.3    16  ILE16       0.0019
      7  CG2      -14.6190   13.7800   17.0820 C.3    16  ILE16       0.0020
      8  CD1      -13.6720   15.2780   14.6150 C.3    16  ILE16       0.0001
      9  N        -10.5020   11.8040   15.7940 N.am   17  GLY17      -0.1957
     10  CA        -9.5480   11.2770   14.8320 C.3    17  GLY17       0.1869
     11  C         -8.1090   11.3070   15.3140 C.2    17  GLY17       0.2309
     12  O         -7.6210   12.3380   15.7690 O.2    17  GLY17      -0.2863
     13  N         -7.4330   15.1940   16.1230 N.3    24  VAL24      -0.1245
     14  CA        -8.5610   16.1120   15.9510 C.3    24  VAL24       0.1561
     15  C         -9.7110   15.8520   16.9280 C.2    24  VAL24       0.2260
     16  O        -10.1950   14.7240   17.0580 O.2    24  VAL24      -0.2867
     17  CB        -9.1170   16.0670   14.5190 C.3    24  VAL24       0.0252
     18  CG1      -10.3140   16.9830   14.3960 C.3    24  VAL24       0.0019
     19  CG2       -8.0460   16.4610   13.5230 C.3    24  VAL24       0.0019
     20  N        -14.2120   22.1580   14.8770 N.3    34  ALA34      -0.1245
     21  CA       -13.2780   21.0450   14.8370 C.3    34  ALA34       0.1562
     22  C        -11.9020   21.6050   15.1680 C.2    34  ALA34       0.2260
     23  O        -11.5490   22.6950   14.7160 O.2    34  ALA34      -0.2867
     24  CB       -13.2820   20.3950   13.4730 C.3    34  ALA34       0.0290
     25  N         -7.8600   20.5400   15.1840 N.3    36  LYS36      -0.1245
     26  CA        -6.7300   19.6550   14.9240 C.3    36  LYS36       0.1561
     27  C         -5.5340   20.0940   15.7610 C.2    36  LYS36       0.2260
     28  O         -5.0060   21.1880   15.5770 O.2    36  LYS36      -0.2867
     29  CB        -6.3670   19.6660   13.4360 C.3    36  LYS36       0.0271
     30  CG        -5.2470   18.7030   13.0520 C.3    36  LYS36       0.0035
     31  CD        -4.5520   19.1160   11.7530 C.3    36  LYS36       0.0206
     32  CE        -5.2540   18.5480   10.5290 C.3    36  LYS36       0.1093
     33  NZ        -4.6480   19.0270    9.2550 N.3    36  LYS36      -0.1314
     34  N          0.4050   25.5800    6.3930 N.3    54  GLU54      -0.1245
     35  CA        -0.9820   25.1470    6.3050 C.3    54  GLU54       0.1567
     36  C         -1.9200   26.3090    6.6000 C.2    54  GLU54       0.2260
     37  O         -2.8170   26.6110    5.8120 O.2    54  GLU54      -0.2867
     38  CB        -1.2520   23.9960    7.2710 C.3    54  GLU54       0.0388
     39  CG        -2.6610   23.4360    7.1690 C.3    54  GLU54       0.1160
     40  CD        -2.8790   22.2320    8.0660 C.2    54  GLU54       0.3649
     41  OE1       -1.8930   21.7330    8.6490 O.co2  54  GLU54      -0.2457
     42  OE2       -4.0370   21.7830    8.1880 O.co2  54  GLU54      -0.2457
     43  N         -2.1580   28.8260    3.8790 N.3    57  VAL57      -0.1231
     44  CA        -2.9620   28.3950    2.7430 C.3    57  VAL57       0.1692
     45  C         -4.4400   28.5180    3.0820 C.2    57  VAL57       0.2591
     46  O         -5.2320   29.0130    2.2850 O.2    57  VAL57      -0.2718
     47  CB        -2.6470   26.9350    2.3640 C.3    57  VAL57       0.0266
     48  CG1       -3.3030   26.5620    1.0540 C.3    57  VAL57       0.0020
     49  CG2       -1.1570   26.7390    2.2660 C.3    57  VAL57       0.0020
     50  N         -4.8050   28.0680    4.2760 N.am   58  LEU58      -0.1980
     51  CA        -6.1960   28.0970    4.7090 C.3    58  LEU58       0.1596
     52  C         -6.7740   29.5100    4.7470 C.2    58  LEU58       0.2287
     53  O         -7.8800   29.7400    4.2530 O.2    58  LEU58      -0.2864
     54  CB        -6.3590   27.4100    6.0680 C.3    58  LEU58       0.0297
     55  CG        -6.4270   25.8840    6.0080 C.3    58  LEU58       0.0022
     56  CD1       -6.4680   25.2740    7.4020 C.3    58  LEU58       0.0001
     57  CD2       -7.6310   25.4420    5.1860 C.3    58  LEU58       0.0001
     58  N         -8.5090   31.1420    1.8600 N.3    61  THR61      -0.1218
     59  CA        -9.7130   30.5220    1.3220 C.3    61  THR61       0.1862
     60  C        -11.0240   31.0960    1.8640 C.2    61  THR61       0.2287
     61  O        -11.2400   31.1610    3.0720 O.2    61  THR61      -0.2866
     62  CB        -9.6910   28.9930    1.5290 C.3    61  THR61       0.1770
     63  OG1       -9.6090   28.6950    2.9300 O.3    61  THR61      -0.2211
     64  CG2       -8.5020   28.3830    0.8050 C.3    61  THR61       0.0375
     65  N        -15.1670   24.9910    0.2180 N.3    66  ILE66      -0.1231
     66  CA       -13.9130   24.7280    0.9000 C.3    66  ILE66       0.1692
     67  C        -14.1340   24.7610    2.4060 C.2    66  ILE66       0.2591
     68  O        -14.7760   25.6700    2.9220 O.2    66  ILE66      -0.2718
     69  CB       -12.8450   25.7570    0.5260 C.3    66  ILE66       0.0266
     70  CG1      -12.6100   25.7450   -0.9810 C.3    66  ILE66       0.0019
     71  CG2      -11.5470   25.4710    1.2590 C.3    66  ILE66       0.0020
     72  CD1      -12.0770   24.4330   -1.5050 C.3    66  ILE66       0.0001
     73  N        -13.6140   23.7570    3.1050 N.am   67  LEU67      -0.1980
     74  CA       -13.6970   23.7160    4.5580 C.3    67  LEU67       0.1596
     75  C        -13.3650   25.0890    5.1190 C.2    67  LEU67       0.2287
     76  O        -12.3470   25.6820    4.7600 O.2    67  LEU67      -0.2864
     77  CB       -12.7240   22.6840    5.1220 C.3    67  LEU67       0.0297
     78  CG       -12.9230   22.3850    6.6090 C.3    67  LEU67       0.0022
     79  CD1      -14.2460   21.6520    6.8270 C.3    67  LEU67       0.0001
     80  CD2      -11.7590   21.5910    7.1760 C.3    67  LEU67       0.0001
     81  N         -5.2030   24.1210   14.8740 N.3    80  ILE80      -0.1245
     82  CA        -5.9710   24.8080   13.8460 C.3    80  ILE80       0.1561
     83  C         -7.4540   24.4750   13.9820 C.2    80  ILE80       0.2260
     84  O         -7.8430   23.3120   14.1200 O.2    80  ILE80      -0.2867
     85  CB        -5.4730   24.4740   12.4340 C.3    80  ILE80       0.0252
     86  CG1       -3.9860   24.8160   12.3100 C.3    80  ILE80       0.0019
     87  CG2       -6.2890   25.2300   11.3980 C.3    80  ILE80       0.0019
     88  CD1       -3.3170   24.2370   11.0780 C.3    80  ILE80       0.0001
     89  N        -11.4290   24.7430   12.6670 N.3    82  THR82      -0.1218
     90  CA       -12.2850   24.9040   11.5080 C.3    82  THR82       0.1862
     91  C        -13.7440   24.7110   11.8740 C.2    82  THR82       0.2287
     92  O        -14.0830   24.1910   12.9390 O.2    82  THR82      -0.2866
     93  CB       -11.9410   23.9030   10.3800 C.3    82  THR82       0.1770
     94  OG1      -12.0800   22.5650   10.8660 O.3    82  THR82      -0.2211
     95  CG2      -10.5220   24.1030    9.8850 C.3    82  THR82       0.0375
     96  N        -17.2680   23.0590   12.0260 N.3    84  TRP84      -0.1227
     97  CA       -17.5940   21.6830   12.3910 C.3    84  TRP84       0.1737
     98  C        -18.4790   21.0230   11.3430 C.2    84  TRP84       0.2595
     99  O        -19.5890   21.4780   11.0980 O.2    84  TRP84      -0.2718
    100  CB       -18.3200   21.6470   13.7310 C.3    84  TRP84       0.0564
    101  CG       -18.9140   20.3130   14.0190 C.ar   84  TRP84       0.0003
    102  CD1      -20.2230   19.9560   13.9040 C.ar   84  TRP84       0.0946
    103  CD2      -18.2130   19.1390   14.4560 C.ar   84  TRP84       0.0152
    104  NE1      -20.3860   18.6330   14.2490 N.ar   84  TRP84      -0.2442
    105  CE2      -19.1670   18.1100   14.5920 C.ar   84  TRP84       0.0810
    106  CE3      -16.8730   18.8610   14.7450 C.ar   84  TRP84       0.0012
    107  CZ2      -18.8260   16.8280   15.0060 C.ar   84  TRP84       0.0191
    108  CZ3      -16.5360   17.5870   15.1540 C.ar   84  TRP84       0.0001
    109  CH2      -17.5090   16.5860   15.2820 C.ar   84  TRP84       0.0015
    110  N        -17.9980   19.9430   10.7370 N.am   85  CYS85      -0.1970
    111  CA       -18.7620   19.2510    9.6980 C.3    85  CYS85       0.1712
    112  C        -19.6330   18.1370   10.2750 C.2    85  CYS85       0.2296
    113  O        -19.1270   17.1870   10.8710 O.2    85  CYS85      -0.2864
    114  CB       -17.8260   18.6530    8.6430 C.3    85  CYS85       0.0983
    115  SG       -16.1440   19.2990    8.6460 S.3    85  CYS85      -0.0798
    116  N        -17.6950   11.7070    5.1140 N.3    89  SER89      -0.1217
    117  CA       -16.9330   11.9170    3.8870 C.3    89  SER89       0.1889
    118  C        -17.6200   11.1900    2.7450 C.2    89  SER89       0.2288
    119  O        -18.4440   10.3080    2.9740 O.2    89  SER89      -0.2866
    120  CB       -15.4980   11.4100    4.0370 C.3    89  SER89       0.2089
    121  OG       -15.4380   10.0020    3.8990 O.3    89  SER89      -0.2183
    122  N        -16.8790    7.5110    2.6830 N.3    92  HIS92      -0.1241
    123  CA       -17.6840    6.7910    3.6530 C.3    92  HIS92       0.1621
    124  C        -19.0270    6.4010    3.0640 C.2    92  HIS92       0.2264
    125  O        -19.4150    5.2380    3.1070 O.2    92  HIS92      -0.2867
    126  CB       -17.8880    7.6480    4.8990 C.3    92  HIS92       0.0745
    127  CG       -18.3610    6.8770    6.0890 C.ar   92  HIS92       0.0817
    128  ND1      -19.6940    6.7690    6.4260 N.ar   92  HIS92      -0.2268
    129  CD2      -17.6770    6.1730    7.0220 C.ar   92  HIS92       0.1154
    130  CE1      -19.8110    6.0350    7.5190 C.ar   92  HIS92       0.1986
    131  NE2      -18.6020    5.6590    7.8990 N.ar   92  HIS92      -0.2212
    132  N         -9.8440   26.8220   -5.8860 N.3   120  LEU120     -0.1245
    133  CA        -8.5150   26.5640   -5.3410 C.3   120  LEU120      0.1561
    134  C         -7.4080   26.8740   -6.3480 C.2   120  LEU120      0.2260
    135  O         -6.3700   27.4360   -6.0040 O.2   120  LEU120     -0.2867
    136  CB        -8.4020   25.1160   -4.8630 C.3   120  LEU120      0.0270
    137  CG        -8.9330   24.8160   -3.4600 C.3   120  LEU120      0.0019
    138  CD1       -8.4700   23.4430   -3.0010 C.3   120  LEU120      0.0001
    139  CD2       -8.4800   25.8830   -2.4750 C.3   120  LEU120      0.0001
    140  N         -3.6820   27.4220   -5.8540 N.3   125  ILE125     -0.1245
    141  CA        -3.4920   26.3630   -4.8720 C.3   125  ILE125      0.1561
    142  C         -3.6880   24.9800   -5.4890 C.2   125  ILE125      0.2260
    143  O         -4.7780   24.6480   -5.9580 O.2   125  ILE125     -0.2867
    144  CB        -4.4560   26.5310   -3.6890 C.3   125  ILE125      0.0252
    145  CG1       -4.1750   27.8520   -2.9730 C.3   125  ILE125      0.0019
    146  CG2       -4.3340   25.3590   -2.7270 C.3   125  ILE125      0.0019
    147  CD1       -5.2120   28.2230   -1.9350 C.3   125  ILE125      0.0001
    148  N         -4.0170   21.2040   -4.7280 N.3   127  HIS127     -0.1241
    149  CA        -4.3710   20.3680   -3.5860 C.3   127  HIS127      0.1621
    150  C         -3.3580   19.2410   -3.3700 C.2   127  HIS127      0.2264
    151  O         -2.8000   19.1020   -2.2770 O.2   127  HIS127     -0.2867
    152  CB        -5.7800   19.7960   -3.7660 C.3   127  HIS127      0.0745
    153  CG        -6.3600   19.2060   -2.5180 C.ar  127  HIS127      0.0817
    154  ND1       -5.8110   18.1100   -1.8870 N.ar  127  HIS127     -0.2268
    155  CD2       -7.4450   19.5540   -1.7880 C.ar  127  HIS127      0.1154
    156  CE1       -6.5290   17.8130   -0.8190 C.ar  127  HIS127      0.1986
    157  NE2       -7.5270   18.6740   -0.7370 N.ar  127  HIS127     -0.2212
    158  N        -12.0330   10.6980    0.2190 N.3   133  ASN133     -0.1240
    159  CA       -11.8030   10.8720    1.6490 C.3   133  ASN133      0.1653
    160  C        -11.7940   12.3400    2.0610 C.2   133  ASN133      0.2266
    161  O        -12.2680   12.6930    3.1400 O.2   133  ASN133     -0.2867
    162  CB       -10.4770   10.2320    2.0540 C.3   133  ASN133      0.1155
    163  CG       -10.5440    8.7240    2.0910 C.2   133  ASN133      0.2627
    164  OD1      -10.0090    8.0410    1.2090 O.2   133  ASN133     -0.2716
    165  ND2      -11.2000    8.1890    3.1210 N.am  133  ASN133     -0.0877
    166  N        -16.0560   16.2130    2.1600 N.3   136  PHE136     -0.1241
    167  CA       -17.0960   16.0170    3.1610 C.3   136  PHE136      0.1605
    168  C        -18.4700   16.4410    2.6550 C.2   136  PHE136      0.2264
    169  O        -18.6190   17.4940    2.0410 O.2   136  PHE136     -0.2867
    170  CB       -16.7600   16.7630    4.4500 C.3   136  PHE136      0.0534
    171  CG       -17.4050   16.1740    5.6690 C.ar  136  PHE136     -0.0203
    172  CD1      -16.7320   15.2350    6.4360 C.ar  136  PHE136     -0.0042
    173  CD2      -18.6870   16.5480    6.0440 C.ar  136  PHE136     -0.0042
    174  CE1      -17.3220   14.6830    7.5630 C.ar  136  PHE136     -0.0003
    175  CE2      -19.2850   16.0010    7.1680 C.ar  136  PHE136     -0.0003
    176  CZ       -18.5990   15.0650    7.9290 C.ar  136  PHE136     -0.0000
    177  N        -14.5220   20.6680    0.6130 N.3   145  ILE145     -0.1231
    178  CA       -13.2130   20.0910    0.3460 C.3   145  ILE145      0.1692
    179  C        -12.2440   20.4820    1.4510 C.2   145  ILE145      0.2593
    180  O        -12.2670   21.6150    1.9310 O.2   145  ILE145     -0.2718
    181  CB       -12.6420   20.5810   -0.9910 C.3   145  ILE145      0.0266
    182  CG1      -13.5630   20.1880   -2.1480 C.3   145  ILE145      0.0019
    183  CG2      -11.2400   20.0350   -1.1950 C.3   145  ILE145      0.0020
    184  CD1      -13.2230   20.8670   -3.4570 C.3   145  ILE145      0.0001
    185  N        -11.3920   19.5460    1.8500 N.am  146  GLY146     -0.1942
    186  CA       -10.3500   19.8250    2.8220 C.3   146  GLY146      0.2014
    187  C         -9.2000   18.8510    2.6670 C.2   146  GLY146      0.2639
    188  O         -9.1100   18.1500    1.6620 O.2   146  GLY146     -0.2714
    189  N         -8.3110   18.8110    3.6520 N.am  147  ASP147     -0.1957
    190  CA        -7.3010   17.7610    3.7100 C.3   147  ASP147      0.1840
    191  C         -7.3370   17.1000    5.0770 C.2   147  ASP147      0.2622
    192  O         -6.7820   17.6180    6.0450 O.2   147  ASP147     -0.2715
    193  CB        -5.9010   18.2890    3.3960 C.3   147  ASP147      0.1450
    194  CG        -4.9690   17.1920    2.8950 C.2   147  ASP147      0.3671
    195  OD1       -4.9730   16.0830    3.4820 O.co2 147  ASP147     -0.2456
    196  OD2       -4.2460   17.4360    1.9020 O.co2 147  ASP147     -0.2456
    197  N         -7.9930   15.9460    5.1410 N.am  148  PHE148     -0.1974
    198  CA        -8.2980   15.3050    6.4150 C.3   148  PHE148      0.1639
    199  C         -7.3220   14.1980    6.8020 C.2   148  PHE148      0.2290
    200  O         -7.5880   13.4110    7.7130 O.2   148  PHE148     -0.2864
    201  CB        -9.7210   14.7560    6.3910 C.3   148  PHE148      0.0560
    202  CG       -10.7490   15.7700    6.0010 C.ar  148  PHE148     -0.0200
    203  CD1      -11.5500   15.5730    4.8960 C.ar  148  PHE148     -0.0042
    204  CD2      -10.9140   16.9220    6.7390 C.ar  148  PHE148     -0.0042
    205  CE1      -12.5070   16.5060    4.5400 C.ar  148  PHE148     -0.0003
    206  CE2      -11.8650   17.8560    6.3840 C.ar  148  PHE148     -0.0003
    207  CZ       -12.6620   17.6480    5.2830 C.ar  148  PHE148     -0.0000
    208  N         -4.1870   12.6200    8.5510 N.3   150  LEU150     -0.1245
    209  CA        -3.4080   12.8980    9.7500 C.3   150  LEU150      0.1561
    210  C         -1.9930   12.3130    9.6580 C.2   150  LEU150      0.2260
    211  O         -1.3170   12.1170   10.6740 O.2   150  LEU150     -0.2867
    212  CB        -4.1490   12.3930   10.9940 C.3   150  LEU150      0.0270
    213  CG        -5.5120   13.0540   11.2570 C.3   150  LEU150      0.0019
    214  CD1       -6.1680   12.5020   12.5090 C.3   150  LEU150      0.0001
    215  CD2       -5.3910   14.5650   11.3570 C.3   150  LEU150      0.0001
@<TRIPOS>BOND
     1   134   135    2
     2   134   133    1
     3   143   142    2
     4   132   133    1
     5   140   141    1
     6   142   141    1
     7   133   136    1
     8   141   144    1
     9   136   137    1
    10   148   149    1
    11   152   149    1
    12   152   153    1
    13   144   145    1
    14   144   146    1
    15   149   150    1
    16   137   138    1
    17   137   139    1
    18   184   182    1
    19   150   151    2
    20   145   147    1
    21   153   154   ar
    22   153   155   ar
    23   182   181    1
    24   154   156   ar
    25   155   157   ar
    26    72    70    1
    27   183   181    1
    28   181   178    1
    29    70    69    1
    30   156   157   ar
    31    65    66    1
    32   158   159    1
    33   178   177    1
    34   178   179    1
    35    69    66    1
    36    69    71    1
    37    64    62    1
    38    66    67    1
    39    48    47    1
    40   164   163    2
    41    59    62    1
    42    59    58    1
    43    59    60    1
    44   179   185   am
    45   179   180    2
    46    62    63    1
    47   159   162    1
    48   159   160    1
    49   188   187    2
    50   185   186    1
    51    60    61    2
    52   196   194   ar
    53   169   168    2
    54   162   163    1
    55   160   161    2
    56   163   165   am
    57   166   167    1
    58    49    47    1
    59    46    45    2
    60    47    44    1
    61    67    68    2
    62    67    73   am
    63   168   167    1
    64   187   186    1
    65   187   189   am
    66   122   123    1
    67    44    45    1
    68    44    43    1
    69   118   119    2
    70   118   117    1
    71   194   193    1
    72   194   195   ar
    73   124   125    2
    74   124   123    1
    75    45    50   am
    76    73    74    1
    77   167   170    1
    78   193   190    1
    79   189   190    1
    80   123   126    1
    81   190   191    1
    82   117   120    1
    83   117   116    1
    84   121   120    1
    85    53    52    2
    86    50    51    1
    87   170   171    1
    88   205   203   ar
    89   205   207   ar
    90    74    75    1
    91    74    77    1
    92    51    52    1
    93    51    54    1
    94    76    75    2
    95   203   202   ar
    96   126   127    1
    97   191   197   am
    98   191   192    2
    99    77    78    1
   100   197   198    1
   101    57    55    1
   102   207   206   ar
   103   171   173   ar
   104   171   172   ar
   105    37    36    2
   106   202   201    1
   107   202   204   ar
   108    55    54    1
   109    55    56    1
   110   173   175   ar
   111   127   128   ar
   112   127   129   ar
   113    35    34    1
   114    35    36    1
   115    35    38    1
   116   206   204   ar
   117   201   198    1
   118   198   199    1
   119   128   130   ar
   120   172   174   ar
   121    78    79    1
   122    78    80    1
   123   199   200    2
   124   129   131   ar
   125   175   176   ar
   126    39    38    1
   127    39    40    1
   128   130   131   ar
   129   174   176   ar
   130    40    42   ar
   131    40    41   ar
   132   208   209    1
   133   114   115    1
   134   114   111    1
   135    33    32    1
   136   210   209    1
   137   210   211    2
   138   111   112    1
   139   111   110    1
   140   209   212    1
   141    95    93    1
   142   112   113    2
   143    93    94    1
   144    93    90    1
   145    32    31    1
   146   110    98   am
   147   212   213    1
   148    88    86    1
   149    99    98    2
   150   213   215    1
   151   213   214    1
   152    98    97    1
   153    87    85    1
   154    90    91    1
   155    90    89    1
   156    31    30    1
   157    91    92    2
   158    96    97    1
   159    86    85    1
   160    97   100    1
   161    85    82    1
   162    30    29    1
   163    29    26    1
   164    24    21    1
   165    19    17    1
   166   100   101    1
   167    82    83    1
   168    82    81    1
   169   102   101   ar
   170   102   104   ar
   171    83    84    2
   172   101   103   ar
   173   104   105   ar
   174    18    17    1
   175   103   105   ar
   176   103   106   ar
   177    17    14    1
   178   105   107   ar
   179     8     6    1
   180    23    22    2
   181   106   108   ar
   182     4     3    2
   183    10    11    1
   184    10     9    1
   185    21    20    1
   186    21    22    1
   187    26    25    1
   188    26    27    1
   189   107   109   ar
   190   108   109   ar
   191    11    12    2
   192     6     5    1
   193    28    27    2
   194     3     9   am
   195     3     2    1
   196    14    13    1
   197    14    15    1
   198     5     2    1
   199     5     7    1
   200     2     1    1
   201    15    16    2
