@<TRIPOS>MOLECULE
tmp/3ii9B01.pdb
 161 153 0 0 0
SMALL
GASTEIGER

@<TRIPOS>ATOM
      1  N         -2.2290   -9.3160   16.6130 N.3    94  ARG94      -0.1231
      2  CA        -1.5170  -10.5430   16.8710 C.3    94  ARG94       0.1694
      3  C         -1.7940  -11.0150   18.2950 C.2    94  ARG94       0.2592
      4  O         -1.9740  -12.2200   18.5250 O.2    94  ARG94      -0.2718
      5  CB        -0.0080  -10.3560   16.6310 C.3    94  ARG94       0.0321
      6  CG         0.7950  -11.6530   16.6390 C.3    94  ARG94       0.0489
      7  CD         1.3000  -12.0550   18.0020 C.3    94  ARG94       0.2205
      8  NE         2.0090  -10.9610   18.6450 N.pl3  94  ARG94      -0.0865
      9  CZ         1.9300  -10.6540   19.9330 C.cat  94  ARG94       0.5346
     10  NH1        2.5910   -9.6010   20.3770 N.pl3  94  ARG94       0.1354
     11  NH2        1.1990  -11.3840   20.7790 N.pl3  94  ARG94       0.1354
     12  N         -1.8420  -10.0820   19.2410 N.am   95  SER95      -0.1952
     13  CA        -2.0620  -10.4260   20.6490 C.3    95  SER95       0.1924
     14  C         -3.4100  -11.1450   20.8300 C.2    95  SER95       0.2314
     15  O         -3.4890  -12.1430   21.5340 O.2    95  SER95      -0.2863
     16  CB        -2.0020   -9.1950   21.5350 C.3    95  SER95       0.2116
     17  OG        -2.1010   -9.5690   22.9120 O.3    95  SER95      -0.2180
     18  N         -2.8350  -14.6440   19.5630 N.3    98  SER98      -0.1202
     19  CA        -1.9570  -15.3470   20.5040 C.3    98  SER98       0.2020
     20  C         -2.7490  -15.9250   21.6660 C.2    98  SER98       0.2618
     21  O         -2.5450  -17.0790   22.0530 O.2    98  SER98      -0.2717
     22  CB        -0.9070  -14.4010   21.0840 C.3    98  SER98       0.2103
     23  OG         0.0200  -14.0140   20.1140 O.3    98  SER98      -0.2182
     24  N         -3.6400  -15.1060   22.2190 N.am   99  VAL99      -0.1979
     25  CA        -4.4940  -15.5350   23.3200 C.3    99  VAL99       0.1595
     26  C         -5.3990  -16.6650   22.8620 C.2    99  VAL99       0.2287
     27  O         -5.4330  -17.7270   23.4840 O.2    99  VAL99      -0.2864
     28  CB        -5.3620  -14.3810   23.8960 C.3    99  VAL99       0.0276
     29  CG1       -6.3850  -14.9170   24.8830 C.3    99  VAL99       0.0022
     30  CG2       -4.4770  -13.3030   24.5380 C.3    99  VAL99       0.0022
     31  N         -3.0590  -19.5460   24.3610 N.3   103  LEU103     -0.1245
     32  CA        -3.4210  -19.4360   25.7580 C.3   103  LEU103      0.1561
     33  C         -4.7690  -20.0710   26.0710 C.2   103  LEU103      0.2260
     34  O         -5.0630  -20.3280   27.2290 O.2   103  LEU103     -0.2867
     35  CB        -3.3900  -17.9720   26.1890 C.3   103  LEU103      0.0270
     36  CG        -2.0430  -17.2620   26.0570 C.3   103  LEU103      0.0019
     37  CD1       -2.1640  -15.8690   26.6970 C.3   103  LEU103      0.0001
     38  CD2       -0.8830  -18.0670   26.7000 C.3   103  LEU103      0.0001
     39  N         -7.2900  -15.8180   29.0400 N.3   133  PHE133     -0.1241
     40  CA        -6.3750  -16.6050   29.8840 C.3   133  PHE133      0.1605
     41  C         -6.0870  -15.7910   31.1400 C.2   133  PHE133      0.2264
     42  O         -5.4990  -14.7130   31.0520 O.2   133  PHE133     -0.2867
     43  CB        -5.0990  -16.8170   29.0640 C.3   133  PHE133      0.0534
     44  CG        -3.9620  -17.5420   29.7620 C.ar  133  PHE133     -0.0203
     45  CD1       -2.9240  -16.8340   30.3490 C.ar  133  PHE133     -0.0042
     46  CD2       -3.8560  -18.9260   29.6840 C.ar  133  PHE133     -0.0042
     47  CE1       -1.8420  -17.4860   30.9110 C.ar  133  PHE133     -0.0003
     48  CE2       -2.7600  -19.5910   30.2390 C.ar  133  PHE133     -0.0003
     49  CZ        -1.7670  -18.8710   30.8610 C.ar  133  PHE133     -0.0000
     50  N         -4.1210  -15.6310   34.4040 N.3   135  LEU135     -0.1231
     51  CA        -2.9780  -16.0600   35.1950 C.3   135  LEU135      0.1693
     52  C         -2.4710  -14.9470   36.0990 C.2   135  LEU135      0.2592
     53  O         -2.3480  -15.1310   37.3070 O.2   135  LEU135     -0.2718
     54  CB        -1.8430  -16.5210   34.2640 C.3   135  LEU135      0.0284
     55  CG        -0.5460  -16.9440   34.9630 C.3   135  LEU135      0.0019
     56  CD1       -0.8000  -18.0340   35.9990 C.3   135  LEU135      0.0001
     57  CD2        0.4610  -17.4070   33.9240 C.3   135  LEU135      0.0001
     58  N         -2.1660  -13.8050   35.4910 N.am  136  THR136     -0.1953
     59  CA        -1.5290  -12.6740   36.1630 C.3   136  THR136      0.1897
     60  C         -2.4060  -12.0480   37.2450 C.2   136  THR136      0.2313
     61  O         -3.5920  -11.8080   37.0230 O.2   136  THR136     -0.2863
     62  CB        -1.2070  -11.5740   35.1350 C.3   136  THR136      0.1794
     63  OG1       -0.4070  -12.1350   34.0840 O.3   136  THR136     -0.2208
     64  CG2       -0.4600  -10.4130   35.7860 C.3   136  THR136      0.0378
     65  N         -4.8550   -7.3540   33.6580 N.3   161  TRP161     -0.1227
     66  CA        -4.2180   -7.2080   32.3360 C.3   161  TRP161      0.1737
     67  C         -4.4460   -8.4320   31.4560 C.2   161  TRP161      0.2595
     68  O         -3.5050   -9.0450   30.9310 O.2   161  TRP161     -0.2718
     69  CB        -2.7260   -6.8930   32.4580 C.3   161  TRP161      0.0564
     70  CG        -2.4730   -5.5470   33.0410 C.ar  161  TRP161      0.0003
     71  CD1       -1.9800   -5.2680   34.2790 C.ar  161  TRP161      0.0946
     72  CD2       -2.7070   -4.2870   32.4060 C.ar  161  TRP161      0.0152
     73  NE1       -1.8890   -3.9070   34.4590 N.ar  161  TRP161     -0.2442
     74  CE2       -2.3290   -3.2830   33.3200 C.ar  161  TRP161      0.0810
     75  CE3       -3.1850   -3.9080   31.1440 C.ar  161  TRP161      0.0012
     76  CZ2       -2.4230   -1.9270   33.0180 C.ar  161  TRP161      0.0191
     77  CZ3       -3.2830   -2.5550   30.8490 C.ar  161  TRP161      0.0001
     78  CH2       -2.9080   -1.5840   31.7840 C.ar  161  TRP161      0.0015
     79  N         -5.7160   -8.7890   31.3120 N.am  162  ILE162     -0.1966
     80  CA        -6.1160   -9.9870   30.5980 C.3   162  ILE162      0.1727
     81  C         -6.6460   -9.6020   29.2270 C.2   162  ILE162      0.2616
     82  O         -7.7440   -9.0400   29.0960 O.2   162  ILE162     -0.2715
     83  CB        -7.2070  -10.7580   31.3780 C.3   162  ILE162      0.0290
     84  CG1       -6.7550  -11.0290   32.8180 C.3   162  ILE162      0.0022
     85  CG2       -7.5570  -12.0830   30.6680 C.3   162  ILE162      0.0023
     86  CD1       -5.4170  -11.7810   32.9200 C.3   162  ILE162      0.0001
     87  N         -5.8580   -9.9010   28.2020 N.am  163  THR163     -0.1951
     88  CA        -6.2480   -9.6120   26.8310 C.3   163  THR163      0.1897
     89  C         -7.5050  -10.3920   26.4710 C.2   163  THR163      0.2313
     90  O         -7.6070  -11.5660   26.7930 O.2   163  THR163     -0.2863
     91  CB        -5.1080   -9.9200   25.8790 C.3   163  THR163      0.1794
     92  OG1       -3.9910   -9.0870   26.2250 O.3   163  THR163     -0.2208
     93  CG2       -5.5180   -9.6680   24.4230 C.3   163  THR163      0.0378
     94  N         -0.7440   -1.2970   22.3270 N.3   205  LEU205     -0.1245
     95  CA        -1.7030   -2.3780   22.0630 C.3   205  LEU205      0.1561
     96  C         -3.1490   -1.8910   22.1570 C.2   205  LEU205      0.2260
     97  O         -4.0330   -2.6280   22.5890 O.2   205  LEU205     -0.2867
     98  CB        -1.4760   -3.5700   23.0120 C.3   205  LEU205      0.0270
     99  CG        -0.0640   -4.1770   23.0010 C.3   205  LEU205      0.0019
    100  CD1        0.0140   -5.4180   23.8980 C.3   205  LEU205      0.0001
    101  CD2        0.3610   -4.5340   21.5820 C.3   205  LEU205      0.0001
    102  N          2.2650  -20.4320   27.9870 N.3   239  LEU239     -0.1245
    103  CA         3.1550  -19.2860   27.7720 C.3   239  LEU239      0.1561
    104  C          4.2510  -19.6080   26.7490 C.2   239  LEU239      0.2260
    105  O          4.5930  -18.7740   25.9260 O.2   239  LEU239     -0.2867
    106  CB         3.7760  -18.8100   29.0870 C.3   239  LEU239      0.0270
    107  CG         2.7920  -18.2620   30.1220 C.3   239  LEU239      0.0019
    108  CD1        3.5580  -17.9040   31.4050 C.3   239  LEU239      0.0001
    109  CD2        2.0040  -17.0850   29.6030 C.3   239  LEU239      0.0001
    110  N          2.7980  -19.3240   23.2690 N.3   242  ALA242     -0.1231
    111  CA         2.5310  -17.9320   22.9350 C.3   242  ALA242      0.1694
    112  C          3.8320  -17.1910   22.6080 C.2   242  ALA242      0.2591
    113  O          3.8790  -16.3990   21.6650 O.2   242  ALA242     -0.2718
    114  CB         1.8150  -17.2450   24.0800 C.3   242  ALA242      0.0304
    115  N          4.8690  -17.4650   23.3890 N.am  243  ARG243     -0.1980
    116  CA         6.1830  -16.8240   23.2130 C.3   243  ARG243      0.1597
    117  C          6.7870  -17.1500   21.8570 C.2   243  ARG243      0.2287
    118  O          7.4290  -16.2990   21.2360 O.2   243  ARG243     -0.2864
    119  CB         7.1300  -17.2220   24.3370 C.3   243  ARG243      0.0334
    120  CG         6.8040  -16.5290   25.6470 C.3   243  ARG243      0.0492
    121  CD         7.6400  -17.0330   26.7680 C.3   243  ARG243      0.2205
    122  NE         7.2280  -16.4810   28.0560 N.pl3 243  ARG243     -0.0865
    123  CZ         7.3940  -17.1020   29.2210 C.cat 243  ARG243      0.5346
    124  NH1        7.9510  -18.3000   29.2610 N.pl3 243  ARG243      0.1354
    125  NH2        6.9850  -16.5350   30.3490 N.pl3 243  ARG243      0.1354
    126  N          5.0090  -14.9000   19.3380 N.3   246  ILE246     -0.1245
    127  CA         5.5000  -13.5390   19.5140 C.3   246  ILE246      0.1561
    128  C          6.8760  -13.3150   18.8580 C.2   246  ILE246      0.2260
    129  O          7.1210  -12.2470   18.2700 O.2   246  ILE246     -0.2867
    130  CB         5.5300  -13.1600   21.0020 C.3   246  ILE246      0.0252
    131  CG1        4.0980  -13.0890   21.5440 C.3   246  ILE246      0.0019
    132  CG2        6.2140  -11.8140   21.2000 C.3   246  ILE246      0.0019
    133  CD1        4.0170  -13.0960   23.0630 C.3   246  ILE246      0.0001
    134  N          5.0980   -5.0200   24.2730 N.3   354  VAL354     -0.1245
    135  CA         5.3930   -6.4280   24.0220 C.3   354  VAL354      0.1561
    136  C          6.6920   -6.8400   24.6980 C.2   354  VAL354      0.2260
    137  O          6.8050   -7.9380   25.2450 O.2   354  VAL354     -0.2867
    138  CB         5.4600   -6.7160   22.4990 C.3   354  VAL354      0.0252
    139  CG1        5.9320   -8.1390   22.2260 C.3   354  VAL354      0.0019
    140  CG2        4.0790   -6.4980   21.8670 C.3   354  VAL354      0.0019
    141  N          5.8610   -6.8720   28.6040 N.3   357  TYR357     -0.1227
    142  CA         4.5650   -7.4770   28.9670 C.3   357  TYR357      0.1736
    143  C          4.6810   -8.5430   30.0590 C.2   357  TYR357      0.2595
    144  O          3.8570   -8.5850   30.9780 O.2   357  TYR357     -0.2718
    145  CB         3.8810   -8.0890   27.7300 C.3   357  TYR357      0.0548
    146  CG         2.3990   -8.3810   27.9040 C.ar  357  TYR357     -0.0200
    147  CD1        1.4340   -7.4490   27.5200 C.ar  357  TYR357     -0.0009
    148  CD2        1.9610   -9.5920   28.4420 C.ar  357  TYR357     -0.0009
    149  CE1        0.0770   -7.7100   27.6730 C.ar  357  TYR357      0.0417
    150  CE2        0.6050   -9.8610   28.5990 C.ar  357  TYR357      0.0417
    151  CZ        -0.3310   -8.9160   28.2120 C.ar  357  TYR357      0.1957
    152  OH        -1.6720   -9.1740   28.3630 O.3   357  TYR357     -0.2866
    153  N          5.6910   -9.3990   29.9360 N.am  358  GLU358     -0.1979
    154  CA         5.9550  -10.4590   30.9110 C.3   358  GLU358      0.1602
    155  C          6.5810   -9.8960   32.1880 C.2   358  GLU358      0.2287
    156  O          6.2740  -10.3510   33.2900 O.2   358  GLU358     -0.2864
    157  CB         6.8810  -11.5170   30.3070 C.3   358  GLU358      0.0415
    158  CG         6.2610  -12.1690   29.0820 C.3   358  GLU358      0.1163
    159  CD         6.7810  -11.5210   27.8120 C.2   358  GLU358      0.3649
    160  OE1        7.5520  -10.5370   27.8730 O.co2 358  GLU358     -0.2457
    161  OE2        6.4190  -12.0220   26.7270 O.co2 358  GLU358     -0.2457
@<TRIPOS>BOND
     1     1     2    1
     2     5     6    1
     3     5     2    1
     4     6     7    1
     5     2     3    1
     6     7     8    1
     7   129   128    2
     8     3     4    2
     9     3    12   am
    10     8     9    2
    11   128   127    1
    12    12    13    1
    13   126   127    1
    14   127   130    1
    15    18    19    1
    16     9    10    1
    17     9    11    1
    18    23    22    1
    19    19    22    1
    20    19    20    1
    21    13    14    1
    22    13    16    1
    23    14    15    2
    24   130   132    1
    25   130   131    1
    26   118   117    2
    27    16    17    1
    28   131   133    1
    29   101    99    1
    30   113   112    2
    31    20    21    2
    32    20    24   am
    33   117   116    1
    34   140   138    1
    35    95    96    1
    36    95    94    1
    37    95    98    1
    38    96    97    2
    39    24    25    1
    40   139   138    1
    41   138   135    1
    42   112   111    1
    43   112   115   am
    44    26    25    1
    45    26    27    2
    46   111   110    1
    47   111   114    1
    48    99    98    1
    49    99   100    1
    50   116   115    1
    51   116   119    1
    52    25    28    1
    53    28    30    1
    54    28    29    1
    55   135   134    1
    56   135   136    1
    57   119   120    1
    58    31    32    1
    59    93    91    1
    60   136   137    2
    61   120   121    1
    62    32    33    1
    63    32    35    1
    64    91    92    1
    65    91    88    1
    66   105   104    2
    67    36    35    1
    68    36    37    1
    69    36    38    1
    70    33    34    2
    71    89    90    2
    72    89    88    1
    73   161   159   ar
    74   104   103    1
    75   121   122    1
    76    88    87    1
    77   147   149   ar
    78   147   146   ar
    79   149   151   ar
    80   145   146    1
    81   145   142    1
    82   103   102    1
    83   103   106    1
    84   159   160   ar
    85   159   158    1
    86   146   148   ar
    87   122   123    2
    88    87    81   am
    89   151   152    1
    90   151   150   ar
    91   148   150   ar
    92   141   142    1
    93   142   143    1
    94    39    40    1
    95    43    44    1
    96    43    40    1
    97   158   157    1
    98   106   107    1
    99    82    81    2
   100   123   124    1
   101   123   125    1
   102    81    80    1
   103   109   107    1
   104    46    44   ar
   105    46    48   ar
   106    44    45   ar
   107    40    41    1
   108   153   143   am
   109   153   154    1
   110   143   144    2
   111   107   108    1
   112    48    49   ar
   113   157   154    1
   114    45    47   ar
   115    80    79    1
   116    80    83    1
   117    85    83    1
   118    77    75   ar
   119    77    78   ar
   120    49    47   ar
   121   154   155    1
   122    68    67    2
   123    42    41    2
   124    75    72   ar
   125    79    67   am
   126    83    84    1
   127    67    66    1
   128    78    76   ar
   129   155   156    2
   130    66    69    1
   131    66    65    1
   132    72    70   ar
   133    72    74   ar
   134    69    70    1
   135    84    86    1
   136    76    74   ar
   137    70    71   ar
   138    74    73   ar
   139    57    55    1
   140    63    62    1
   141    54    55    1
   142    54    51    1
   143    71    73   ar
   144    50    51    1
   145    55    56    1
   146    62    64    1
   147    62    59    1
   148    51    52    1
   149    58    52   am
   150    58    59    1
   151    52    53    2
   152    59    60    1
   153    61    60    2
