@<TRIPOS>MOLECULE
tmp/3iifC00.pdb
 206 199 0 0 0
SMALL
GASTEIGER

@<TRIPOS>ATOM
      1  N         26.9380    1.1550   24.5890 N.3    22  ALA22      -0.1231
      2  CA        27.3600    2.4510   25.1130 C.3    22  ALA22       0.1694
      3  C         26.1420    3.3440   25.2870 C.2    22  ALA22       0.2592
      4  O         25.0670    3.0950   24.7200 O.2    22  ALA22      -0.2718
      5  CB        28.3770    3.1420   24.1660 C.3    22  ALA22       0.0304
      6  N         26.3160    4.3550   26.1320 N.am   23  ASP23      -0.1960
      7  CA        25.4140    5.4990   26.2200 C.3    23  ASP23       0.1840
      8  C         25.7960    6.3800   25.0420 C.2    23  ASP23       0.2621
      9  O         26.9350    6.8400   24.9810 O.2    23  ASP23      -0.2715
     10  CB        25.6320    6.2150   27.5540 C.3    23  ASP23       0.1450
     11  CG        24.8160    7.5000   27.6990 C.2    23  ASP23       0.3671
     12  OD1       24.1120    7.9030   26.7510 O.co2  23  ASP23      -0.2456
     13  OD2       24.8930    8.1120   28.7780 O.co2  23  ASP23      -0.2456
     14  N         24.8670    6.5900   24.0960 N.am   24  ILE24      -0.1977
     15  CA        25.1500    7.3970   22.9100 C.3    24  ILE24       0.1596
     16  C         25.6360    8.8380   23.1970 C.2    24  ILE24       0.2287
     17  O         26.3710    9.4170   22.3830 O.2    24  ILE24      -0.2864
     18  CB        23.9210    7.4620   21.9740 C.3    24  ILE24       0.0276
     19  CG1       24.3380    7.8920   20.5620 C.3    24  ILE24       0.0022
     20  CG2       22.8730    8.3980   22.5630 C.3    24  ILE24       0.0022
     21  CD1       23.3780    7.4810   19.4800 C.3    24  ILE24       0.0001
     22  N         16.4900   11.0640   18.1860 N.3    35  PRO35      -0.2102
     23  CA        15.0970   10.8630   17.8230 C.3    35  PRO35       0.1504
     24  C         14.1790   11.8370   18.5610 C.2    35  PRO35       0.2576
     25  O         14.1650   11.8730   19.7930 O.2    35  PRO35      -0.2718
     26  CB        14.8110    9.4210   18.2540 C.3    35  PRO35       0.0282
     27  CG        16.0830    8.8440   18.6540 C.3    35  PRO35       0.0208
     28  CD        17.0240    9.9410   18.9680 C.3    35  PRO35       0.0893
     29  N         13.4060   12.5990   17.7990 N.am   36  THR36      -0.1939
     30  CA        12.5400   13.6130   18.3500 C.3    36  THR36       0.2028
     31  C         11.2110   13.6010   17.5850 C.2    36  THR36       0.2642
     32  O         10.7850   12.5520   17.0390 O.2    36  THR36      -0.2714
     33  CB        13.2800   15.0150   18.3720 C.3    36  THR36       0.1808
     34  OG1       12.4830   15.9900   19.0570 O.3    36  THR36      -0.2208
     35  CG2       13.6380   15.5010   16.9690 C.3    36  THR36       0.0379
     36  N         10.5400   14.7340   17.5760 N.am   37  ASN37      -0.1971
     37  CA         9.2730   14.8640   16.8620 C.3    37  ASN37       0.1688
     38  C          9.2950   16.1230   16.0050 C.2    37  ASN37       0.2292
     39  O         10.3620   16.7310   15.8020 O.2    37  ASN37      -0.2864
     40  CB         8.0810   14.8380   17.8410 C.3    37  ASN37       0.1181
     41  CG         8.0440   16.0290   18.7760 C.2    37  ASN37       0.2629
     42  OD1        8.7510   17.0160   18.5890 O.2    37  ASN37      -0.2716
     43  ND2        7.1960   15.9400   19.7980 N.am   37  ASN37      -0.0877
     44  N         11.1420   18.3970   20.1930 N.3    41  TYR41      -0.1241
     45  CA        10.9800   18.2750   21.6240 C.3    41  TYR41       0.1605
     46  C         11.9640   17.2310   22.1900 C.2    41  TYR41       0.2264
     47  O         12.0610   16.1150   21.6990 O.2    41  TYR41      -0.2867
     48  CB         9.5210   17.9440   21.9240 C.3    41  TYR41       0.0534
     49  CG         9.2520   17.5330   23.3270 C.ar   41  TYR41      -0.0201
     50  CD1        9.3460   18.4420   24.3710 C.ar   41  TYR41      -0.0009
     51  CD2        8.8940   16.2220   23.6110 C.ar   41  TYR41      -0.0009
     52  CE1        9.0930   18.0500   25.6730 C.ar   41  TYR41       0.0417
     53  CE2        8.6280   15.8140   24.8970 C.ar   41  TYR41       0.0417
     54  CZ         8.7360   16.7170   25.9260 C.ar   41  TYR41       0.1957
     55  OH         8.4630   16.2630   27.2000 O.3    41  TYR41      -0.2866
     56  N         12.3370   14.9290   24.6450 N.3    43  GLY43      -0.1210
     57  CA        11.5360   14.1660   25.6050 C.3    43  GLY43       0.1956
     58  C         11.7170   12.6570   25.5450 C.2    43  GLY43       0.2612
     59  O         11.2750   11.9640   26.4360 O.2    43  GLY43      -0.2717
     60  N         12.3580   12.1390   24.5050 N.am   44  GLY44      -0.1942
     61  CA        12.6400   10.6990   24.4070 C.3    44  GLY44       0.2014
     62  C         13.7390   10.2380   25.3470 C.2    44  GLY44       0.2639
     63  O         14.3710   11.0360   26.0240 O.2    44  GLY44      -0.2714
     64  N         13.9610    8.9340   25.3900 N.am   45  GLU45      -0.1963
     65  CA        15.0140    8.3680   26.2030 C.3    45  GLU45       0.1733
     66  C         16.4050    8.9140   25.8180 C.2    45  GLU45       0.2616
     67  O         17.1730    9.3130   26.6820 O.2    45  GLU45      -0.2715
     68  CB        14.9620    6.8460   26.1170 C.3    45  GLU45       0.0429
     69  CG        13.6490    6.2890   26.6900 C.3    45  GLU45       0.1163
     70  CD        13.6070    4.7730   26.8150 C.2    45  GLU45       0.3649
     71  OE1       12.4870    4.2360   26.8920 O.co2  45  GLU45      -0.2457
     72  OE2       14.6650    4.1140   26.8480 O.co2  45  GLU45      -0.2457
     73  N         16.7090    8.9700   24.5320 N.am   46  VAL46      -0.1963
     74  CA        18.0000    9.5090   24.0660 C.3    46  VAL46       0.1727
     75  C         18.0390   11.0410   24.2620 C.2    46  VAL46       0.2616
     76  O         18.9890   11.5830   24.7900 O.2    46  VAL46      -0.2715
     77  CB        18.2460    9.1300   22.6080 C.3    46  VAL46       0.0290
     78  CG1       19.4610    9.8620   22.0120 C.3    46  VAL46       0.0023
     79  CG2       18.3690    7.5860   22.4690 C.3    46  VAL46       0.0023
     80  N         17.0000   11.7390   23.8400 N.am   47  GLY47      -0.1955
     81  CA        16.8940   13.1520   24.1100 C.3    47  GLY47       0.1869
     82  C         17.2180   13.4990   25.5500 C.2    47  GLY47       0.2309
     83  O         18.0170   14.4040   25.8070 O.2    47  GLY47      -0.2863
     84  N         18.9430   11.8750   27.8380 N.3    49  THR49      -0.1218
     85  CA        20.3620   11.6150   28.1240 C.3    49  THR49       0.1862
     86  C         21.2650   12.6690   27.5090 C.2    49  THR49       0.2287
     87  O         22.2510   13.0640   28.1380 O.2    49  THR49      -0.2866
     88  CB        20.7480   10.2410   27.6090 C.3    49  THR49       0.1770
     89  OG1       19.7200    9.3370   28.0390 O.3    49  THR49      -0.2211
     90  CG2       22.1460    9.7830   28.1260 C.3    49  THR49       0.0375
     91  N         11.2040   10.8040   14.1920 N.3    95  SER95      -0.1217
     92  CA        10.9850    9.3880   14.1990 C.3    95  SER95       0.1889
     93  C          9.4890    9.0630   14.0170 C.2    95  SER95       0.2288
     94  O          8.6420    9.6660   14.6610 O.2    95  SER95      -0.2866
     95  CB        11.5020    8.8400   15.5550 C.3    95  SER95       0.2089
     96  OG        11.0410    7.5110   15.7840 O.3    95  SER95      -0.2183
     97  N          5.9610    6.9540   14.5220 N.3    97  VAL97      -0.1245
     98  CA         5.3320    6.2760   15.6570 C.3    97  VAL97       0.1561
     99  C          4.8990    4.8980   15.1540 C.2    97  VAL97       0.2260
    100  O          4.3880    4.7870   14.0400 O.2    97  VAL97      -0.2867
    101  CB         4.1060    7.0740   16.2160 C.3    97  VAL97       0.0252
    102  CG1        3.4060    6.3220   17.3720 C.3    97  VAL97       0.0019
    103  CG2        4.5230    8.4910   16.6510 C.3    97  VAL97       0.0019
    104  N         21.1390    5.5530   17.6130 N.3   129  PRO129     -0.2102
    105  CA        20.4780    4.7030   18.5650 C.3   129  PRO129      0.1504
    106  C         19.3840    3.9090   17.8440 C.2   129  PRO129      0.2576
    107  O         19.1900    4.0620   16.6150 O.2   129  PRO129     -0.2718
    108  CB        19.8820    5.7050   19.5500 C.3   129  PRO129      0.0282
    109  CG        19.5010    6.8650   18.6970 C.3   129  PRO129      0.0208
    110  CD        20.4580    6.8480   17.5010 C.3   129  PRO129      0.0893
    111  N         18.6880    3.0530   18.5910 N.am  130  SER130     -0.1938
    112  CA        17.5540    2.3080   18.0470 C.3   130  SER130      0.2055
    113  C         16.3320    3.2240   17.9080 C.2   130  SER130      0.2643
    114  O         15.3730    3.1360   18.6640 O.2   130  SER130     -0.2714
    115  CB        17.2630    1.0610   18.8810 C.3   130  SER130      0.2130
    116  OG        16.3550    0.2150   18.1920 O.3   130  SER130     -0.2179
    117  N         16.3900    4.1170   16.9150 N.am  131  ILE131     -0.1963
    118  CA        15.2750    5.0430   16.6080 C.3   131  ILE131      0.1727
    119  C         13.9340    4.2890   16.5490 C.2   131  ILE131      0.2617
    120  O         13.8200    3.1930   15.9550 O.2   131  ILE131     -0.2715
    121  CB        15.4780    5.7790   15.2640 C.3   131  ILE131      0.0290
    122  CG1       16.7830    6.5810   15.2490 C.3   131  ILE131      0.0022
    123  CG2       14.2800    6.7380   14.9550 C.3   131  ILE131      0.0023
    124  CD1       17.3010    6.8080   13.8260 C.3   131  ILE131      0.0001
    125  N         12.9350    4.8780   17.2050 N.am  132  GLY132     -0.1940
    126  CA        11.5630    4.3920   17.1750 C.3   132  GLY132      0.2014
    127  C         11.1680    3.4220   18.2840 C.2   132  GLY132      0.2640
    128  O          9.9860    3.2370   18.5160 O.2   132  GLY132     -0.2714
    129  N         12.1430    2.7950   18.9560 N.am  133  SER133     -0.1935
    130  CA        11.8600    1.6730   19.8650 C.3   133  SER133      0.2055
    131  C         11.8710    2.0880   21.3280 C.2   133  SER133      0.2644
    132  O         11.8780    1.2520   22.2110 O.2   133  SER133     -0.2714
    133  CB        12.8400    0.4970   19.6260 C.3   133  SER133      0.2130
    134  OG        14.2100    0.8590   19.8010 O.3   133  SER133     -0.2179
    135  N         11.8660    3.3920   21.5820 N.am  134  GLY134     -0.1939
    136  CA        11.6310    3.8740   22.9260 C.3   134  GLY134      0.2014
    137  C         10.2160    4.3890   23.0730 C.2   134  GLY134      0.2639
    138  O          9.2590    3.6070   23.0940 O.2   134  GLY134     -0.2714
    139  N         10.0510    5.7050   23.1540 N.am  135  ARG135     -0.1963
    140  CA         8.6800    6.2230   23.3900 C.3   135  ARG135      0.1729
    141  C          7.7840    6.0180   22.1620 C.2   135  ARG135      0.2616
    142  O          6.5590    6.0740   22.2810 O.2   135  ARG135     -0.2715
    143  CB         8.6520    7.7050   23.7600 C.3   135  ARG135      0.0348
    144  CG         9.7440    8.1640   24.6570 C.3   135  ARG135      0.0492
    145  CD         9.4310    8.1310   26.1230 C.3   135  ARG135      0.2205
    146  NE        10.4110    9.0090   26.7770 N.pl3 135  ARG135     -0.0865
    147  CZ        10.9580    8.8250   27.9810 C.cat 135  ARG135      0.5346
    148  NH1       10.6450    7.7710   28.7400 N.pl3 135  ARG135      0.1354
    149  NH2       11.8440    9.7110   28.4280 N.pl3 135  ARG135      0.1354
    150  N          8.3940    5.8180   20.9880 N.am  136  ASN136     -0.1972
    151  CA         7.6140    5.6520   19.7470 C.3   136  ASN136      0.1688
    152  C          7.1340    4.2260   19.4810 C.2   136  ASN136      0.2292
    153  O          6.3920    3.9760   18.5340 O.2   136  ASN136     -0.2864
    154  CB         8.3220    6.3030   18.5460 C.3   136  ASN136      0.1181
    155  CG         8.0840    7.8060   18.4820 C.2   136  ASN136      0.2629
    156  OD1        7.3660    8.3600   19.3010 O.2   136  ASN136     -0.2716
    157  ND2        8.6420    8.4580   17.4900 N.am  136  ASN136     -0.0877
    158  N         11.6960   -3.7020   19.6250 N.3   140  LYS140     -0.1245
    159  CA        13.1320   -3.5230   19.6400 C.3   140  LYS140      0.1561
    160  C         13.8490   -4.3150   18.5390 C.2   140  LYS140      0.2260
    161  O         14.7350   -3.7920   17.9020 O.2   140  LYS140     -0.2867
    162  CB        13.6860   -3.7910   21.0540 C.3   140  LYS140      0.0271
    163  CG        13.5780   -2.5070   21.9010 C.3   140  LYS140      0.0035
    164  CD        13.5680   -2.7300   23.4020 C.3   140  LYS140      0.0206
    165  CE        13.5560   -1.3970   24.1600 C.3   140  LYS140      0.1093
    166  NZ        12.2210   -0.7300   24.1470 N.3   140  LYS140     -0.1314
    167  N         24.3260    2.0240   18.2250 N.3   169  VAL169     -0.1231
    168  CA        24.5440    2.0840   19.6540 C.3   169  VAL169      0.1692
    169  C         23.3550    1.5200   20.4210 C.2   169  VAL169      0.2592
    170  O         22.2240    2.0160   20.3220 O.2   169  VAL169     -0.2718
    171  CB        24.8010    3.5310   20.1430 C.3   169  VAL169      0.0266
    172  CG1       25.1310    3.5190   21.6360 C.3   169  VAL169      0.0020
    173  CG2       25.9420    4.2000   19.3330 C.3   169  VAL169      0.0020
    174  N         23.6370    0.5030   21.2090 N.am  170  LEU170     -0.1966
    175  CA        22.6420   -0.1500   22.0350 C.3   170  LEU170      0.1728
    176  C         22.9740    0.0450   23.5130 C.2   170  LEU170      0.2616
    177  O         24.1280   -0.0180   23.9290 O.2   170  LEU170     -0.2715
    178  CB        22.5450   -1.6150   21.6470 C.3   170  LEU170      0.0311
    179  CG        22.1580   -1.8830   20.1740 C.3   170  LEU170      0.0022
    180  CD1       22.0420   -3.3530   19.9200 C.3   170  LEU170      0.0001
    181  CD2       20.8710   -1.1640   19.7870 C.3   170  LEU170      0.0001
    182  N         21.9370    0.3530   24.2880 N.am  171  PHE171     -0.1960
    183  CA        22.0850    0.7230   25.7020 C.3   171  PHE171      0.1771
    184  C         21.1040   -0.0310   26.5650 C.2   171  PHE171      0.2619
    185  O         21.4750   -0.4560   27.6600 O.2   171  PHE171     -0.2715
    186  CB        21.8960    2.2410   25.8760 C.3   171  PHE171      0.0574
    187  CG        22.1170    2.7560   27.2840 C.ar  171  PHE171     -0.0200
    188  CD1       21.0380    3.1560   28.0610 C.ar  171  PHE171     -0.0042
    189  CD2       23.3820    2.8920   27.8000 C.ar  171  PHE171     -0.0042
    190  CE1       21.2210    3.6610   29.3400 C.ar  171  PHE171     -0.0003
    191  CE2       23.5870    3.4050   29.0640 C.ar  171  PHE171     -0.0003
    192  CZ        22.5030    3.7910   29.8470 C.ar  171  PHE171     -0.0000
    193  N         19.8790   -0.2270   26.0910 N.am  172  ASP172     -0.1971
    194  CA        18.8970   -1.0170   26.8510 C.3   172  ASP172      0.1709
    195  C         19.0940   -2.5410   26.6980 C.2   172  ASP172      0.2293
    196  O         19.4340   -3.0400   25.6200 O.2   172  ASP172     -0.2864
    197  CB        17.4480   -0.5930   26.5140 C.3   172  ASP172      0.1436
    198  CG        16.9090   -1.2340   25.2600 C.2   172  ASP172      0.3671
    199  OD1       16.9770   -0.6290   24.1590 O.co2 172  ASP172     -0.2456
    200  OD2       16.3710   -2.3380   25.3790 O.co2 172  ASP172     -0.2456
    201  N         17.2740   -4.6500   23.9220 N.3   175  SER175     -0.1217
    202  CA        17.8650   -4.4520   22.5760 C.3   175  SER175      0.1889
    203  C         19.1800   -5.2250   22.4080 C.2   175  SER175      0.2288
    204  O         19.4090   -5.8650   21.3710 O.2   175  SER175     -0.2866
    205  CB        18.0880   -2.9670   22.2650 C.3   175  SER175      0.2089
    206  OG        16.8670   -2.2610   22.0190 O.3   175  SER175     -0.2183
@<TRIPOS>BOND
     1   124   122    1
     2    93    92    1
     3    93    94    2
     4   100    99    2
     5    91    92    1
     6    92    95    1
     7    97    98    1
     8   123   121    1
     9    99    98    1
    10   122   121    1
    11   121   118    1
    12    95    96    1
    13    98   101    1
    14    39    38    2
    15   120   119    2
    16    38    37    1
    17   101   103    1
    18   101   102    1
    19   119   118    1
    20   119   125   am
    21   118   117    1
    22   107   106    2
    23    37    36    1
    24    37    40    1
    25   117   113   am
    26    35    33    1
    27    32    31    2
    28   126   125    1
    29   126   127    1
    30   157   155   am
    31   110   104    1
    32   110   109    1
    33    36    31   am
    34    31    30    1
    35   104   105    1
    36    29    30    1
    37    29    24   am
    38    23    22    1
    39    23    26    1
    40    23    24    1
    41    40    41    1
    42   106   105    1
    43   106   111   am
    44   161   160    2
    45   113   112    1
    46   113   114    2
    47   112   111    1
    48   112   115    1
    49    22    28    1
    50   116   115    1
    51   167   168    1
    52    26    27    1
    53   127   128    2
    54   127   129   am
    55    30    33    1
    56    33    34    1
    57   155   154    1
    58   155   156    2
    59   153   152    2
    60   160   159    1
    61   154   151    1
    62    24    25    2
    63   105   108    1
    64    42    41    2
    65    27    28    1
    66   109   108    1
    67    41    43   am
    68   129   130    1
    69   173   171    1
    70    21    19    1
    71   152   151    1
    72   158   159    1
    73   133   134    1
    74   133   130    1
    75   159   162    1
    76   168   171    1
    77   168   169    1
    78   151   150    1
    79   181   179    1
    80   130   131    1
    81   180   179    1
    82   171   172    1
    83   179   178    1
    84    44    45    1
    85   170   169    2
    86   169   174   am
    87    19    18    1
    88   150   141   am
    89   162   163    1
    90   174   175    1
    91   131   135   am
    92   131   132    2
    93   204   203    2
    94   135   136    1
    95    45    48    1
    96    45    46    1
    97   178   175    1
    98    47    46    2
    99   163   164    1
   100    48    49    1
   101    18    20    1
   102    18    15    1
   103    78    77    1
   104   206   205    1
   105   175   176    1
   106   141   142    2
   107   141   140    1
   108   205   202    1
   109    17    16    2
   110   203   202    1
   111    79    77    1
   112   202   201    1
   113    77    74    1
   114    15    16    1
   115    15    14    1
   116   136   137    1
   117   137   138    2
   118   137   139   am
   119   139   140    1
   120    49    51   ar
   121    49    50   ar
   122   140   143    1
   123   164   165    1
   124   176   177    2
   125   176   182   am
   126    51    53   ar
   127   143   144    1
   128    80    81    1
   129    80    75   am
   130    74    75    1
   131    74    73    1
   132    14     8   am
   133    81    82    1
   134   166   165    1
   135   199   198   ar
   136     5     2    1
   137    75    76    2
   138   182   183    1
   139    50    52   ar
   140    61    60    1
   141    61    62    1
   142    60    58   am
   143    73    66   am
   144     1     2    1
   145    56    57    1
   146   144   145    1
   147     4     3    2
   148    53    54   ar
   149     9     8    2
   150     8     7    1
   151     2     3    1
   152   198   200   ar
   153   198   197    1
   154     3     6   am
   155    62    64   am
   156    62    63    2
   157    64    65    1
   158    58    57    1
   159    58    59    2
   160    82    83    2
   161   196   195    2
   162    52    54   ar
   163   183   186    1
   164   183   184    1
   165    66    65    1
   166    66    67    2
   167   186   187    1
   168    54    55    1
   169   193   184   am
   170   193   194    1
   171    68    65    1
   172    68    69    1
   173   145   146    1
   174     6     7    1
   175     7    10    1
   176   197   194    1
   177   184   185    2
   178    69    70    1
   179   195   194    1
   180    12    11   ar
   181   146   147    2
   182    70    72   ar
   183    70    71   ar
   184   187   189   ar
   185   187   188   ar
   186    86    85    1
   187    86    87    2
   188    10    11    1
   189    88    89    1
   190    88    85    1
   191    88    90    1
   192    11    13   ar
   193   189   191   ar
   194    84    85    1
   195   147   149    1
   196   147   148    1
   197   188   190   ar
   198   191   192   ar
   199   190   192   ar
