@<TRIPOS>MOLECULE
tmp/3iiiA00.pdb
 163 162 0 0 0
SMALL
GASTEIGER

@<TRIPOS>ATOM
      1  N          9.1280   36.8930   13.0700 N.3    70  TYR70      -0.1241
      2  CA        10.5460   36.5160   13.0830 C.3    70  TYR70       0.1605
      3  C         11.4640   37.3730   12.2040 C.2    70  TYR70       0.2264
      4  O         12.6690   37.2810   12.3400 O.2    70  TYR70      -0.2867
      5  CB        10.6830   35.0580   12.6560 C.3    70  TYR70       0.0534
      6  CG        10.0670   34.0390   13.5620 C.ar   70  TYR70      -0.0201
      7  CD1        9.7860   34.3000   14.8970 C.ar   70  TYR70      -0.0009
      8  CD2        9.8890   32.7380   13.1200 C.ar   70  TYR70      -0.0009
      9  CE1        9.2770   33.2730   15.7250 C.ar   70  TYR70       0.0417
     10  CE2        9.4140   31.7230   13.9680 C.ar   70  TYR70       0.0417
     11  CZ         9.1200   31.9900   15.2430 C.ar   70  TYR70       0.1957
     12  OH         8.6450   30.9530   16.0650 O.3    70  TYR70      -0.2866
     13  N         19.7970   30.8780    7.3700 N.3    77  LYS77      -0.1245
     14  CA        21.1490   30.5870    7.8510 C.3    77  LYS77       0.1561
     15  C         21.7180   29.3420    7.1830 C.2    77  LYS77       0.2260
     16  O         21.1380   28.2730    7.2850 O.2    77  LYS77      -0.2867
     17  CB        21.1430   30.4110    9.3510 C.3    77  LYS77       0.0271
     18  CG        20.8530   31.6880   10.0890 C.3    77  LYS77       0.0035
     19  CD        21.5650   31.7070   11.4350 C.3    77  LYS77       0.0206
     20  CE        20.6580   31.3090   12.5760 C.3    77  LYS77       0.1093
     21  NZ        21.4010   31.3690   13.8600 N.3    77  LYS77      -0.1314
     22  N         23.7290   22.6040   14.2590 N.3    82  TRP82      -0.1241
     23  CA        22.4630   21.8870   14.4530 C.3    82  TRP82       0.1605
     24  C         22.3960   20.8060   13.3430 C.2    82  TRP82       0.2264
     25  O         21.7180   20.9860   12.3550 O.2    82  TRP82      -0.2867
     26  CB        21.2600   22.8240   14.3860 C.3    82  TRP82       0.0550
     27  CG        19.9940   22.2010   15.0130 C.ar   82  TRP82       0.0003
     28  CD1       19.8700   20.9080   15.4810 C.ar   82  TRP82       0.0946
     29  CD2       18.7140   22.8300   15.2720 C.ar   82  TRP82       0.0152
     30  NE1       18.6120   20.7130   15.9940 N.ar   82  TRP82      -0.2442
     31  CE2       17.8750   21.8530   15.8430 C.ar   82  TRP82       0.0810
     32  CE3       18.1840   24.1040   15.0340 C.ar   82  TRP82       0.0012
     33  CZ2       16.5710   22.1290   16.2480 C.ar   82  TRP82       0.0191
     34  CZ3       16.8740   24.3670   15.4130 C.ar   82  TRP82       0.0001
     35  CH2       16.0830   23.3900   16.0100 C.ar   82  TRP82       0.0015
     36  N         11.0320   28.6620    6.9130 N.3    97  GLU97      -0.1245
     37  CA         9.6740   28.1750    7.0760 C.3    97  GLU97       0.1567
     38  C          8.6660   28.7920    6.1420 C.2    97  GLU97       0.2260
     39  O          7.4910   28.3940    6.1400 O.2    97  GLU97      -0.2867
     40  CB         9.1430   28.4000    8.5220 C.3    97  GLU97       0.0388
     41  CG        10.0700   28.4420    9.7380 C.3    97  GLU97       0.1160
     42  CD         9.5980   29.3030   10.8980 C.2    97  GLU97       0.3649
     43  OE1        8.5610   28.7590   11.4290 O.co2  97  GLU97      -0.2457
     44  OE2       10.0480   30.4040   11.2930 O.co2  97  GLU97      -0.2457
     45  N          0.3950   34.6560   18.5430 N.3   129  TRP129     -0.1241
     46  CA        -0.5830   33.5650   18.5680 C.3   129  TRP129      0.1605
     47  C         -1.7930   33.9950   19.3840 C.2   129  TRP129      0.2264
     48  O         -2.2460   33.2870   20.2970 O.2   129  TRP129     -0.2867
     49  CB         0.0960   32.2740   19.0820 C.3   129  TRP129      0.0550
     50  CG         1.2540   31.8450   18.2760 C.ar  129  TRP129      0.0003
     51  CD1        1.5630   32.2830   17.0110 C.ar  129  TRP129      0.0946
     52  CD2        2.2760   30.8810   18.6090 C.ar  129  TRP129      0.0152
     53  NE1        2.6820   31.6740   16.5640 N.ar  129  TRP129     -0.2442
     54  CE2        3.1420   30.8020   17.5150 C.ar  129  TRP129      0.0810
     55  CE3        2.5360   30.0720   19.7210 C.ar  129  TRP129      0.0012
     56  CZ2        4.2570   29.9460   17.4860 C.ar  129  TRP129      0.0191
     57  CZ3        3.6550   29.1930   19.6840 C.ar  129  TRP129      0.0001
     58  CH2        4.5010   29.1590   18.5910 C.ar  129  TRP129      0.0015
     59  N          5.3600   26.1010   11.3250 N.3   160  SER160     -0.1217
     60  CA         5.5800   26.4450   12.7350 C.3   160  SER160      0.1889
     61  C          4.8110   27.7520   13.0340 C.2   160  SER160      0.2288
     62  O          3.6030   27.7720   12.8900 O.2   160  SER160     -0.2866
     63  CB         7.0740   26.5200   13.0510 C.3   160  SER160      0.2089
     64  OG         7.2510   26.7690   14.4410 O.3   160  SER160     -0.2183
     65  N         12.2350   24.8250   25.6050 N.3   202  PHE202     -0.1241
     66  CA        11.8500   25.4540   24.3440 C.3   202  PHE202      0.1605
     67  C         10.9270   26.6870   24.4620 C.2   202  PHE202      0.2264
     68  O         11.2110   27.7400   23.8700 O.2   202  PHE202     -0.2867
     69  CB        11.2110   24.4800   23.3670 C.3   202  PHE202      0.0534
     70  CG        10.8400   25.1290   22.0970 C.ar  202  PHE202     -0.0203
     71  CD1       11.7950   25.3750   21.1270 C.ar  202  PHE202     -0.0042
     72  CD2        9.5440   25.5500   21.8820 C.ar  202  PHE202     -0.0042
     73  CE1       11.4330   26.0310   19.9280 C.ar  202  PHE202     -0.0003
     74  CE2        9.1770   26.1660   20.6930 C.ar  202  PHE202     -0.0003
     75  CZ        10.1260   26.4080   19.7180 C.ar  202  PHE202     -0.0000
     76  N         12.9920   29.5210   25.6380 N.3   205  PHE205     -0.1227
     77  CA        13.9670   29.8210   24.5810 C.3   205  PHE205      0.1736
     78  C         13.3120   30.6110   23.4160 C.2   205  PHE205      0.2595
     79  O         13.8330   31.6450   22.9180 O.2   205  PHE205     -0.2718
     80  CB        14.4900   28.4970   24.0830 C.3   205  PHE205      0.0547
     81  CG        15.2560   28.5670   22.7710 C.ar  205  PHE205     -0.0202
     82  CD1       16.5570   29.0520   22.7520 C.ar  205  PHE205     -0.0042
     83  CD2       14.7030   28.0820   21.5900 C.ar  205  PHE205     -0.0042
     84  CE1       17.2660   29.0770   21.5530 C.ar  205  PHE205     -0.0003
     85  CE2       15.4180   28.0850   20.4230 C.ar  205  PHE205     -0.0003
     86  CZ        16.6960   28.5950   20.4150 C.ar  205  PHE205     -0.0000
     87  N         12.1240   30.1620   23.0630 N.am  206  TRP206     -0.1976
     88  CA        11.3440   30.7280   21.9770 C.3   206  TRP206      0.1640
     89  C         10.9240   32.1360   22.3680 C.2   206  TRP206      0.2290
     90  O         11.0700   33.0990   21.5860 O.2   206  TRP206     -0.2864
     91  CB        10.1370   29.8200   21.7360 C.3   206  TRP206      0.0576
     92  CG         9.1260   30.3800   20.8500 C.ar  206  TRP206      0.0006
     93  CD1        9.2070   30.5020   19.5110 C.ar  206  TRP206      0.0946
     94  CD2        7.8470   30.9070   21.2320 C.ar  206  TRP206      0.0152
     95  NE1        8.0710   31.0970   19.0260 N.ar  206  TRP206     -0.2442
     96  CE2        7.2170   31.3540   20.0640 C.ar  206  TRP206      0.0810
     97  CE3        7.1800   31.0580   22.4470 C.ar  206  TRP206      0.0012
     98  CZ2        5.9360   31.9120   20.0650 C.ar  206  TRP206      0.0191
     99  CZ3        5.8940   31.6110   22.4400 C.ar  206  TRP206      0.0001
    100  CH2        5.3040   32.0470   21.2750 C.ar  206  TRP206      0.0015
    101  N          5.5060   19.9180   20.6460 N.3   262  LEU262     -0.1231
    102  CA         5.2860   21.2550   20.0910 C.3   262  LEU262      0.1693
    103  C          4.0650   21.2000   19.1470 C.2   262  LEU262      0.2592
    104  O          2.9490   21.3250   19.6320 O.2   262  LEU262     -0.2718
    105  CB         6.5370   21.7940   19.3970 C.3   262  LEU262      0.0284
    106  CG         6.4530   23.2790   18.9900 C.3   262  LEU262      0.0019
    107  CD1        6.2000   24.1860   20.2060 C.3   262  LEU262      0.0001
    108  CD2        7.7430   23.6770   18.2440 C.3   262  LEU262      0.0001
    109  N          4.2490   20.9790   17.8560 N.am  263  HIS263     -0.1976
    110  CA         3.1310   21.1250   16.9060 C.3   263  HIS263      0.1656
    111  C          2.1990   19.9330   16.6920 C.2   263  HIS263      0.2291
    112  O          1.1150   20.0890   16.1120 O.2   263  HIS263     -0.2864
    113  CB         3.6270   21.6470   15.5570 C.3   263  HIS263      0.0771
    114  CG         4.3770   22.9400   15.6460 C.ar  263  HIS263      0.0820
    115  ND1        3.8410   24.0870   16.1900 N.ar  263  HIS263     -0.2267
    116  CD2        5.6540   23.2430   15.3000 C.ar  263  HIS263      0.1154
    117  CE1        4.7380   25.0570   16.1160 C.ar  263  HIS263      0.1986
    118  NE2        5.8530   24.5680   15.5870 N.ar  263  HIS263     -0.2212
    119  N         11.0500   18.2660   10.0240 N.3   288  GLU288     -0.1231
    120  CA        10.0170   19.3060    9.8240 C.3   288  GLU288      0.1699
    121  C         10.1750   20.1750    8.5850 C.2   288  GLU288      0.2592
    122  O          9.3630   20.0660    7.6380 O.2   288  GLU288     -0.2718
    123  CB         9.9180   20.1620   11.0950 C.3   288  GLU288      0.0402
    124  CG         8.9820   21.3730   11.1060 C.3   288  GLU288      0.1161
    125  CD         9.0860   22.1540   12.4090 C.2   288  GLU288      0.3649
    126  OE1        9.7360   21.6350   13.3450 O.co2 288  GLU288     -0.2457
    127  OE2        8.5760   23.2830   12.5440 O.co2 288  GLU288     -0.2457
    128  N         11.1880   21.0340    8.5890 N.am  289  TRP289     -0.1976
    129  CA        11.4340   21.9350    7.4550 C.3   289  TRP289      0.1640
    130  C         11.9280   21.1260    6.2490 C.2   289  TRP289      0.2290
    131  O         11.6100   21.4530    5.1040 O.2   289  TRP289     -0.2864
    132  CB        12.4290   23.0540    7.8030 C.3   289  TRP289      0.0576
    133  CG        11.9050   24.0020    8.8430 C.ar  289  TRP289      0.0006
    134  CD1       11.0180   25.0360    8.6530 C.ar  289  TRP289      0.0946
    135  CD2       12.1980   23.9860   10.2400 C.ar  289  TRP289      0.0152
    136  NE1       10.7530   25.6590    9.8450 N.ar  289  TRP289     -0.2442
    137  CE2       11.4410   25.0210   10.8390 C.ar  289  TRP289      0.0810
    138  CE3       13.0190   23.1820   11.0480 C.ar  289  TRP289      0.0012
    139  CZ2       11.5120   25.3170   12.1910 C.ar  289  TRP289      0.0191
    140  CZ3       13.0810   23.4450   12.3930 C.ar  289  TRP289      0.0001
    141  CH2       12.3100   24.4990   12.9700 C.ar  289  TRP289      0.0015
    142  N         13.4270   18.0180   19.6960 N.3   432  ASN432     -0.1240
    143  CA        13.2910   18.8700   18.5380 C.3   432  ASN432      0.1653
    144  C         14.4380   18.4830   17.5940 C.2   432  ASN432      0.2266
    145  O         15.6390   18.8030   17.8390 O.2   432  ASN432     -0.2867
    146  CB        13.3250   20.3640   19.0230 C.3   432  ASN432      0.1155
    147  CG        13.1220   21.3560   17.9150 C.2   432  ASN432      0.2627
    148  OD1       13.0680   20.9500   16.7420 O.2   432  ASN432     -0.2716
    149  ND2       13.0700   22.6710   18.2410 N.am  432  ASN432     -0.0877
    150  N         21.1770   20.2480   20.3070 N.3   511  THR511     -0.1218
    151  CA        21.9040   21.5200   20.2710 C.3   511  THR511      0.1862
    152  C         22.4510   21.8050   21.7020 C.2   511  THR511      0.2287
    153  O         21.8960   22.6480   22.4130 O.2   511  THR511     -0.2866
    154  CB        20.9870   22.7120   19.8240 C.3   511  THR511      0.1770
    155  OG1       19.8900   22.8550   20.7450 O.3   511  THR511     -0.2211
    156  CG2       20.3770   22.4530   18.4390 C.3   511  THR511      0.0375
    157  N         16.6000   24.0720   22.5800 N.3   515  THR515     -0.1218
    158  CA        15.6750   23.8600   21.4560 C.3   515  THR515      0.1862
    159  C         14.6000   22.8110   21.7420 C.2   515  THR515      0.2287
    160  O         13.5720   22.8030   21.0760 O.2   515  THR515     -0.2866
    161  CB        16.4210   23.4330   20.1570 C.3   515  THR515      0.1770
    162  OG1       17.1330   22.2510   20.4270 O.3   515  THR515     -0.2211
    163  CG2       17.3670   24.5250   19.6780 C.3   515  THR515      0.0375
@<TRIPOS>BOND
     1   131   130    2
     2    39    38    2
     3    38    37    1
     4   130   129    1
     5    36    37    1
     6    37    40    1
     7    15    16    2
     8    15    14    1
     9    13    14    1
    10   129   132    1
    11   129   128    1
    12   122   121    2
    13   132   133    1
    14    14    17    1
    15    40    41    1
    16   121   128   am
    17   121   120    1
    18   134   133   ar
    19   134   136   ar
    20   133   135   ar
    21    17    18    1
    22    41    42    1
    23   120   119    1
    24   120   123    1
    25   136   137   ar
    26    18    19    1
    27   135   137   ar
    28   135   138   ar
    29   137   139   ar
    30    42    44   ar
    31    42    43   ar
    32   138   140   ar
    33   123   124    1
    34   124   125    1
    35    59    60    1
    36    19    20    1
    37   139   141   ar
    38     3     4    2
    39     3     2    1
    40    25    24    2
    41   140   141   ar
    42   125   127   ar
    43   125   126   ar
    44    20    21    1
    45     5     2    1
    46     5     6    1
    47    60    61    1
    48    60    63    1
    49    62    61    2
    50    63    64    1
    51     1     2    1
    52     8     6   ar
    53     8    10   ar
    54    24    23    1
    55     6     7   ar
    56    10    11   ar
    57    22    23    1
    58    26    23    1
    59    26    27    1
    60     7     9   ar
    61    27    29   ar
    62    27    28   ar
    63    32    29   ar
    64    32    34   ar
    65    11     9   ar
    66    11    12    1
    67    29    31   ar
    68   116   118   ar
    69   116   114   ar
    70    34    35   ar
    71    28    30   ar
    72   113   114    1
    73   113   110    1
    74   118   117   ar
    75   114   115   ar
    76    31    30   ar
    77    31    33   ar
    78    35    33   ar
    79   112   111    2
    80   117   115   ar
    81    53    51   ar
    82    53    54   ar
    83   111   110    1
    84   148   147    2
    85   110   109    1
    86    51    50   ar
    87    56    54   ar
    88    56    58   ar
    89    54    52   ar
    90   144   145    2
    91   144   143    1
    92   109   103   am
    93   147   149   am
    94   147   146    1
    95   108   106    1
    96    50    52   ar
    97    50    49    1
    98   156   154    1
    99   143   146    1
   100   143   142    1
   101    45    46    1
   102    46    49    1
   103    46    47    1
   104    58    57   ar
   105    52    55   ar
   106   106   105    1
   107   106   107    1
   108    95    93   ar
   109    95    96   ar
   110   103   104    2
   111   103   102    1
   112    47    48    2
   113   105   102    1
   114    93    92   ar
   115   163   161    1
   116    57    55   ar
   117    75    73   ar
   118    75    74   ar
   119   154   151    1
   120   154   155    1
   121    73    71   ar
   122    96    98   ar
   123    96    94   ar
   124    98   100   ar
   125   102   101    1
   126   161   162    1
   127   161   158    1
   128   151   150    1
   129   151   152    1
   130    86    85   ar
   131    86    84   ar
   132    85    83   ar
   133    74    72   ar
   134    92    94   ar
   135    92    91    1
   136   160   159    2
   137    71    70   ar
   138    94    97   ar
   139   100    99   ar
   140   158   159    1
   141   158   157    1
   142    84    82   ar
   143    90    89    2
   144    83    81   ar
   145   152   153    2
   146    91    88    1
   147    72    70   ar
   148    88    89    1
   149    88    87    1
   150    70    69    1
   151    99    97   ar
   152    82    81   ar
   153    81    80    1
   154    79    78    2
   155    87    78   am
   156    69    66    1
   157    78    77    1
   158    68    67    2
   159    80    77    1
   160    66    67    1
   161    66    65    1
   162    77    76    1
