@<TRIPOS>MOLECULE
tmp/3iijA00.pdb
 113 109 0 0 0
SMALL
GASTEIGER

@<TRIPOS>ATOM
      1  N         41.1910  -49.9050   -6.7460 N.3    15  PRO15      -0.2102
      2  CA        40.5280  -50.4810   -7.9150 C.3    15  PRO15       0.1504
      3  C         41.2290  -51.7540   -8.3740 C.2    15  PRO15       0.2576
      4  O         42.4720  -51.8170   -8.3660 O.2    15  PRO15      -0.2718
      5  CB        40.6670  -49.3780   -8.9660 C.3    15  PRO15       0.0282
      6  CG        40.6080  -48.1240   -8.1450 C.3    15  PRO15       0.0208
      7  CD        41.4290  -48.4570   -6.9100 C.3    15  PRO15       0.0893
      8  N         40.4320  -52.7660   -8.7200 N.am   16  GLY16      -0.1943
      9  CA        40.9480  -54.0550   -9.1840 C.3    16  GLY16       0.2014
     10  C         41.0680  -55.1690   -8.1570 C.2    16  GLY16       0.2639
     11  O         41.2870  -56.3270   -8.5360 O.2    16  GLY16      -0.2714
     12  N         40.9380  -54.8430   -6.8650 N.am   17  VAL17      -0.1963
     13  CA        41.1260  -55.8610   -5.8140 C.3    17  VAL17       0.1727
     14  C         40.0070  -56.9020   -5.7260 C.2    17  VAL17       0.2617
     15  O         40.2350  -58.0040   -5.2370 O.2    17  VAL17      -0.2715
     16  CB        41.3710  -55.2560   -4.4080 C.3    17  VAL17       0.0290
     17  CG1       42.6830  -54.4690   -4.3870 C.3    17  VAL17       0.0023
     18  CG2       40.1750  -54.3780   -3.9450 C.3    17  VAL17       0.0023
     19  N         38.8080  -56.5430   -6.1800 N.am   18  GLY18      -0.1940
     20  CA        37.6940  -57.4900   -6.2210 C.3    18  GLY18       0.2014
     21  C         36.4300  -57.0780   -5.4920 C.2    18  GLY18       0.2639
     22  O         35.6060  -57.9330   -5.1430 O.2    18  GLY18      -0.2714
     23  N         36.2680  -55.7800   -5.2450 N.am   19  LYS19      -0.1963
     24  CA        35.1150  -55.2950   -4.4750 C.3    19  LYS19       0.1728
     25  C         33.7650  -55.5970   -5.1470 C.2    19  LYS19       0.2617
     26  O         32.8330  -56.0570   -4.4940 O.2    19  LYS19      -0.2715
     27  CB        35.2260  -53.7880   -4.2130 C.3    19  LYS19       0.0311
     28  CG        36.5060  -53.3760   -3.4840 C.3    19  LYS19       0.0038
     29  CD        36.5830  -51.8480   -3.3160 C.3    19  LYS19       0.0206
     30  CE        36.6310  -51.0720   -4.6530 C.3    19  LYS19       0.1093
     31  NZ        37.8840  -51.3130   -5.4510 N.3    19  LYS19      -0.1314
     32  N         33.6620  -55.3300   -6.4430 N.am   20  THR20      -0.1937
     33  CA        32.3920  -55.5210   -7.1520 C.3    20  THR20       0.2028
     34  C         32.0300  -57.0010   -7.2310 C.2    20  THR20       0.2642
     35  O         30.8720  -57.3870   -6.9950 O.2    20  THR20      -0.2714
     36  CB        32.4500  -54.8620   -8.5420 C.3    20  THR20       0.1808
     37  OG1       32.6180  -53.4460   -8.3710 O.3    20  THR20      -0.2208
     38  CG2       31.1620  -55.1370   -9.3420 C.3    20  THR20       0.0379
     39  N         33.0300  -57.8280   -7.5290 N.am   21  THR21      -0.1950
     40  CA        32.8360  -59.2740   -7.5830 C.3    21  THR21       0.1897
     41  C         32.2870  -59.7990   -6.2580 C.2    21  THR21       0.2313
     42  O         31.2890  -60.5340   -6.2300 O.2    21  THR21      -0.2863
     43  CB        34.1560  -59.9820   -7.9590 C.3    21  THR21       0.1794
     44  OG1       34.5780  -59.5070   -9.2450 O.3    21  THR21      -0.2208
     45  CG2       33.9710  -61.5040   -8.0400 C.3    21  THR21       0.0378
     46  N         30.1990  -50.3480   -2.1950 N.3    80  ASP80      -0.1239
     47  CA        31.4830  -50.6300   -2.8360 C.3    80  ASP80       0.1674
     48  C         32.0810  -49.3260   -3.3790 C.2    80  ASP80       0.2266
     49  O         31.4960  -48.6810   -4.2560 O.2    80  ASP80      -0.2867
     50  CB        31.2130  -51.6640   -3.9470 C.3    80  ASP80       0.1410
     51  CG        32.3200  -51.7810   -4.9770 C.2    80  ASP80       0.3668
     52  OD1       32.1020  -52.6020   -5.8970 O.co2  80  ASP80      -0.2456
     53  OD2       33.3650  -51.0870   -4.9140 O.co2  80  ASP80      -0.2456
     54  N         45.6020  -57.6020  -13.4190 N.3   108  ARG108     -0.1245
     55  CA        44.1730  -57.2910  -13.5120 C.3   108  ARG108      0.1563
     56  C         43.9390  -55.9190  -14.1390 C.2   108  ARG108      0.2260
     57  O         43.0940  -55.7730  -15.0250 O.2   108  ARG108     -0.2867
     58  CB        43.5010  -57.3440  -12.1350 C.3   108  ARG108      0.0307
     59  CG        43.4410  -58.7240  -11.5160 C.3   108  ARG108      0.0489
     60  CD        42.7780  -58.6390  -10.1510 C.3   108  ARG108      0.2205
     61  NE        42.8180  -59.9060   -9.4300 N.pl3 108  ARG108     -0.0865
     62  CZ        42.3760  -60.0670   -8.1840 C.cat 108  ARG108      0.5346
     63  NH1       41.8440  -59.0400   -7.5250 N.pl3 108  ARG108      0.1354
     64  NH2       42.4480  -61.2560   -7.6030 N.pl3 108  ARG108      0.1354
     65  N         42.4990  -54.2870  -18.0550 N.3   112  ARG112     -0.1245
     66  CA        41.4350  -53.2810  -18.1650 C.3   112  ARG112      0.1563
     67  C         41.7610  -52.2380  -19.2270 C.2   112  ARG112      0.2260
     68  O         40.8900  -51.4690  -19.6390 O.2   112  ARG112     -0.2867
     69  CB        41.2110  -52.5710  -16.8260 C.3   112  ARG112      0.0307
     70  CG        40.4650  -53.3760  -15.8030 C.3   112  ARG112      0.0489
     71  CD        40.2240  -52.5470  -14.5490 C.3   112  ARG112      0.2205
     72  NE        39.4060  -53.2800  -13.5930 N.pl3 112  ARG112     -0.0865
     73  CZ        38.9670  -52.7940  -12.4350 C.cat 112  ARG112      0.5346
     74  NH1       38.2180  -53.5600  -11.6650 N.pl3 112  ARG112      0.1354
     75  NH2       39.2620  -51.5520  -12.0500 N.pl3 112  ARG112      0.1354
     76  N         42.4780  -61.0270   -1.4170 N.3   149  SER149     -0.1202
     77  CA        41.6280  -61.1480   -2.5950 C.3   149  SER149      0.2020
     78  C         42.4890  -61.4080   -3.8360 C.2   149  SER149      0.2619
     79  O         42.5150  -60.6150   -4.7810 O.2   149  SER149     -0.2717
     80  CB        40.7340  -59.9020   -2.7400 C.3   149  SER149      0.2103
     81  OG        39.6720  -60.1430   -3.6610 O.3   149  SER149     -0.2182
     82  N         43.1970  -62.5350   -3.8070 N.am  150  ASN150     -0.1960
     83  CA        44.1390  -62.9040   -4.8680 C.3   150  ASN150      0.1819
     84  C         43.6480  -64.0350   -5.7460 C.2   150  ASN150      0.2621
     85  O         43.9250  -64.0540   -6.9450 O.2   150  ASN150     -0.2715
     86  CB        45.4890  -63.2910   -4.2670 C.3   150  ASN150      0.1195
     87  CG        46.1570  -62.1340   -3.5740 C.2   150  ASN150      0.2630
     88  OD1       46.1900  -62.0640   -2.3470 O.2   150  ASN150     -0.2716
     89  ND2       46.6610  -61.2010   -4.3540 N.am  150  ASN150     -0.0877
     90  N         42.9390  -64.9800   -5.1300 N.am  151  LYS151     -0.1964
     91  CA        42.5820  -66.2450   -5.7760 C.3   151  LYS151      0.1713
     92  C         41.0950  -66.5320   -5.5980 C.2   151  LYS151      0.2458
     93  O         40.4820  -66.0110   -4.6700 O.2   151  LYS151     -0.2730
     94  CB        43.4040  -67.3880   -5.1820 C.3   151  LYS151      0.0311
     95  CG        44.8770  -67.3590   -5.5600 C.3   151  LYS151      0.0038
     96  CD        45.5620  -68.6650   -5.2270 C.3   151  LYS151      0.0206
     97  CE        46.9800  -68.6830   -5.7740 C.3   151  LYS151      0.1093
     98  NZ        47.5840  -70.0470   -5.7300 N.3   151  LYS151     -0.1314
     99  N         40.5020  -67.3430   -6.5020 N.am  152  PRO152     -0.2727
    100  CA        39.0870  -67.6950   -6.3710 C.3   152  PRO152      0.1402
    101  C         38.7370  -68.3190   -5.0210 C.2   152  PRO152      0.2269
    102  O         37.6500  -68.0580   -4.4930 O.2   152  PRO152     -0.2865
    103  CB        38.8770  -68.6980   -7.5080 C.3   152  PRO152      0.0296
    104  CG        39.8350  -68.2460   -8.5480 C.3   152  PRO152      0.0237
    105  CD        41.0550  -67.7930   -7.7960 C.3   152  PRO152      0.0939
    106  N         38.1020  -65.5160   -2.6290 N.3   155  LEU155     -0.1245
    107  CA        36.7610  -64.9680   -2.8610 C.3   155  LEU155      0.1561
    108  C         35.7080  -65.8360   -2.1640 C.2   155  LEU155      0.2260
    109  O         34.8500  -65.3210   -1.4460 O.2   155  LEU155     -0.2867
    110  CB        36.4530  -64.8490   -4.3590 C.3   155  LEU155      0.0270
    111  CG        34.9860  -64.5980   -4.7600 C.3   155  LEU155      0.0019
    112  CD1       34.4260  -63.3110   -4.1520 C.3   155  LEU155      0.0001
    113  CD2       34.8250  -64.5850   -6.2780 C.3   155  LEU155      0.0001
@<TRIPOS>BOND
     1    68    67    2
     2    67    66    1
     3    66    65    1
     4    66    69    1
     5    69    70    1
     6    70    71    1
     7    57    56    2
     8    71    72    1
     9    56    55    1
    10    72    73    2
    11    55    54    1
    12    55    58    1
    13    73    75    1
    14    73    74    1
    15    58    59    1
    16    59    60    1
    17    60    61    1
    18    61    62    2
    19    38    36    1
    20    44    43    1
    21     9     8    1
    22     9    10    1
    23     5     6    1
    24     5     2    1
    25     8     3   am
    26   104   105    1
    27   104   103    1
    28    36    37    1
    29    36    33    1
    30    11    10    2
    31     3     4    2
    32     3     2    1
    33    62    64    1
    34    62    63    1
    35    10    12   am
    36     6     7    1
    37    45    43    1
    38    43    40    1
    39     2     1    1
    40   105    99    1
    41    40    39    1
    42    40    41    1
    43    39    34   am
    44   103   100    1
    45    34    33    1
    46    34    35    2
    47    33    32    1
    48    85    84    2
    49     7     1    1
    50    12    13    1
    51    99   100    1
    52    99    92   am
    53    32    25   am
    54   100   101    1
    55   113   111    1
    56    41    42    2
    57    20    19    1
    58    20    21    1
    59    19    14   am
    60    52    51   ar
    61    13    14    1
    62    13    16    1
    63    91    92    1
    64    91    94    1
    65    91    90    1
    66    97    98    1
    67    97    96    1
    68    84    90   am
    69    84    83    1
    70    14    15    2
    71    92    93    2
    72    95    96    1
    73    95    94    1
    74    21    23   am
    75    21    22    2
    76    31    30    1
    77    23    24    1
    78    25    26    2
    79    25    24    1
    80   101   102    2
    81    51    53   ar
    82    51    50    1
    83    83    86    1
    84    83    82    1
    85    79    78    2
    86   111   110    1
    87   111   112    1
    88    30    29    1
    89    24    27    1
    90    16    17    1
    91    16    18    1
    92   110   107    1
    93    89    87   am
    94    86    87    1
    95    49    48    2
    96    27    28    1
    97    50    47    1
    98    78    82   am
    99    78    77    1
   100    81    80    1
   101    87    88    2
   102    28    29    1
   103    48    47    1
   104   107   106    1
   105   107   108    1
   106    47    46    1
   107    80    77    1
   108    77    76    1
   109   108   109    2
