@<TRIPOS>MOLECULE
tmp/3iipB00.pdb
 75 70 0 0 0
SMALL
GASTEIGER

@<TRIPOS>ATOM
      1  N         67.3200   18.6080  -35.5260 N.3   115  ALA115     -0.1231
      2  CA        67.4520   19.8690  -34.8420 C.3   115  ALA115      0.1694
      3  C         68.4320   20.7600  -35.6140 C.2   115  ALA115      0.2595
      4  O         68.2330   22.0360  -35.6860 O.2   115  ALA115     -0.2718
      5  CB        67.9250   19.6470  -33.3300 C.3   115  ALA115      0.0304
      6  N         69.5080   20.1380  -36.1550 N.am  116  GLN116     -0.1934
      7  CA        70.5220   20.9420  -36.8530 C.3   116  GLN116      0.1817
      8  C         70.0820   21.3440  -38.2800 C.2   116  GLN116      0.2332
      9  O         70.3860   22.3960  -38.7720 O.2   116  GLN116     -0.2860
     10  CB        71.9970   20.4880  -36.6830 C.2   116  GLN116      0.0077
     11  CG        72.2320   19.0290  -36.5980 C.2   116  GLN116      0.0587
     12  CD        73.6010   18.5740  -36.0920 C.2   116  GLN116      0.2841
     13  OE1       74.1490   19.0190  -35.0940 O.2   116  GLN116     -0.2667
     14  NE2       74.1090   17.6400  -36.7840 N.am  116  GLN116     -0.0837
     15  N         66.2040   23.2030  -36.9780 N.3   119  GLY119     -0.1210
     16  CA        66.1550   23.8810  -35.6980 C.3   119  GLY119      0.1956
     17  C         65.4840   23.0200  -34.6180 C.2   119  GLY119      0.2613
     18  O         64.5960   22.2070  -34.9170 O.2   119  GLY119     -0.2717
     19  N         65.9230   23.2180  -33.3740 N.am  120  SER120     -0.1938
     20  CA        65.3220   22.6850  -32.1410 C.3   120  SER120      0.2055
     21  C         63.7600   22.8050  -32.0520 C.2   120  SER120      0.2642
     22  O         63.0980   21.8630  -31.7020 O.2   120  SER120     -0.2714
     23  CB        66.0130   23.2950  -30.9180 C.3   120  SER120      0.2130
     24  OG        67.2830   22.7260  -30.8480 O.3   120  SER120     -0.2179
     25  N         63.2370   23.9460  -32.4630 N.am  121  GLN121     -0.1976
     26  CA        61.7900   24.2810  -32.4490 C.3   121  GLN121      0.1601
     27  C         61.0060   23.3430  -33.3050 C.2   121  GLN121      0.2287
     28  O         59.8050   23.3760  -33.2390 O.2   121  GLN121     -0.2864
     29  CB        61.5300   25.6280  -33.1000 C.3   121  GLN121      0.0394
     30  CG        62.6930   26.5510  -32.9850 C.3   121  GLN121      0.0908
     31  CD        63.6910   26.5860  -34.2000 C.2   121  GLN121      0.2608
     32  OE1       63.3860   27.1340  -35.3250 O.2   121  GLN121     -0.2717
     33  NE2       64.9370   26.2010  -33.8890 N.am  121  GLN121     -0.0878
     34  N         67.4300   17.2280  -23.9520 N.3   159  GLU159     -0.1231
     35  CA        67.7290   18.6120  -24.0880 C.3   159  GLU159      0.1699
     36  C         69.2080   18.8330  -24.7610 C.2   159  GLU159      0.2592
     37  O         69.4190   19.6420  -25.7320 O.2   159  GLU159     -0.2718
     38  CB        67.6670   19.2840  -22.7130 C.3   159  GLU159      0.0402
     39  CG        68.0030   20.8090  -22.8710 C.3   159  GLU159      0.1161
     40  CD        67.8960   21.5550  -21.5670 C.2   159  GLU159      0.3649
     41  OE1       67.1650   21.0580  -20.6770 O.co2 159  GLU159     -0.2457
     42  OE2       68.5800   22.5910  -21.3740 O.co2 159  GLU159     -0.2457
     43  N         70.1980   18.1210  -24.2070 N.am  160  LYS160     -0.1980
     44  CA        71.5140   18.0270  -24.7680 C.3   160  LYS160      0.1596
     45  C         71.4820   17.6730  -26.2540 C.2   160  LYS160      0.2287
     46  O         72.2120   18.2360  -27.0330 O.2   160  LYS160     -0.2864
     47  CB        72.3380   17.0210  -23.9760 C.3   160  LYS160      0.0298
     48  CG        73.7280   16.8860  -24.5360 C.3   160  LYS160      0.0038
     49  CD        74.6670   16.0440  -23.6310 C.3   160  LYS160      0.0206
     50  CE        75.5680   15.1200  -24.5100 C.3   160  LYS160      0.1093
     51  NZ        76.6340   14.4690  -23.7330 N.3   160  LYS160     -0.1314
     52  N         69.3550   18.4610  -28.4110 N.3   162  GLY162     -0.1210
     53  CA        68.7850   19.5310  -29.1960 C.3   162  GLY162      0.1956
     54  C         67.2880   19.4890  -29.4130 C.2   162  GLY162      0.2611
     55  O         66.7970   20.1170  -30.3550 O.2   162  GLY162     -0.2717
     56  N         66.5390   18.7310  -28.5930 N.am  163  ALA163     -0.1979
     57  CA        65.0590   18.8130  -28.6170 C.3   163  ALA163      0.1597
     58  C         64.6000   20.1970  -28.2660 C.2   163  ALA163      0.2287
     59  O         65.1980   20.8320  -27.3840 O.2   163  ALA163     -0.2864
     60  CB        64.4070   17.7670  -27.7160 C.3   163  ALA163      0.0319
     61  N         65.2270   23.2420  -18.9900 N.3   193  THR193     -0.1203
     62  CA        64.6170   24.5110  -19.1810 C.3   193  THR193      0.1994
     63  C         63.8680   24.4460  -20.4620 C.2   193  THR193      0.2617
     64  O         63.3120   25.5010  -20.9160 O.2   193  THR193     -0.2717
     65  CB        65.6130   25.7120  -19.1670 C.3   193  THR193      0.1784
     66  OG1       65.7220   26.1590  -20.4900 O.3   193  THR193     -0.2211
     67  CG2       66.9170   25.3130  -19.1350 C.3   193  THR193      0.0376
     68  N         63.8350   23.2590  -21.1000 N.am  194  LEU194     -0.1979
     69  CA        62.9040   23.1060  -22.1750 C.3   194  LEU194      0.1596
     70  C         61.4390   23.3390  -21.7040 C.2   194  LEU194      0.2287
     71  O         61.1050   23.1100  -20.5110 O.2   194  LEU194     -0.2864
     72  CB        63.0360   21.6720  -22.7290 C.3   194  LEU194      0.0297
     73  CG        64.3270   21.2700  -23.4770 C.3   194  LEU194      0.0022
     74  CD1       64.1660   19.8320  -23.9900 C.3   194  LEU194      0.0001
     75  CD2       64.5790   22.3340  -24.6690 C.3   194  LEU194      0.0001
@<TRIPOS>BOND
     1     9     8    2
     2     8     7    1
     3    15    16    1
     4     7    10    1
     5     7     6    1
     6    14    12   am
     7    10    11    2
     8    11    12    1
     9     6     3   am
    10    12    13    2
    11    16    17    1
    12     4     3    2
    13     3     2    1
    14     1     2    1
    15    32    31    2
    16    18    17    2
    17     2     5    1
    18    17    19   am
    19    31    33   am
    20    31    30    1
    21    19    20    1
    22    27    28    2
    23    27    26    1
    24    29    30    1
    25    29    26    1
    26    25    26    1
    27    25    21   am
    28    20    21    1
    29    20    23    1
    30    21    22    2
    31    23    24    1
    32    55    54    2
    33    54    53    1
    34    54    56   am
    35    53    52    1
    36    57    56    1
    37    57    58    1
    38    57    60    1
    39    58    59    2
    40    46    45    2
    41    45    44    1
    42    37    36    2
    43    44    43    1
    44    44    47    1
    45    36    43   am
    46    36    35    1
    47    75    73    1
    48    48    47    1
    49    48    49    1
    50    50    51    1
    51    50    49    1
    52    35    34    1
    53    35    38    1
    54    74    73    1
    55    73    72    1
    56    39    38    1
    57    39    40    1
    58    72    69    1
    59    69    70    1
    60    69    68    1
    61    70    71    2
    62    40    42   ar
    63    40    41   ar
    64    68    63   am
    65    64    63    2
    66    66    65    1
    67    63    62    1
    68    62    65    1
    69    62    61    1
    70    65    67    1
