@<TRIPOS>MOLECULE
tmp/3iiqB01.pdb
 104 98 0 0 0
SMALL
GASTEIGER

@<TRIPOS>ATOM
      1  N         -1.8000   40.9470  -38.1840 N.3    98  GLN98      -0.1245
      2  CA        -2.1380   41.0080  -39.5930 C.3    98  GLN98       0.1566
      3  C         -3.4700   41.7840  -39.7510 C.2    98  GLN98       0.2260
      4  O         -4.4460   41.4930  -39.0490 O.2    98  GLN98      -0.2867
      5  CB        -2.3080   39.6000  -40.1150 C.3    98  GLN98       0.0367
      6  CG        -2.7150   39.5370  -41.6480 C.3    98  GLN98       0.0905
      7  CD        -2.7330   38.1180  -42.1300 C.2    98  GLN98       0.2608
      8  OE1       -2.5230   37.2290  -41.3200 O.2    98  GLN98      -0.2717
      9  NE2       -2.9020   37.8990  -43.4140 N.am   98  GLN98      -0.0878
     10  N         -6.1920   43.3710  -42.5550 N.3   100  PHE100     -0.1241
     11  CA        -6.7350   43.2530  -43.8870 C.3   100  PHE100      0.1605
     12  C         -7.2740   44.5540  -44.4880 C.2   100  PHE100      0.2264
     13  O         -7.6690   45.5080  -43.8060 O.2   100  PHE100     -0.2867
     14  CB        -7.7880   42.1450  -43.9520 C.3   100  PHE100      0.0534
     15  CG        -7.2660   40.7840  -43.5130 C.ar  100  PHE100     -0.0203
     16  CD1       -6.9720   40.5170  -42.1770 C.ar  100  PHE100     -0.0042
     17  CD2       -7.0850   39.7540  -44.4480 C.ar  100  PHE100     -0.0042
     18  CE1       -6.4780   39.2490  -41.7500 C.ar  100  PHE100     -0.0003
     19  CE2       -6.6030   38.4700  -44.0460 C.ar  100  PHE100     -0.0003
     20  CZ        -6.3060   38.2160  -42.6770 C.ar  100  PHE100     -0.0000
     21  N         -3.7460   41.9630  -47.3660 N.3   107  SER107     -0.1217
     22  CA        -3.4090   42.1010  -45.9680 C.3   107  SER107      0.1889
     23  C         -2.0250   42.6720  -45.7650 C.2   107  SER107      0.2288
     24  O         -1.1910   42.5720  -46.6580 O.2   107  SER107     -0.2866
     25  CB        -3.5760   40.7710  -45.2120 C.3   107  SER107      0.2089
     26  OG        -2.7600   39.7330  -45.6760 O.3   107  SER107     -0.2183
     27  N         -3.0300   31.8580  -37.5600 N.3   141  VAL141     -0.1245
     28  CA        -4.0970   32.8660  -37.4990 C.3   141  VAL141      0.1561
     29  C         -5.2800   32.1670  -36.8200 C.2   141  VAL141      0.2260
     30  O         -5.7660   31.1840  -37.3810 O.2   141  VAL141     -0.2867
     31  CB        -4.4870   33.2990  -38.9400 C.3   141  VAL141      0.0252
     32  CG1       -5.6310   34.2850  -38.8980 C.3   141  VAL141      0.0019
     33  CG2       -3.3270   33.8830  -39.6480 C.3   141  VAL141      0.0019
     34  N         -8.5610   32.5880  -36.3200 N.3   143  ILE143     -0.1231
     35  CA        -9.8630   32.5140  -37.0330 C.3   143  ILE143      0.1692
     36  C         -9.7780   31.8260  -38.4050 C.2   143  ILE143      0.2591
     37  O        -10.8070   31.6510  -39.0620 O.2   143  ILE143     -0.2718
     38  CB       -10.5110   33.9380  -37.2250 C.3   143  ILE143      0.0266
     39  CG1       -9.6430   34.7970  -38.1860 C.3   143  ILE143      0.0019
     40  CG2      -10.7870   34.6090  -35.8500 C.3   143  ILE143      0.0020
     41  CD1      -10.1720   36.2310  -38.4460 C.3   143  ILE143      0.0001
     42  N         -8.5770   31.4720  -38.8550 N.am  144  ALA144     -0.1980
     43  CA        -8.3430   30.8230  -40.1890 C.3   144  ALA144      0.1597
     44  C         -8.3100   29.3060  -40.0780 C.2   144  ALA144      0.2287
     45  O         -7.8350   28.7540  -39.0580 O.2   144  ALA144     -0.2864
     46  CB        -7.0640   31.3030  -40.8270 C.3   144  ALA144      0.0319
     47  N         -9.7680   22.6940  -51.2540 N.3   150  MET150     -0.1245
     48  CA        -8.8080   23.3970  -52.1200 C.3   150  MET150      0.1570
     49  C         -7.4350   22.7090  -52.1770 C.2   150  MET150      0.2261
     50  O         -6.6010   23.0750  -52.9640 O.2   150  MET150     -0.2867
     51  CB        -8.6300   24.8570  -51.6820 C.3   150  MET150      0.0387
     52  CG        -9.8930   25.6950  -51.5320 C.3   150  MET150      0.0595
     53  SD       -10.6860   25.8290  -53.1320 S.3   150  MET150     -0.1393
     54  CE       -12.1750   24.8170  -52.8820 C.3   150  MET150      0.0692
     55  N          1.7900   29.8160  -41.7090 N.3   176  ARG176     -0.1231
     56  CA         1.0660   28.6300  -42.1620 C.3   176  ARG176      0.1694
     57  C         -0.3260   28.8670  -42.6990 C.2   176  ARG176      0.2592
     58  O         -0.8440   28.0360  -43.4660 O.2   176  ARG176     -0.2718
     59  CB         1.0750   27.5800  -41.0410 C.3   176  ARG176      0.0321
     60  CG         1.9070   26.3410  -41.4260 C.3   176  ARG176      0.0489
     61  CD         3.1730   26.4940  -40.9560 C.3   176  ARG176      0.2205
     62  NE         4.2260   25.5330  -41.4090 N.pl3 176  ARG176     -0.0865
     63  CZ         4.5250   24.3610  -40.7790 C.cat 176  ARG176      0.5346
     64  NH1        3.7050   23.8440  -39.8580 N.pl3 176  ARG176      0.1354
     65  NH2        5.5750   23.6470  -41.1700 N.pl3 176  ARG176      0.1354
     66  N         -0.9430   29.9660  -42.2640 N.am  177  ASP177     -0.1960
     67  CA        -2.2960   30.2970  -42.7400 C.3   177  ASP177      0.1840
     68  C         -2.1560   31.3460  -43.8250 C.2   177  ASP177      0.2622
     69  O         -3.1570   31.8470  -44.3330 O.2   177  ASP177     -0.2715
     70  CB        -3.2590   30.7440  -41.5910 C.3   177  ASP177      0.1450
     71  CG        -3.5110   29.6310  -40.6030 C.2   177  ASP177      0.3671
     72  OD1       -3.3960   29.8630  -39.3550 O.co2 177  ASP177     -0.2456
     73  OD2       -3.7640   28.4590  -41.0640 O.co2 177  ASP177     -0.2456
     74  N         -0.9160   31.6890  -44.1840 N.am  178  ASN178     -0.1958
     75  CA        -0.7420   32.6650  -45.2430 C.3   178  ASN178      0.1819
     76  C          0.3160   32.1730  -46.2260 C.2   178  ASN178      0.2622
     77  O          1.1940   32.9180  -46.6170 O.2   178  ASN178     -0.2715
     78  CB        -0.2810   34.0130  -44.6360 C.3   178  ASN178      0.1195
     79  CG        -1.3750   34.7180  -43.8400 C.2   178  ASN178      0.2630
     80  OD1       -2.3690   35.1910  -44.3930 O.2   178  ASN178     -0.2716
     81  ND2       -1.1940   34.7880  -42.5240 N.am  178  ASN178     -0.0877
     82  N          0.2250   30.9230  -46.6300 N.am  179  SER179     -0.1936
     83  CA         1.2700   30.3930  -47.5030 C.3   179  SER179      0.2055
     84  C          0.5950   29.4260  -48.5090 C.2   179  SER179      0.2642
     85  O          0.0230   28.4250  -48.0820 O.2   179  SER179     -0.2714
     86  CB         2.2900   29.6430  -46.6620 C.3   179  SER179      0.2130
     87  OG         3.0880   28.7410  -47.4600 O.3   179  SER179     -0.2179
     88  N          0.6720   29.7330  -49.8110 N.am  180  ALA180     -0.1977
     89  CA         0.2920   28.8320  -50.9050 C.3   180  ALA180      0.1597
     90  C          1.4420   27.8780  -51.2270 C.2   180  ALA180      0.2287
     91  O          2.3480   28.2280  -52.0010 O.2   180  ALA180     -0.2864
     92  CB        -0.1170   29.6790  -52.2110 C.3   180  ALA180      0.0319
     93  N         -1.4990   22.9240  -51.4490 N.3   184  TYR184     -0.1241
     94  CA        -2.3710   23.3490  -52.5420 C.3   184  TYR184      0.1605
     95  C         -1.8770   22.9060  -53.8970 C.2   184  TYR184      0.2264
     96  O         -2.6880   22.7270  -54.8220 O.2   184  TYR184     -0.2867
     97  CB        -2.5980   24.8520  -52.4900 C.3   184  TYR184      0.0534
     98  CG        -3.1830   25.2350  -51.1280 C.ar  184  TYR184     -0.0201
     99  CD1       -2.3600   25.6140  -50.0610 C.ar  184  TYR184     -0.0009
    100  CD2       -4.5900   25.1730  -50.9020 C.ar  184  TYR184     -0.0009
    101  CE1       -2.9020   25.8950  -48.7710 C.ar  184  TYR184      0.0417
    102  CE2       -5.1180   25.4670  -49.6520 C.ar  184  TYR184      0.0417
    103  CZ        -4.2980   25.8450  -48.5880 C.ar  184  TYR184      0.1957
    104  OH        -4.9210   26.1470  -47.3460 O.3   184  TYR184     -0.2866
@<TRIPOS>BOND
     1    96    95    2
     2    95    94    1
     3    53    54    1
     4    53    52    1
     5    50    49    2
     6    94    97    1
     7    94    93    1
     8    97    98    1
     9    92    89    1
    10    49    48    1
    11    48    51    1
    12    48    47    1
    13    91    90    2
    14    51    52    1
    15    90    89    1
    16    98   100   ar
    17    98    99   ar
    18    89    88    1
    19   100   102   ar
    20    99   101   ar
    21    88    84   am
    22   102   103   ar
    23   101   103   ar
    24   103   104    1
    25    84    85    2
    26    84    83    1
    27    83    86    1
    28    83    82    1
    29    87    86    1
    30    21    22    1
    31    24    23    2
    32    82    76   am
    33    77    76    2
    34    76    75    1
    35    22    23    1
    36    22    25    1
    37    26    25    1
    38    75    78    1
    39    75    74    1
    40    78    79    1
    41    12    11    1
    42    12    13    2
    43    17    19   ar
    44    17    15   ar
    45    80    79    2
    46    69    68    2
    47    74    68   am
    48    19    20   ar
    49    14    11    1
    50    14    15    1
    51    11    10    1
    52    79    81   am
    53    68    67    1
    54    15    16   ar
    55    58    57    2
    56     9     7   am
    57    67    66    1
    58    67    70    1
    59    57    66   am
    60    57    56    1
    61    20    18   ar
    62    16    18   ar
    63    56    55    1
    64    56    59    1
    65     7     6    1
    66     7     8    2
    67     6     5    1
    68    70    71    1
    69    60    59    1
    70    60    61    1
    71    62    61    1
    72    62    63    2
    73    65    63    1
    74    73    71   ar
    75    46    43    1
    76    63    64    1
    77    71    72   ar
    78    43    44    1
    79    43    42    1
    80     5     2    1
    81    44    45    2
    82     3     2    1
    83     3     4    2
    84    33    31    1
    85     2     1    1
    86    37    36    2
    87    31    32    1
    88    31    28    1
    89    42    36   am
    90    41    39    1
    91    36    35    1
    92    39    38    1
    93    27    28    1
    94    28    29    1
    95    30    29    2
    96    38    35    1
    97    38    40    1
    98    35    34    1
