@<TRIPOS>MOLECULE
tmp/3iiqB00.pdb
 72 69 0 0 0
SMALL
GASTEIGER

@<TRIPOS>ATOM
      1  N          9.4000   39.2850  -51.2060 N.3     8  PRO8       -0.2102
      2  CA         8.2830   40.2060  -51.3340 C.3     8  PRO8        0.1504
      3  C          7.0750   39.8820  -50.4270 C.2     8  PRO8        0.2576
      4  O          6.2490   40.7750  -50.2200 O.2     8  PRO8       -0.2718
      5  CB         7.8560   40.0450  -52.8220 C.3     8  PRO8        0.0282
      6  CG         8.1490   38.6620  -53.1330 C.3     8  PRO8        0.0208
      7  CD         9.4410   38.3170  -52.3150 C.3     8  PRO8        0.0893
      8  N          6.9620   38.6450  -49.9070 N.am    9  SER9       -0.1938
      9  CA         5.7320   38.2390  -49.2070 C.3     9  SER9        0.2055
     10  C          5.9800   37.7570  -47.8080 C.2     9  SER9        0.2644
     11  O          7.1300   37.6850  -47.3390 O.2     9  SER9       -0.2714
     12  CB         4.9810   37.1940  -50.0170 C.3     9  SER9        0.2130
     13  OG         5.5510   35.8770  -49.8380 O.3     9  SER9       -0.2179
     14  N          4.9020   37.4790  -47.0760 N.am   10  GLY10      -0.1939
     15  CA         5.0540   37.1180  -45.6510 C.3    10  GLY10       0.2014
     16  C          5.0220   35.6070  -45.4650 C.2    10  GLY10       0.2639
     17  O          4.8990   35.1380  -44.3230 O.2    10  GLY10      -0.2714
     18  N          5.0190   34.8420  -46.5740 N.am   11  SER11      -0.1949
     19  CA         4.8720   33.3880  -46.4070 C.3    11  SER11       0.1924
     20  C          5.8520   32.6830  -45.4780 C.2    11  SER11       0.2314
     21  O          5.5220   31.5990  -44.9960 O.2    11  SER11      -0.2863
     22  CB         4.8810   32.6240  -47.7460 C.3    11  SER11       0.2116
     23  OG         6.2380   32.3730  -48.1100 O.3    11  SER11      -0.2180
     24  N         10.3330   30.2400  -55.9390 N.3    49  TYR49      -0.1241
     25  CA         9.5860   30.2380  -54.6920 C.3    49  TYR49       0.1605
     26  C         10.5420   29.9150  -53.6080 C.2    49  TYR49       0.2264
     27  O         11.5370   29.2240  -53.8570 O.2    49  TYR49      -0.2867
     28  CB         8.5230   29.1320  -54.6990 C.3    49  TYR49       0.0534
     29  CG         7.1250   29.5510  -55.1990 C.ar   49  TYR49      -0.0201
     30  CD1        6.9860   30.2920  -56.3900 C.ar   49  TYR49      -0.0009
     31  CD2        5.9690   29.2040  -54.4730 C.ar   49  TYR49      -0.0009
     32  CE1        5.7590   30.6810  -56.8600 C.ar   49  TYR49       0.0417
     33  CE2        4.6880   29.5940  -54.9490 C.ar   49  TYR49       0.0417
     34  CZ         4.6190   30.3280  -56.1400 C.ar   49  TYR49       0.1957
     35  OH         3.4120   30.7570  -56.6530 O.3    49  TYR49      -0.2866
     36  N         10.3760   28.1030  -49.6800 N.3    51  LYS51      -0.1245
     37  CA         9.5960   27.4100  -48.6410 C.3    51  LYS51       0.1561
     38  C         10.5190   26.5280  -47.7890 C.2    51  LYS51       0.2260
     39  O         11.7430   26.4380  -48.0630 O.2    51  LYS51      -0.2867
     40  CB         8.4640   26.5390  -49.2340 C.3    51  LYS51       0.0271
     41  CG         7.4670   27.2410  -50.1910 C.3    51  LYS51       0.0035
     42  CD         6.4850   28.1070  -49.3840 C.3    51  LYS51       0.0206
     43  CE         5.3860   28.4750  -50.2650 C.3    51  LYS51       0.1093
     44  NZ         5.0660   29.9060  -50.1090 N.3    51  LYS51      -0.1314
     45  N         -0.9160   31.6890  -44.1840 N.3   178  ASN178     -0.1225
     46  CA        -0.7420   32.6650  -45.2430 C.3   178  ASN178      0.1785
     47  C          0.3160   32.1730  -46.2260 C.2   178  ASN178      0.2598
     48  O          1.1940   32.9180  -46.6170 O.2   178  ASN178     -0.2718
     49  CB        -0.2810   34.0130  -44.6360 C.3   178  ASN178      0.1169
     50  CG        -1.3750   34.7180  -43.8400 C.2   178  ASN178      0.2627
     51  OD1       -2.3690   35.1910  -44.3930 O.2   178  ASN178     -0.2716
     52  ND2       -1.1940   34.7880  -42.5240 N.am  178  ASN178     -0.0877
     53  N          0.2250   30.9230  -46.6300 N.am  179  SER179     -0.1938
     54  CA         1.2700   30.3930  -47.5030 C.3   179  SER179      0.2055
     55  C          0.5950   29.4260  -48.5090 C.2   179  SER179      0.2642
     56  O          0.0230   28.4250  -48.0820 O.2   179  SER179     -0.2714
     57  CB         2.2900   29.6430  -46.6620 C.3   179  SER179      0.2130
     58  OG         3.0880   28.7410  -47.4600 O.3   179  SER179     -0.2179
     59  N          0.6720   29.7330  -49.8110 N.am  180  ALA180     -0.1977
     60  CA         0.2920   28.8320  -50.9050 C.3   180  ALA180      0.1597
     61  C          1.4420   27.8780  -51.2270 C.2   180  ALA180      0.2287
     62  O          2.3480   28.2280  -52.0010 O.2   180  ALA180     -0.2864
     63  CB        -0.1170   29.6790  -52.2110 C.3   180  ALA180      0.0319
     64  N          4.2840   44.9630  -48.5340 N.3   208  GLU208     -0.1245
     65  CA         4.0740   44.4480  -49.8800 C.3   208  GLU208      0.1567
     66  C          3.5530   45.5500  -50.7850 C.2   208  GLU208      0.2260
     67  O          2.4040   45.9630  -50.6720 O.2   208  GLU208     -0.2867
     68  CB         3.1100   43.2620  -49.8610 C.3   208  GLU208      0.0388
     69  CG         3.4140   42.2020  -50.9040 C.3   208  GLU208      0.1160
     70  CD         2.5440   40.9710  -50.7650 C.2   208  GLU208      0.3649
     71  OE1        1.8390   40.8570  -49.7490 O.co2 208  GLU208     -0.2457
     72  OE2        2.5690   40.1160  -51.6710 O.co2 208  GLU208     -0.2457
@<TRIPOS>BOND
     1    32    30   ar
     2    32    34   ar
     3    35    34    1
     4    30    29   ar
     5    34    33   ar
     6    24    25    1
     7    29    28    1
     8    29    31   ar
     9    33    31   ar
    10    28    25    1
    11    25    26    1
    12    27    26    2
    13     6     5    1
    14     6     7    1
    15     5     2    1
    16     7     1    1
    17    63    60    1
    18    62    61    2
    19    72    70   ar
    20     2     1    1
    21     2     3    1
    22    61    60    1
    23    60    59    1
    24    69    70    1
    25    69    68    1
    26    66    67    2
    27    66    65    1
    28    70    71   ar
    29     3     4    2
    30     3     8   am
    31    43    44    1
    32    43    42    1
    33    41    42    1
    34    41    40    1
    35    12    13    1
    36    12     9    1
    37     8     9    1
    38    65    68    1
    39    65    64    1
    40    59    55   am
    41    36    37    1
    42    40    37    1
    43     9    10    1
    44    37    38    1
    45    55    56    2
    46    55    54    1
    47    23    22    1
    48    39    38    2
    49    10    11    2
    50    10    14   am
    51    22    19    1
    52    54    57    1
    53    54    53    1
    54    58    57    1
    55    14    15    1
    56    53    47   am
    57    48    47    2
    58    18    19    1
    59    18    16   am
    60    19    20    1
    61    47    46    1
    62    15    16    1
    63    20    21    2
    64    16    17    2
    65    46    49    1
    66    46    45    1
    67    49    50    1
    68    51    50    2
    69    50    52   am
