@<TRIPOS>MOLECULE
tmp/3iiqA01.pdb
 79 74 0 0 0
SMALL
GASTEIGER

@<TRIPOS>ATOM
      1  N          8.0610   23.2210   -2.4740 N.3     1  PHE1       -0.1241
      2  CA         8.7140   23.8940   -3.6630 C.3     1  PHE1        0.1605
      3  C          7.7900   23.9300   -4.9030 C.2     1  PHE1        0.2264
      4  O          6.6260   23.5020   -4.8150 O.2     1  PHE1       -0.2867
      5  CB        10.1660   23.3540   -3.9440 C.3     1  PHE1        0.0534
      6  CG        10.2100   22.0820   -4.7980 C.ar    1  PHE1       -0.0203
      7  CD1        9.9400   20.8070   -4.2350 C.ar    1  PHE1       -0.0042
      8  CD2       10.5180   22.1590   -6.1630 C.ar    1  PHE1       -0.0042
      9  CE1        9.9650   19.6350   -5.0270 C.ar    1  PHE1       -0.0003
     10  CE2       10.5550   21.0040   -6.9570 C.ar    1  PHE1       -0.0003
     11  CZ        10.2710   19.7310   -6.3960 C.ar    1  PHE1       -0.0000
     12  N          7.5740   22.4650   -8.1230 N.3     3  TYR3       -0.1241
     13  CA         6.9890   21.2990   -8.8390 C.3     3  TYR3        0.1605
     14  C          6.3750   20.3130   -7.8440 C.2     3  TYR3        0.2264
     15  O          6.8070   20.2530   -6.7100 O.2     3  TYR3       -0.2867
     16  CB         7.9950   20.5910   -9.7500 C.3     3  TYR3        0.0534
     17  CG         8.6700   21.5530  -10.6720 C.ar    3  TYR3       -0.0201
     18  CD1        9.9150   22.1120  -10.3300 C.ar    3  TYR3       -0.0009
     19  CD2        8.0540   21.9630  -11.8660 C.ar    3  TYR3       -0.0009
     20  CE1       10.5520   23.0210  -11.1570 C.ar    3  TYR3        0.0417
     21  CE2        8.6900   22.8700  -12.7160 C.ar    3  TYR3        0.0417
     22  CZ         9.9410   23.4090  -12.3490 C.ar    3  TYR3        0.1957
     23  OH        10.5840   24.3230  -13.1610 O.3     3  TYR3       -0.2866
     24  N          3.4070   16.0660  -13.6890 N.3    24  LEU24      -0.1245
     25  CA         4.1510   17.0820  -12.9750 C.3    24  LEU24       0.1561
     26  C          3.4030   18.3960  -13.0640 C.2    24  LEU24       0.2260
     27  O          2.9050   18.7660  -14.1360 O.2    24  LEU24      -0.2867
     28  CB         5.5360   17.2260  -13.6380 C.3    24  LEU24       0.0270
     29  CG         6.5370   18.0510  -12.8780 C.3    24  LEU24       0.0019
     30  CD1        6.8330   17.5140  -11.5060 C.3    24  LEU24       0.0001
     31  CD2        7.8010   18.0880  -13.6930 C.3    24  LEU24       0.0001
     32  N          3.3600   22.5380  -12.1130 N.3    26  GLU26      -0.1245
     33  CA         4.1440   23.7170  -11.7860 C.3    26  GLU26       0.1567
     34  C          3.2200   24.6650  -11.0350 C.2    26  GLU26       0.2260
     35  O          2.2400   25.1880  -11.6010 O.2    26  GLU26      -0.2867
     36  CB         4.5860   24.4200  -13.0610 C.3    26  GLU26       0.0388
     37  CG         5.6920   23.7580  -13.7510 C.3    26  GLU26       0.1160
     38  CD         6.1320   24.4900  -15.0200 C.2    26  GLU26       0.3649
     39  OE1        5.7550   25.7140  -15.1520 O.co2  26  GLU26      -0.2457
     40  OE2        6.8500   23.8210  -15.8520 O.co2  26  GLU26      -0.2457
     41  N         -0.3560   24.2970  -12.6910 N.3   189  ARG189     -0.1245
     42  CA        -0.5790   23.8740  -14.0740 C.3   189  ARG189      0.1563
     43  C          0.1430   22.5570  -14.3360 C.2   189  ARG189      0.2260
     44  O          1.3130   22.3990  -14.0260 O.2   189  ARG189     -0.2867
     45  CB        -0.0600   24.9570  -15.0090 C.3   189  ARG189      0.0307
     46  CG        -0.1250   24.6380  -16.4100 C.3   189  ARG189      0.0489
     47  CD         0.1140   25.9060  -17.2880 C.3   189  ARG189      0.2205
     48  NE         1.5040   26.2890  -17.3290 N.pl3 189  ARG189     -0.0865
     49  CZ         2.3620   25.8700  -18.2810 C.cat 189  ARG189      0.5346
     50  NH1        1.9540   25.0310  -19.2550 N.pl3 189  ARG189      0.1354
     51  NH2        3.6350   26.2870  -18.2770 N.pl3 189  ARG189      0.1354
     52  N          2.0770   20.2550  -16.5900 N.3   191  THR191     -0.1203
     53  CA         2.8940   20.4900  -17.7910 C.3   191  THR191      0.1994
     54  C          3.4300   19.2250  -18.4260 C.2   191  THR191      0.2617
     55  O          3.8580   19.2320  -19.5570 O.2   191  THR191     -0.2717
     56  CB         4.0940   21.4110  -17.4540 C.3   191  THR191      0.1784
     57  OG1        4.9070   20.7220  -16.5010 O.3   191  THR191     -0.2211
     58  CG2        3.6010   22.6250  -16.7750 C.3   191  THR191      0.0376
     59  N          3.4170   18.1050  -17.7170 N.am  192  ALA192     -0.1979
     60  CA         4.0000   16.9150  -18.3380 C.3   192  ALA192      0.1597
     61  C          3.5710   15.6280  -17.7150 C.2   192  ALA192      0.2287
     62  O          3.1760   15.6060  -16.5780 O.2   192  ALA192     -0.2864
     63  CB         5.6080   16.9950  -18.1940 C.3   192  ALA192      0.0319
     64  N          6.3900   12.8580  -21.5850 N.3   214  GLY214     -0.1210
     65  CA         6.5550   14.0250  -22.4700 C.3   214  GLY214      0.1956
     66  C          5.6780   15.1710  -21.9900 C.2   214  GLY214      0.2612
     67  O          5.0180   15.0430  -20.9710 O.2   214  GLY214     -0.2717
     68  N          5.6300   16.2660  -22.7720 N.am  215  GLY215     -0.1942
     69  CA         4.8090   17.4130  -22.4350 C.3   215  GLY215      0.2014
     70  C          3.3200   17.1380  -22.6820 C.2   215  GLY215      0.2638
     71  O          2.9690   16.2400  -23.4520 O.2   215  GLY215     -0.2714
     72  N          2.4670   17.9230  -22.0280 N.am  216  ILE216     -0.1977
     73  CA         1.0110   17.9280  -22.2740 C.3   216  ILE216      0.1596
     74  C          0.4980   19.3710  -22.3170 C.2   216  ILE216      0.2287
     75  O          1.1870   20.2850  -21.7550 O.2   216  ILE216     -0.2864
     76  CB         0.1690   17.1720  -21.1400 C.3   216  ILE216      0.0276
     77  CG1        0.5190   17.6980  -19.7470 C.3   216  ILE216      0.0022
     78  CG2        0.4370   15.6860  -21.1570 C.3   216  ILE216      0.0022
     79  CD1       -0.2340   17.0520  -18.6800 C.3   216  ILE216      0.0001
@<TRIPOS>BOND
     1    71    70    2
     2    68    69    1
     3    68    66   am
     4    70    69    1
     5    70    72   am
     6    65    66    1
     7    65    64    1
     8    74    73    1
     9    74    75    2
    10    73    72    1
    11    73    76    1
    12    66    67    2
    13    78    76    1
    14    76    77    1
    15    77    79    1
    16    55    54    2
    17    50    49    1
    18    54    53    1
    19    54    59   am
    20    60    63    1
    21    60    59    1
    22    60    61    1
    23    49    51    1
    24    49    48    2
    25    53    56    1
    26    53    52    1
    27    61    62    2
    28    56    58    1
    29    56    57    1
    30    48    47    1
    31    47    46    1
    32    46    45    1
    33    40    38   ar
    34    39    38   ar
    35    38    37    1
    36    45    42    1
    37    43    42    1
    38    43    44    2
    39    27    26    2
    40    42    41    1
    41    37    36    1
    42    31    29    1
    43    24    25    1
    44    28    25    1
    45    28    29    1
    46    23    22    1
    47    26    25    1
    48    36    33    1
    49    29    30    1
    50    21    22   ar
    51    21    19   ar
    52    22    20   ar
    53    32    33    1
    54    19    17   ar
    55    33    34    1
    56    35    34    2
    57    20    18   ar
    58    17    18   ar
    59    17    16    1
    60    16    13    1
    61    13    12    1
    62    13    14    1
    63    14    15    2
    64    10    11   ar
    65    10     8   ar
    66    11     9   ar
    67     8     6   ar
    68     9     7   ar
    69     3     4    2
    70     3     2    1
    71     6     7   ar
    72     6     5    1
    73     5     2    1
    74     2     1    1
