@<TRIPOS>MOLECULE
tmp/3iisA00.pdb
 172 164 0 0 0
SMALL
GASTEIGER

@<TRIPOS>ATOM
      1  N         15.6240   24.0010   -6.0660 N.3    11  LEU11      -0.1245
      2  CA        14.4110   23.1900   -6.1540 C.3    11  LEU11       0.1561
      3  C         13.5080   23.4590   -4.9680 C.2    11  LEU11       0.2260
      4  O         12.2800   23.5660   -5.1260 O.2    11  LEU11      -0.2867
      5  CB        14.7770   21.6980   -6.2780 C.3    11  LEU11       0.0270
      6  CG        13.5950   20.6970   -6.1750 C.3    11  LEU11       0.0019
      7  CD1       12.5220   20.8880   -7.2840 C.3    11  LEU11       0.0001
      8  CD2       14.0950   19.2690   -6.2090 C.3    11  LEU11       0.0001
      9  N          9.6050   24.5140   -4.7700 N.3    15  SER15      -0.1217
     10  CA         8.6950   23.3830   -4.4910 C.3    15  SER15       0.1889
     11  C          8.2250   23.2570   -3.0490 C.2    15  SER15       0.2288
     12  O          7.2980   22.4960   -2.8000 O.2    15  SER15      -0.2866
     13  CB         9.3220   22.0410   -4.8750 C.3    15  SER15       0.2089
     14  OG        10.5100   21.7480   -4.1100 O.3    15  SER15      -0.2183
     15  N          4.4360   23.9620   -2.3810 N.3    18  PHE18      -0.1241
     16  CA         3.6810   22.7910   -2.7560 C.3    18  PHE18       0.1605
     17  C          3.7910   21.6740   -1.6790 C.2    18  PHE18       0.2264
     18  O          2.7720   21.1000   -1.2640 O.2    18  PHE18      -0.2867
     19  CB         4.1930   22.3230   -4.1260 C.3    18  PHE18       0.0534
     20  CG         3.8270   20.8800   -4.4640 C.ar   18  PHE18      -0.0203
     21  CD1        2.5720   20.5620   -4.9760 C.ar   18  PHE18      -0.0042
     22  CD2        4.7700   19.8480   -4.2580 C.ar   18  PHE18      -0.0042
     23  CE1        2.2320   19.1950   -5.3140 C.ar   18  PHE18      -0.0003
     24  CE2        4.4390   18.5130   -4.5920 C.ar   18  PHE18      -0.0003
     25  CZ         3.1700   18.1960   -5.1290 C.ar   18  PHE18      -0.0000
     26  N          0.5100   19.5520    0.5340 N.3    22  VAL22      -0.1245
     27  CA         0.1200   18.1570    0.4200 C.3    22  VAL22       0.1561
     28  C         -0.2370   17.6670    1.8270 C.2    22  VAL22       0.2260
     29  O          0.4450   18.0270    2.7950 O.2    22  VAL22      -0.2867
     30  CB         1.2920   17.3320   -0.1610 C.3    22  VAL22       0.0252
     31  CG1        1.0170   15.8520   -0.1130 C.3    22  VAL22       0.0019
     32  CG2        1.6050   17.7540   -1.6040 C.3    22  VAL22       0.0019
     33  N          0.1860   14.9330    3.8540 N.3    24  TRP24      -0.1241
     34  CA         0.9950   13.7020    3.8830 C.3    24  TRP24       0.1605
     35  C          0.4060   12.5900    4.7180 C.2    24  TRP24       0.2264
     36  O          0.8250   11.4310    4.6080 O.2    24  TRP24      -0.2867
     37  CB         2.4230   13.9990    4.3210 C.3    24  TRP24       0.0550
     38  CG         3.0540   15.0060    3.4010 C.ar   24  TRP24       0.0003
     39  CD1        3.1300   16.3610    3.5770 C.ar   24  TRP24       0.0946
     40  CD2        3.6710   14.7360    2.1250 C.ar   24  TRP24       0.0152
     41  NE1        3.7410   16.9650    2.4970 N.ar   24  TRP24      -0.2442
     42  CE2        4.0980   15.9880    1.6000 C.ar   24  TRP24       0.0810
     43  CE3        3.9180   13.5660    1.3820 C.ar   24  TRP24       0.0012
     44  CZ2        4.7510   16.1060    0.3460 C.ar   24  TRP24       0.0191
     45  CZ3        4.6020   13.6560    0.1490 C.ar   24  TRP24       0.0001
     46  CH2        5.0000   14.9210   -0.3650 C.ar   24  TRP24       0.0015
     47  N         17.2500   -1.0560  -10.2340 N.3    51  MET51      -0.1245
     48  CA        17.8620    0.2420  -10.0460 C.3    51  MET51       0.1570
     49  C         18.5040    0.3390   -8.6750 C.2    51  MET51       0.2261
     50  O         19.6080    0.8740   -8.5410 O.2    51  MET51      -0.2867
     51  CB        16.8170    1.3460  -10.2630 C.3    51  MET51       0.0387
     52  CG        17.3660    2.7300  -10.0370 C.3    51  MET51       0.0595
     53  SD        16.2050    3.9430  -10.6530 S.3    51  MET51      -0.1393
     54  CE        16.7120    5.3260   -9.6550 C.3    51  MET51       0.0692
     55  N         22.8120    5.4970   -1.4320 N.3    60  LEU60      -0.1245
     56  CA        21.5850    4.9380   -0.8810 C.3    60  LEU60       0.1561
     57  C         21.5400    5.0920    0.6190 C.2    60  LEU60       0.2260
     58  O         20.5210    5.4910    1.1700 O.2    60  LEU60      -0.2867
     59  CB        21.4440    3.4560   -1.2510 C.3    60  LEU60       0.0270
     60  CG        20.9790    3.0170   -2.6340 C.3    60  LEU60       0.0019
     61  CD1       20.8290    1.4890   -2.6490 C.3    60  LEU60       0.0001
     62  CD2       19.6170    3.6530   -2.9960 C.3    60  LEU60       0.0001
     63  N         20.8190    8.6580    1.5620 N.3    63  ALA63      -0.1231
     64  CA        19.4270    9.0100    1.2680 C.3    63  ALA63       0.1694
     65  C         18.4920    8.4820    2.3330 C.2    63  ALA63       0.2591
     66  O         17.6020    9.2110    2.7880 O.2    63  ALA63      -0.2718
     67  CB        19.0460    8.4950   -0.1530 C.3    63  ALA63       0.0304
     68  N         18.7490    7.2630    2.8120 N.am   64  ALA64      -0.1980
     69  CA        17.9630    6.7330    3.9260 C.3    64  ALA64       0.1597
     70  C         18.1500    7.5780    5.1690 C.2    64  ALA64       0.2287
     71  O         17.1730    7.9840    5.8290 O.2    64  ALA64      -0.2864
     72  CB        18.3390    5.2300    4.1660 C.3    64  ALA64       0.0319
     73  N         16.1260   10.7700    5.0780 N.3    67  HIS67      -0.1241
     74  CA        14.7240   10.5490    5.3810 C.3    67  HIS67       0.1621
     75  C         14.4700   10.3160    6.8640 C.2    67  HIS67       0.2264
     76  O         13.4790   10.8280    7.3960 O.2    67  HIS67      -0.2867
     77  CB        14.1750    9.3620    4.5570 C.3    67  HIS67       0.0745
     78  CG        13.9260    9.6720    3.1080 C.ar   67  HIS67       0.0817
     79  ND1       14.9020    9.5660    2.1470 N.ar   67  HIS67      -0.2268
     80  CD2       12.7960   10.0710    2.4570 C.ar   67  HIS67       0.1154
     81  CE1       14.3960    9.9050    0.9670 C.ar   67  HIS67       0.1986
     82  NE2       13.1220   10.2040    1.1310 N.ar   67  HIS67      -0.2212
     83  N         13.5900   18.8660    3.5380 N.3    86  TRP86      -0.1241
     84  CA        13.1030   18.7310    2.1690 C.3    86  TRP86       0.1605
     85  C         14.2690   18.8170    1.1750 C.2    86  TRP86       0.2264
     86  O         14.4410   17.9710    0.2990 O.2    86  TRP86      -0.2867
     87  CB        12.0630   19.8290    1.9150 C.3    86  TRP86       0.0550
     88  CG        11.4340   19.8110    0.5720 C.ar   86  TRP86       0.0003
     89  CD1       11.6760   20.6950   -0.4470 C.ar   86  TRP86       0.0946
     90  CD2       10.4050   18.9070    0.0950 C.ar   86  TRP86       0.0152
     91  NE1       10.8770   20.3820   -1.5400 N.ar   86  TRP86      -0.2442
     92  CE2       10.0880   19.3030   -1.2180 C.ar   86  TRP86       0.0810
     93  CE3        9.7340   17.7980    0.6530 C.ar   86  TRP86       0.0012
     94  CZ2        9.1510   18.6080   -2.0190 C.ar   86  TRP86       0.0191
     95  CZ3        8.7860   17.1080   -0.1400 C.ar   86  TRP86       0.0001
     96  CH2        8.5130   17.5240   -1.4470 C.ar   86  TRP86       0.0015
     97  N         15.8910   15.8420   -1.2030 N.3    90  ASN90      -0.1240
     98  CA        15.9120   15.9620   -2.6500 C.3    90  ASN90       0.1653
     99  C         17.3370   15.8480   -3.2000 C.2    90  ASN90       0.2266
    100  O         17.5490   15.1910   -4.2060 O.2    90  ASN90      -0.2867
    101  CB        15.2240   17.2600   -3.1050 C.3    90  ASN90       0.1155
    102  CG        13.7130   17.1590   -3.0020 C.2    90  ASN90       0.2627
    103  OD1       13.1520   16.0480   -3.1180 O.2    90  ASN90      -0.2716
    104  ND2       13.0530   18.2740   -2.7540 N.am   90  ASN90      -0.0877
    105  N         18.4180   12.1980   -2.9900 N.3    93  LEU93      -0.1245
    106  CA        17.7620   11.3890   -4.0290 C.3    93  LEU93       0.1561
    107  C         18.3340   11.6820   -5.4120 C.2    93  LEU93       0.2260
    108  O         18.5820   10.7590   -6.2030 O.2    93  LEU93      -0.2867
    109  CB        16.2380   11.5650   -3.9660 C.3    93  LEU93       0.0270
    110  CG        15.5860   10.8830   -2.7490 C.3    93  LEU93       0.0019
    111  CD1       14.0840   11.0570   -2.8670 C.3    93  LEU93       0.0001
    112  CD2       15.9030    9.3740   -2.6840 C.3    93  LEU93       0.0001
    113  N         21.3970    9.7390   -5.8380 N.3    96  VAL96      -0.1231
    114  CA        21.1060    8.3260   -6.1240 C.3    96  VAL96       0.1692
    115  C         20.7070    8.1500   -7.6020 C.2    96  VAL96       0.2591
    116  O         21.2160    7.2740   -8.2830 O.2    96  VAL96      -0.2718
    117  CB        19.9670    7.8490   -5.2050 C.3    96  VAL96       0.0266
    118  CG1       19.4580    6.4870   -5.6760 C.3    96  VAL96       0.0020
    119  CG2       20.4430    7.7460   -3.7560 C.3    96  VAL96       0.0020
    120  N         19.8460    9.0430   -8.0990 N.am   97  ILE97      -0.1980
    121  CA        19.4060    8.9880   -9.4940 C.3    97  ILE97       0.1595
    122  C         20.6190    9.1000  -10.4590 C.2    97  ILE97       0.2287
    123  O         20.7380    8.3270  -11.4050 O.2    97  ILE97      -0.2864
    124  CB        18.3730   10.1390   -9.7890 C.3    97  ILE97       0.0276
    125  CG1       17.0790   10.0010   -8.9460 C.3    97  ILE97       0.0022
    126  CG2       18.1310   10.2400  -11.3160 C.3    97  ILE97       0.0022
    127  CD1       16.2340    8.8190   -9.3200 C.3    97  ILE97       0.0001
    128  N         10.1860    4.8550  -14.4940 N.3   109  TYR109     -0.1241
    129  CA         9.1730    5.8380  -14.8470 C.3   109  TYR109      0.1605
    130  C          8.0910    5.2490  -15.7890 C.2   109  TYR109      0.2264
    131  O          6.9180    5.3980  -15.5300 O.2   109  TYR109     -0.2867
    132  CB         9.8760    7.0090  -15.5140 C.3   109  TYR109      0.0534
    133  CG         8.9920    8.1280  -15.9990 C.ar  109  TYR109     -0.0201
    134  CD1        8.3030    8.9650  -15.1010 C.ar  109  TYR109     -0.0009
    135  CD2        8.9150    8.3970  -17.3730 C.ar  109  TYR109     -0.0009
    136  CE1        7.5390   10.0390  -15.5620 C.ar  109  TYR109      0.0417
    137  CE2        8.1590    9.4450  -17.8340 C.ar  109  TYR109      0.0417
    138  CZ         7.4450   10.2300  -16.9440 C.ar  109  TYR109      0.1957
    139  OH         6.7350   11.2830  -17.4610 O.3   109  TYR109     -0.2866
    140  N          1.9320   23.8090   -7.4960 N.3   133  ALA133     -0.1245
    141  CA         2.3350   22.5240   -8.1130 C.3   133  ALA133      0.1562
    142  C          3.0870   22.7630   -9.4040 C.2   133  ALA133      0.2260
    143  O          4.1070   22.1350   -9.6700 O.2   133  ALA133     -0.2867
    144  CB         1.1230   21.6130   -8.3600 C.3   133  ALA133      0.0290
    145  N          6.5290   23.8740   -8.6320 N.3   136  ALA136     -0.1231
    146  CA         7.3070   22.7600   -8.1330 C.3   136  ALA136      0.1694
    147  C          7.7970   21.9100   -9.2900 C.2   136  ALA136      0.2592
    148  O          8.9610   21.5190   -9.3260 O.2   136  ALA136     -0.2718
    149  CB         6.4930   21.9420   -7.1350 C.3   136  ALA136      0.0304
    150  N          6.9060   21.6450  -10.2400 N.am  137  TYR137     -0.1976
    151  CA         7.2890   20.8530  -11.4080 C.3   137  TYR137      0.1639
    152  C          8.3420   21.5630  -12.2780 C.2   137  TYR137      0.2290
    153  O          9.2950   20.9280  -12.7450 O.2   137  TYR137     -0.2864
    154  CB         6.0450   20.4370  -12.2420 C.3   137  TYR137      0.0560
    155  CG         6.3910   19.6050  -13.4570 C.ar  137  TYR137     -0.0198
    156  CD1        6.8760   18.2770  -13.3590 C.ar  137  TYR137     -0.0009
    157  CD2        6.2580   20.1450  -14.7650 C.ar  137  TYR137     -0.0009
    158  CE1        7.1870   17.5230  -14.5080 C.ar  137  TYR137      0.0417
    159  CE2        6.5660   19.3890  -15.8620 C.ar  137  TYR137      0.0417
    160  CZ         7.0410   18.1160  -15.7430 C.ar  137  TYR137      0.1957
    161  OH         7.3400   17.4120  -16.8860 O.3   137  TYR137     -0.2866
    162  N         11.4420   20.9650  -10.5750 N.3   140  PHE140     -0.1241
    163  CA        11.9250   19.6110  -10.8490 C.3   140  PHE140      0.1605
    164  C         12.6470   19.5400  -12.1950 C.2   140  PHE140      0.2264
    165  O         13.7070   18.9050  -12.3310 O.2   140  PHE140     -0.2867
    166  CB        10.7520   18.6030  -10.8020 C.3   140  PHE140      0.0534
    167  CG        11.1230   17.2350  -11.2810 C.ar  140  PHE140     -0.0203
    168  CD1       11.8050   16.3600  -10.4160 C.ar  140  PHE140     -0.0042
    169  CD2       10.8300   16.8260  -12.5840 C.ar  140  PHE140     -0.0042
    170  CE1       12.1780   15.0930  -10.8530 C.ar  140  PHE140     -0.0003
    171  CE2       11.2070   15.5530  -13.0230 C.ar  140  PHE140     -0.0003
    172  CZ        11.8880   14.6970  -12.1420 C.ar  140  PHE140     -0.0000
@<TRIPOS>BOND
     1   137   135   ar
     2   137   138   ar
     3   139   138    1
     4   135   133   ar
     5   138   136   ar
     6   161   160    1
     7   133   132    1
     8   133   134   ar
     9   159   160   ar
    10   159   157   ar
    11   130   131    2
    12   130   129    1
    13   160   158   ar
    14   136   134   ar
    15   132   129    1
    16   129   128    1
    17   157   155   ar
    18   158   156   ar
    19   155   156   ar
    20   155   154    1
    21   171   169   ar
    22   171   172   ar
    23   153   152    2
    24   169   167   ar
    25   165   164    2
    26   152   151    1
    27   154   151    1
    28   164   163    1
    29   172   170   ar
    30   151   150    1
    31   123   122    2
    32   126   124    1
    33   167   166    1
    34   167   168   ar
    35   170   168   ar
    36   163   166    1
    37   163   162    1
    38    53    52    1
    39    53    54    1
    40   122   121    1
    41    51    48    1
    42    51    52    1
    43   150   147   am
    44    47    48    1
    45    48    49    1
    46   124   121    1
    47   124   125    1
    48   143   142    2
    49   121   120    1
    50   142   141    1
    51   148   147    2
    52   127   125    1
    53   147   146    1
    54    49    50    2
    55   145   146    1
    56   144   141    1
    57   116   115    2
    58   146   149    1
    59   141   140    1
    60   120   115   am
    61   115   114    1
    62     7     6    1
    63     5     6    1
    64     5     2    1
    65     8     6    1
    66   108   107    2
    67     2     1    1
    68     2     3    1
    69   114   113    1
    70   114   117    1
    71   118   117    1
    72   107   106    1
    73    23    25   ar
    74    23    21   ar
    75   117   119    1
    76    25    24   ar
    77     4     3    2
    78    21    20   ar
    79    13    10    1
    80    13    14    1
    81     9    10    1
    82    24    22   ar
    83    10    11    1
    84    20    22   ar
    85    20    19    1
    86   100    99    2
    87    19    16    1
    88   106   109    1
    89   106   105    1
    90   109   110    1
    91    99    98    1
    92   103   102    2
    93   101   102    1
    94   101    98    1
    95    11    12    2
    96   102   104   am
    97    62    60    1
    98   111   110    1
    99    16    15    1
   100    16    17    1
   101   110   112    1
   102    98    97    1
   103    61    60    1
   104    60    59    1
   105    94    96   ar
   106    94    92   ar
   107    17    18    2
   108    32    30    1
   109    91    92   ar
   110    91    89   ar
   111    96    95   ar
   112    55    56    1
   113    59    56    1
   114    92    90   ar
   115    56    57    1
   116    89    88   ar
   117    46    45   ar
   118    46    44   ar
   119    30    31    1
   120    30    27    1
   121    67    64    1
   122    95    93   ar
   123    90    88   ar
   124    90    93   ar
   125    45    43   ar
   126    86    85    2
   127    44    42   ar
   128    27    26    1
   129    27    28    1
   130    88    87    1
   131    57    58    2
   132    81    82   ar
   133    81    79   ar
   134    82    80   ar
   135    85    84    1
   136    64    63    1
   137    64    65    1
   138    43    40   ar
   139    42    40   ar
   140    42    41   ar
   141    28    29    2
   142    87    84    1
   143    40    38   ar
   144    79    78   ar
   145    84    83    1
   146    65    66    2
   147    65    68   am
   148    80    78   ar
   149    41    39   ar
   150    68    69    1
   151    78    77    1
   152    38    39   ar
   153    38    37    1
   154    33    34    1
   155    34    37    1
   156    34    35    1
   157    69    72    1
   158    69    70    1
   159    77    74    1
   160    36    35    2
   161    73    74    1
   162    70    71    2
   163    74    75    1
   164    75    76    2
