@<TRIPOS>MOLECULE
tmp/3iisA03.pdb
 141 133 0 0 0
SMALL
GASTEIGER

@<TRIPOS>ATOM
      1  N          7.9550   -2.7450   -9.7580 N.3    45  ILE45      -0.1245
      2  CA         8.7970   -2.9940   -8.5940 C.3    45  ILE45       0.1561
      3  C         10.1110   -3.6450   -9.0290 C.2    45  ILE45       0.2260
      4  O         11.1690   -3.2830   -8.5190 O.2    45  ILE45      -0.2867
      5  CB         8.0490   -3.8280   -7.5330 C.3    45  ILE45       0.0252
      6  CG1        6.8470   -3.0890   -6.9570 C.3    45  ILE45       0.0019
      7  CG2        8.9870   -4.2870   -6.4090 C.3    45  ILE45       0.0019
      8  CD1        7.0900   -1.8400   -6.2860 C.3    45  ILE45       0.0001
      9  N         12.4680   -1.0780  -10.1730 N.3    48  MET48      -0.1230
     10  CA        13.0240   -0.3810   -9.0130 C.3    48  MET48       0.1702
     11  C         14.1060   -1.2010   -8.3400 C.2    48  MET48       0.2592
     12  O         15.1790   -0.6680   -7.9950 O.2    48  MET48      -0.2718
     13  CB        11.9200   -0.0330   -8.0250 C.3    48  MET48       0.0401
     14  CG        10.7890    0.7770   -8.6960 C.3    48  MET48       0.0596
     15  SD         9.5600    1.0780   -7.4370 S.3    48  MET48      -0.1393
     16  CE         8.2520    1.7450   -8.4640 C.3    48  MET48       0.0692
     17  N         13.8280   -2.4930   -8.1590 N.am   49  ILE49      -0.1980
     18  CA        14.7950   -3.3840   -7.4690 C.3    49  ILE49       0.1595
     19  C         16.1220   -3.4310   -8.2740 C.2    49  ILE49       0.2287
     20  O         17.2230   -3.3060   -7.7170 O.2    49  ILE49      -0.2864
     21  CB        14.1890   -4.7690   -7.2920 C.3    49  ILE49       0.0276
     22  CG1       13.0980   -4.7000   -6.2210 C.3    49  ILE49       0.0022
     23  CG2       15.2990   -5.7280   -6.8780 C.3    49  ILE49       0.0022
     24  CD1       12.2320   -5.9500   -6.2220 C.3    49  ILE49       0.0001
     25  N         17.2500   -1.0560  -10.2340 N.3    51  MET51      -0.1230
     26  CA        17.8620    0.2420  -10.0460 C.3    51  MET51       0.1702
     27  C         18.5040    0.3390   -8.6750 C.2    51  MET51       0.2592
     28  O         19.6080    0.8740   -8.5410 O.2    51  MET51      -0.2718
     29  CB        16.8170    1.3460  -10.2630 C.3    51  MET51       0.0401
     30  CG        17.3660    2.7300  -10.0370 C.3    51  MET51       0.0596
     31  SD        16.2050    3.9430  -10.6530 S.3    51  MET51      -0.1393
     32  CE        16.7120    5.3260   -9.6550 C.3    51  MET51       0.0692
     33  N         17.8190   -0.1440   -7.6340 N.am   52  GLY52      -0.1957
     34  CA        18.3860   -0.0730   -6.2780 C.3    52  GLY52       0.1869
     35  C         19.6470   -0.8870   -6.1500 C.2    52  GLY52       0.2309
     36  O         20.6010   -0.4350   -5.5360 O.2    52  GLY52      -0.2863
     37  N         22.8120    5.4970   -1.4320 N.3    60  LEU60      -0.1245
     38  CA        21.5850    4.9380   -0.8810 C.3    60  LEU60       0.1561
     39  C         21.5400    5.0920    0.6190 C.2    60  LEU60       0.2260
     40  O         20.5210    5.4910    1.1700 O.2    60  LEU60      -0.2867
     41  CB        21.4440    3.4560   -1.2510 C.3    60  LEU60       0.0270
     42  CG        20.9790    3.0170   -2.6340 C.3    60  LEU60       0.0019
     43  CD1       20.8290    1.4890   -2.6490 C.3    60  LEU60       0.0001
     44  CD2       19.6170    3.6530   -2.9960 C.3    60  LEU60       0.0001
     45  N         18.4180   12.1980   -2.9900 N.3    93  LEU93      -0.1245
     46  CA        17.7620   11.3890   -4.0290 C.3    93  LEU93       0.1561
     47  C         18.3340   11.6820   -5.4120 C.2    93  LEU93       0.2260
     48  O         18.5820   10.7590   -6.2030 O.2    93  LEU93      -0.2867
     49  CB        16.2380   11.5650   -3.9660 C.3    93  LEU93       0.0270
     50  CG        15.5860   10.8830   -2.7490 C.3    93  LEU93       0.0019
     51  CD1       14.0840   11.0570   -2.8670 C.3    93  LEU93       0.0001
     52  CD2       15.9030    9.3740   -2.6840 C.3    93  LEU93       0.0001
     53  N         21.3970    9.7390   -5.8380 N.3    96  VAL96      -0.1231
     54  CA        21.1060    8.3260   -6.1240 C.3    96  VAL96       0.1692
     55  C         20.7070    8.1500   -7.6020 C.2    96  VAL96       0.2591
     56  O         21.2160    7.2740   -8.2830 O.2    96  VAL96      -0.2718
     57  CB        19.9670    7.8490   -5.2050 C.3    96  VAL96       0.0266
     58  CG1       19.4580    6.4870   -5.6760 C.3    96  VAL96       0.0020
     59  CG2       20.4430    7.7460   -3.7560 C.3    96  VAL96       0.0020
     60  N         19.8460    9.0430   -8.0990 N.am   97  ILE97      -0.1980
     61  CA        19.4060    8.9880   -9.4940 C.3    97  ILE97       0.1595
     62  C         20.6190    9.1000  -10.4590 C.2    97  ILE97       0.2287
     63  O         20.7380    8.3270  -11.4050 O.2    97  ILE97      -0.2864
     64  CB        18.3730   10.1390   -9.7890 C.3    97  ILE97       0.0276
     65  CG1       17.0790   10.0010   -8.9460 C.3    97  ILE97       0.0022
     66  CG2       18.1310   10.2400  -11.3160 C.3    97  ILE97       0.0022
     67  CD1       16.2340    8.8190   -9.3200 C.3    97  ILE97       0.0001
     68  N         16.4720    4.5380  -14.8710 N.3   105  VAL105     -0.1231
     69  CA        15.5520    5.5120  -14.3050 C.3   105  VAL105      0.1692
     70  C         14.3040    5.6070  -15.1900 C.2   105  VAL105      0.2591
     71  O         13.1720    5.6150  -14.6750 O.2   105  VAL105     -0.2718
     72  CB        16.2140    6.9260  -14.2230 C.3   105  VAL105      0.0266
     73  CG1       15.2860    7.9410  -13.5820 C.3   105  VAL105      0.0020
     74  CG2       17.5000    6.8440  -13.4180 C.3   105  VAL105      0.0020
     75  N         14.5280    5.6780  -16.5130 N.am  106  MET106     -0.1979
     76  CA        13.4070    5.7290  -17.4410 C.3   106  MET106      0.1605
     77  C         12.5560    4.4640  -17.3800 C.2   106  MET106      0.2287
     78  O         11.3210    4.5410  -17.5270 O.2   106  MET106     -0.2864
     79  CB        13.8980    5.9840  -18.8590 C.3   106  MET106      0.0413
     80  CG        14.5040    7.4110  -19.0250 C.3   106  MET106      0.0598
     81  SD        13.3960    8.7720  -18.5190 S.3   106  MET106     -0.1393
     82  CE        12.0030    8.4840  -19.6320 C.3   106  MET106      0.0692
     83  N         11.9530    2.6650  -14.7080 N.3   108  VAL108     -0.1231
     84  CA        11.0290    2.7710  -13.5570 C.3   108  VAL108      0.1692
     85  C          9.8670    3.6960  -13.9340 C.2   108  VAL108      0.2592
     86  O          8.7040    3.3960  -13.6880 O.2   108  VAL108     -0.2718
     87  CB        11.7660    3.3220  -12.3200 C.3   108  VAL108      0.0266
     88  CG1       10.7780    3.6730  -11.2590 C.3   108  VAL108      0.0020
     89  CG2       12.8410    2.2810  -11.8410 C.3   108  VAL108      0.0020
     90  N         10.1860    4.8550  -14.4940 N.am  109  TYR109     -0.1976
     91  CA         9.1730    5.8380  -14.8470 C.3   109  TYR109      0.1639
     92  C          8.0910    5.2490  -15.7890 C.2   109  TYR109      0.2290
     93  O          6.9180    5.3980  -15.5300 O.2   109  TYR109     -0.2864
     94  CB         9.8760    7.0090  -15.5140 C.3   109  TYR109      0.0560
     95  CG         8.9920    8.1280  -15.9990 C.ar  109  TYR109     -0.0198
     96  CD1        8.3030    8.9650  -15.1010 C.ar  109  TYR109     -0.0009
     97  CD2        8.9150    8.3970  -17.3730 C.ar  109  TYR109     -0.0009
     98  CE1        7.5390   10.0390  -15.5620 C.ar  109  TYR109      0.0417
     99  CE2        8.1590    9.4450  -17.8340 C.ar  109  TYR109      0.0417
    100  CZ         7.4450   10.2300  -16.9440 C.ar  109  TYR109      0.1957
    101  OH         6.7350   11.2830  -17.4610 O.3   109  TYR109     -0.2866
    102  N          6.9060   21.6450  -10.2400 N.3   137  TYR137     -0.1241
    103  CA         7.2890   20.8530  -11.4080 C.3   137  TYR137      0.1605
    104  C          8.3420   21.5630  -12.2780 C.2   137  TYR137      0.2264
    105  O          9.2950   20.9280  -12.7450 O.2   137  TYR137     -0.2867
    106  CB         6.0450   20.4370  -12.2420 C.3   137  TYR137      0.0534
    107  CG         6.3910   19.6050  -13.4570 C.ar  137  TYR137     -0.0201
    108  CD1        6.8760   18.2770  -13.3590 C.ar  137  TYR137     -0.0009
    109  CD2        6.2580   20.1450  -14.7650 C.ar  137  TYR137     -0.0009
    110  CE1        7.1870   17.5230  -14.5080 C.ar  137  TYR137      0.0417
    111  CE2        6.5660   19.3890  -15.8620 C.ar  137  TYR137      0.0417
    112  CZ         7.0410   18.1160  -15.7430 C.ar  137  TYR137      0.1957
    113  OH         7.3400   17.4120  -16.8860 O.3   137  TYR137     -0.2866
    114  N         11.4420   20.9650  -10.5750 N.3   140  PHE140     -0.1227
    115  CA        11.9250   19.6110  -10.8490 C.3   140  PHE140      0.1736
    116  C         12.6470   19.5400  -12.1950 C.2   140  PHE140      0.2595
    117  O         13.7070   18.9050  -12.3310 O.2   140  PHE140     -0.2718
    118  CB        10.7520   18.6030  -10.8020 C.3   140  PHE140      0.0547
    119  CG        11.1230   17.2350  -11.2810 C.ar  140  PHE140     -0.0202
    120  CD1       11.8050   16.3600  -10.4160 C.ar  140  PHE140     -0.0042
    121  CD2       10.8300   16.8260  -12.5840 C.ar  140  PHE140     -0.0042
    122  CE1       12.1780   15.0930  -10.8530 C.ar  140  PHE140     -0.0003
    123  CE2       11.2070   15.5530  -13.0230 C.ar  140  PHE140     -0.0003
    124  CZ        11.8880   14.6970  -12.1420 C.ar  140  PHE140     -0.0000
    125  N         12.0520   20.2000  -13.2080 N.am  141  LEU141     -0.1980
    126  CA        12.6790   20.1820  -14.5350 C.3   141  LEU141      0.1596
    127  C         14.0810   20.7700  -14.5430 C.2   141  LEU141      0.2287
    128  O         14.9870   20.2460  -15.1700 O.2   141  LEU141     -0.2864
    129  CB        11.8040   20.8690  -15.5890 C.3   141  LEU141      0.0297
    130  CG        10.4830   20.1540  -15.9120 C.3   141  LEU141      0.0022
    131  CD1        9.6970   21.0560  -16.8990 C.3   141  LEU141      0.0001
    132  CD2       10.6900   18.7800  -16.4770 C.3   141  LEU141      0.0001
    133  N         16.4430   18.1970  -12.5300 N.3   144  LYS144     -0.1245
    134  CA        16.8560   16.9780  -13.2180 C.3   144  LYS144      0.1561
    135  C         17.9320   17.2510  -14.2940 C.2   144  LYS144      0.2260
    136  O         18.6990   16.3640  -14.6200 O.2   144  LYS144     -0.2867
    137  CB        15.6210   16.2080  -13.7730 C.3   144  LYS144      0.0271
    138  CG        14.8730   16.9390  -14.9090 C.3   144  LYS144      0.0035
    139  CD        15.4770   16.6300  -16.3180 C.3   144  LYS144      0.0206
    140  CE        14.5700   17.1650  -17.4560 C.3   144  LYS144      0.1093
    141  NZ        14.6300   18.6280  -17.6150 N.3   144  LYS144     -0.1314
@<TRIPOS>BOND
     1    82    81    1
     2    80    79    1
     3    80    81    1
     4    79    76    1
     5    99    97   ar
     6    99   100   ar
     7   141   140    1
     8    78    77    2
     9   101   100    1
    10   140   139    1
    11    76    77    1
    12    76    75    1
    13    97    95   ar
    14   100    98   ar
    15   131   130    1
    16   113   112    1
    17    75    70   am
    18   132   130    1
    19   139   138    1
    20    95    94    1
    21    95    96   ar
    22   130   129    1
    23   111   112   ar
    24   111   109   ar
    25    92    93    2
    26    92    91    1
    27   112   110   ar
    28   129   126    1
    29    98    96   ar
    30    94    91    1
    31    70    71    2
    32    70    69    1
    33   128   127    2
    34   138   137    1
    35    68    69    1
    36    91    90    1
    37   109   107   ar
    38    83    84    1
    39   136   135    2
    40   127   126    1
    41   126   125    1
    42   110   108   ar
    43    90    85   am
    44    69    72    1
    45   135   134    1
    46    72    73    1
    47    72    74    1
    48    85    86    2
    49    85    84    1
    50   137   134    1
    51    84    87    1
    52   107   108   ar
    53   107   106    1
    54   134   133    1
    55   125   116   am
    56   123   121   ar
    57   123   124   ar
    58   105   104    2
    59   121   119   ar
    60   117   116    2
    61    87    89    1
    62    87    88    1
    63   104   103    1
    64   106   103    1
    65   116   115    1
    66   124   122   ar
    67   103   102    1
    68    63    62    2
    69    66    64    1
    70   119   118    1
    71   119   120   ar
    72   122   120   ar
    73   115   118    1
    74   115   114    1
    75    31    30    1
    76    31    32    1
    77    62    61    1
    78    29    26    1
    79    29    30    1
    80    25    26    1
    81     9    10    1
    82    26    27    1
    83    64    61    1
    84    64    65    1
    85     1     2    1
    86    61    60    1
    87    67    65    1
    88     3     2    1
    89     3     4    2
    90    10    11    1
    91    10    13    1
    92    14    13    1
    93    14    15    1
    94    27    28    2
    95    27    33   am
    96     2     5    1
    97    16    15    1
    98    11    17   am
    99    11    12    2
   100    56    55    2
   101    19    20    2
   102    19    18    1
   103    17    18    1
   104    60    55   am
   105    33    34    1
   106    55    54    1
   107     5     6    1
   108     5     7    1
   109    18    21    1
   110    21    23    1
   111    21    22    1
   112     6     8    1
   113    34    35    1
   114    24    22    1
   115    48    47    2
   116    35    36    2
   117    54    53    1
   118    54    57    1
   119    58    57    1
   120    47    46    1
   121    57    59    1
   122    46    49    1
   123    46    45    1
   124    49    50    1
   125    44    42    1
   126    51    50    1
   127    50    52    1
   128    43    42    1
   129    42    41    1
   130    37    38    1
   131    41    38    1
   132    38    39    1
   133    39    40    2
