@<TRIPOS>MOLECULE
tmp/3iisA01.pdb
 119 116 0 0 0
SMALL
GASTEIGER

@<TRIPOS>ATOM
      1  N          4.4360   23.9620   -2.3810 N.3    18  PHE18      -0.1241
      2  CA         3.6810   22.7910   -2.7560 C.3    18  PHE18       0.1605
      3  C          3.7910   21.6740   -1.6790 C.2    18  PHE18       0.2264
      4  O          2.7720   21.1000   -1.2640 O.2    18  PHE18      -0.2867
      5  CB         4.1930   22.3230   -4.1260 C.3    18  PHE18       0.0534
      6  CG         3.8270   20.8800   -4.4640 C.ar   18  PHE18      -0.0203
      7  CD1        2.5720   20.5620   -4.9760 C.ar   18  PHE18      -0.0042
      8  CD2        4.7700   19.8480   -4.2580 C.ar   18  PHE18      -0.0042
      9  CE1        2.2320   19.1950   -5.3140 C.ar   18  PHE18      -0.0003
     10  CE2        4.4390   18.5130   -4.5920 C.ar   18  PHE18      -0.0003
     11  CZ         3.1700   18.1960   -5.1290 C.ar   18  PHE18      -0.0000
     12  N          0.5100   19.5520    0.5340 N.3    22  VAL22      -0.1245
     13  CA         0.1200   18.1570    0.4200 C.3    22  VAL22       0.1561
     14  C         -0.2370   17.6670    1.8270 C.2    22  VAL22       0.2260
     15  O          0.4450   18.0270    2.7950 O.2    22  VAL22      -0.2867
     16  CB         1.2920   17.3320   -0.1610 C.3    22  VAL22       0.0252
     17  CG1        1.0170   15.8520   -0.1130 C.3    22  VAL22       0.0019
     18  CG2        1.6050   17.7540   -1.6040 C.3    22  VAL22       0.0019
     19  N          0.1860   14.9330    3.8540 N.3    24  TRP24      -0.1227
     20  CA         0.9950   13.7020    3.8830 C.3    24  TRP24       0.1737
     21  C          0.4060   12.5900    4.7180 C.2    24  TRP24       0.2595
     22  O          0.8250   11.4310    4.6080 O.2    24  TRP24      -0.2718
     23  CB         2.4230   13.9990    4.3210 C.3    24  TRP24       0.0564
     24  CG         3.0540   15.0060    3.4010 C.ar   24  TRP24       0.0003
     25  CD1        3.1300   16.3610    3.5770 C.ar   24  TRP24       0.0946
     26  CD2        3.6710   14.7360    2.1250 C.ar   24  TRP24       0.0152
     27  NE1        3.7410   16.9650    2.4970 N.ar   24  TRP24      -0.2442
     28  CE2        4.0980   15.9880    1.6000 C.ar   24  TRP24       0.0810
     29  CE3        3.9180   13.5660    1.3820 C.ar   24  TRP24       0.0012
     30  CZ2        4.7510   16.1060    0.3460 C.ar   24  TRP24       0.0191
     31  CZ3        4.6020   13.6560    0.1490 C.ar   24  TRP24       0.0001
     32  CH2        5.0000   14.9210   -0.3650 C.ar   24  TRP24       0.0015
     33  N         -0.5950   12.9350    5.5580 N.am   25  ASN25      -0.1960
     34  CA        -1.2940   11.9470    6.3880 C.3    25  ASN25       0.1819
     35  C         -2.5600   11.3880    5.7660 C.2    25  ASN25       0.2621
     36  O         -3.2680   10.5790    6.4100 O.2    25  ASN25      -0.2715
     37  CB        -1.6310   12.5260    7.7720 C.3    25  ASN25       0.1195
     38  CG        -0.3750   12.8480    8.5740 C.2    25  ASN25       0.2630
     39  OD1        0.5120   12.0040    8.6760 O.2    25  ASN25      -0.2716
     40  ND2       -0.2620   14.0820    9.0680 N.am   25  ASN25      -0.0877
     41  N         -2.8550   11.7780    4.5190 N.am   26  ASN26      -0.1958
     42  CA        -3.9970   11.2170    3.7840 C.3    26  ASN26       0.1819
     43  C         -3.6790    9.7340    3.5500 C.2    26  ASN26       0.2621
     44  O         -2.5550    9.3980    3.1150 O.2    26  ASN26      -0.2715
     45  CB        -4.1360   11.9910    2.4630 C.3    26  ASN26       0.1195
     46  CG        -5.3710   11.6080    1.6540 C.2    26  ASN26       0.2630
     47  OD1       -5.9130   10.5350    1.7670 O.2    26  ASN26      -0.2716
     48  ND2       -5.8090   12.5590    0.8020 N.am   26  ASN26      -0.0877
     49  N         -4.6290    8.8280    3.8150 N.am   27  GLY27      -0.1954
     50  CA        -4.4240    7.4010    3.6020 C.3    27  GLY27       0.1869
     51  C         -4.4410    6.9740    2.1460 C.2    27  GLY27       0.2309
     52  O         -4.1270    5.8230    1.8400 O.2    27  GLY27      -0.2863
     53  N         -2.4720    7.4410   -0.2150 N.3    29  PHE29      -0.1227
     54  CA        -1.1730    7.0860   -0.7790 C.3    29  PHE29       0.1736
     55  C         -0.8400    5.6060   -0.6230 C.2    29  PHE29       0.2595
     56  O          0.0880    5.1010   -1.3120 O.2    29  PHE29      -0.2718
     57  CB        -0.0690    7.9840   -0.2160 C.3    29  PHE29       0.0547
     58  CG        -0.3680    9.4300   -0.3420 C.ar   29  PHE29      -0.0202
     59  CD1       -0.5510   10.0000   -1.6120 C.ar   29  PHE29      -0.0042
     60  CD2       -0.4670   10.2390    0.8110 C.ar   29  PHE29      -0.0042
     61  CE1       -0.8310   11.3960   -1.7460 C.ar   29  PHE29      -0.0003
     62  CE2       -0.7530   11.5710    0.6980 C.ar   29  PHE29      -0.0003
     63  CZ        -0.9410   12.1640   -0.5760 C.ar   29  PHE29      -0.0000
     64  N         -1.5700    4.8790    0.2440 N.am   30  LEU30      -0.1980
     65  CA        -1.3980    3.4350    0.3090 C.3    30  LEU30       0.1596
     66  C         -2.1140    2.6790   -0.8190 C.2    30  LEU30       0.2287
     67  O         -1.7150    1.5380   -1.1080 O.2    30  LEU30      -0.2864
     68  CB        -1.8500    2.9110    1.6880 C.3    30  LEU30       0.0297
     69  CG        -1.4430    1.4670    2.0740 C.3    30  LEU30       0.0022
     70  CD1        0.0360    1.1690    1.9240 C.3    30  LEU30       0.0001
     71  CD2       -1.8430    1.1160    3.5050 C.3    30  LEU30       0.0001
     72  N         -2.8260   12.2620  -11.6720 N.3   121  PRO121     -0.2116
     73  CA        -2.1330   13.5280  -11.4750 C.3   121  PRO121      0.1372
     74  C         -3.0890   14.7010  -11.2530 C.2   121  PRO121      0.2244
     75  O         -2.8900   15.4960  -10.3400 O.2   121  PRO121     -0.2868
     76  CB        -1.2930   13.6710  -12.7710 C.3   121  PRO121      0.0268
     77  CG        -1.0200   12.2500  -13.1800 C.3   121  PRO121      0.0207
     78  CD        -2.3350   11.5460  -12.8790 C.3   121  PRO121      0.0892
     79  N         -4.4750   14.5630   -7.6730 N.3   124  MET124     -0.1230
     80  CA        -3.5100   15.0680   -6.7000 C.3   124  MET124      0.1702
     81  C         -3.3310   16.5740   -6.7500 C.2   124  MET124      0.2592
     82  O         -3.3520   17.2990   -5.7170 O.2   124  MET124     -0.2718
     83  CB        -2.1580   14.3800   -6.9690 C.3   124  MET124      0.0401
     84  CG        -2.0790   12.9450   -6.4740 C.3   124  MET124      0.0596
     85  SD        -2.1480   12.8420   -4.7090 S.3   124  MET124     -0.1393
     86  CE        -3.7110   12.1580   -4.5910 C.3   124  MET124      0.0692
     87  N         -3.2310   17.1330   -7.9570 N.am  125  LYS125     -0.1980
     88  CA        -3.0400   18.5520   -8.1210 C.3   125  LYS125      0.1596
     89  C         -4.2530   19.3220   -7.5990 C.2   125  LYS125      0.2287
     90  O         -4.0900   20.4210   -7.0580 O.2   125  LYS125     -0.2864
     91  CB        -2.8160   18.8730   -9.6070 C.3   125  LYS125      0.0298
     92  CG        -2.4040   20.3510   -9.8190 C.3   125  LYS125      0.0038
     93  CD        -2.2310   20.6220  -11.3500 C.3   125  LYS125      0.0206
     94  CE        -1.8120   22.0690  -11.6270 C.3   125  LYS125      0.1093
     95  NZ        -1.7540   22.2390  -13.1220 N.3   125  LYS125     -0.1314
     96  N         -4.0960   20.6630   -3.9710 N.3   128  VAL128     -0.1245
     97  CA        -3.1140   21.6560   -3.5820 C.3   128  VAL128      0.1561
     98  C         -3.3350   22.9330   -4.4130 C.2   128  VAL128      0.2260
     99  O         -4.3010   23.0260   -5.1950 O.2   128  VAL128     -0.2867
    100  CB        -1.6420   21.1190   -3.7300 C.3   128  VAL128      0.0252
    101  CG1       -1.4090   19.8860   -2.8450 C.3   128  VAL128      0.0019
    102  CG2       -1.3360   20.7990   -5.1760 C.3   128  VAL128      0.0019
    103  N          1.9320   23.8090   -7.4960 N.3   133  ALA133     -0.1245
    104  CA         2.3350   22.5240   -8.1130 C.3   133  ALA133      0.1562
    105  C          3.0870   22.7630   -9.4040 C.2   133  ALA133      0.2260
    106  O          4.1070   22.1350   -9.6700 O.2   133  ALA133     -0.2867
    107  CB         1.1230   21.6130   -8.3600 C.3   133  ALA133      0.0290
    108  N          6.9060   21.6450  -10.2400 N.3   137  TYR137     -0.1241
    109  CA         7.2890   20.8530  -11.4080 C.3   137  TYR137      0.1605
    110  C          8.3420   21.5630  -12.2780 C.2   137  TYR137      0.2264
    111  O          9.2950   20.9280  -12.7450 O.2   137  TYR137     -0.2867
    112  CB         6.0450   20.4370  -12.2420 C.3   137  TYR137      0.0534
    113  CG         6.3910   19.6050  -13.4570 C.ar  137  TYR137     -0.0201
    114  CD1        6.8760   18.2770  -13.3590 C.ar  137  TYR137     -0.0009
    115  CD2        6.2580   20.1450  -14.7650 C.ar  137  TYR137     -0.0009
    116  CE1        7.1870   17.5230  -14.5080 C.ar  137  TYR137      0.0417
    117  CE2        6.5660   19.3890  -15.8620 C.ar  137  TYR137      0.0417
    118  CZ         7.0410   18.1160  -15.7430 C.ar  137  TYR137      0.1957
    119  OH         7.3400   17.4120  -16.8860 O.3   137  TYR137     -0.2866
@<TRIPOS>BOND
     1   119   118    1
     2   117   118   ar
     3   117   115   ar
     4   118   116   ar
     5   115   113   ar
     6   116   114   ar
     7   113   114   ar
     8   113   112    1
     9    77    78    1
    10    77    76    1
    11    95    94    1
    12    78    72    1
    13    76    73    1
    14   111   110    2
    15   110   109    1
    16   112   109    1
    17    72    73    1
    18    94    93    1
    19    73    74    1
    20   109   108    1
    21    93    92    1
    22    74    75    2
    23    92    91    1
    24   106   105    2
    25    91    88    1
    26   105   104    1
    27   107   104    1
    28    88    87    1
    29    88    89    1
    30   104   103    1
    31    87    81   am
    32    79    80    1
    33    89    90    2
    34    83    80    1
    35    83    84    1
    36    81    80    1
    37    81    82    2
    38    84    85    1
    39     9    11   ar
    40     9     7   ar
    41    99    98    2
    42   102   100    1
    43    11    10   ar
    44     7     6   ar
    45    85    86    1
    46    10     8   ar
    47     6     8   ar
    48     6     5    1
    49    98    97    1
    50     5     2    1
    51    96    97    1
    52   100    97    1
    53   100   101    1
    54     2     1    1
    55     2     3    1
    56    61    59   ar
    57    61    63   ar
    58     3     4    2
    59    59    58   ar
    60    18    16    1
    61    56    55    2
    62    67    66    2
    63    66    65    1
    64    54    55    1
    65    54    57    1
    66    54    53    1
    67    55    64   am
    68    63    62   ar
    69    32    31   ar
    70    32    30   ar
    71    58    57    1
    72    58    60   ar
    73    16    17    1
    74    16    13    1
    75    31    29   ar
    76    64    65    1
    77    65    68    1
    78    30    28   ar
    79    13    12    1
    80    13    14    1
    81    62    60   ar
    82    48    46   am
    83    29    26   ar
    84    28    26   ar
    85    28    27   ar
    86    46    47    2
    87    46    45    1
    88    68    69    1
    89    14    15    2
    90    52    51    2
    91    70    69    1
    92    69    71    1
    93    26    24   ar
    94    51    50    1
    95    45    42    1
    96    27    25   ar
    97    44    43    2
    98    24    25   ar
    99    24    23    1
   100    43    42    1
   101    43    49   am
   102    50    49    1
   103    42    41    1
   104    19    20    1
   105    20    23    1
   106    20    21    1
   107    41    35   am
   108    22    21    2
   109    21    33   am
   110    33    34    1
   111    35    34    1
   112    35    36    2
   113    34    37    1
   114    37    38    1
   115    38    39    2
   116    38    40   am
