@<TRIPOS>MOLECULE
tmp/3iisA05.pdb
 156 149 0 0 0
SMALL
GASTEIGER

@<TRIPOS>ATOM
      1  N         -2.4720    7.4410   -0.2150 N.3    29  PHE29      -0.1227
      2  CA        -1.1730    7.0860   -0.7790 C.3    29  PHE29       0.1736
      3  C         -0.8400    5.6060   -0.6230 C.2    29  PHE29       0.2595
      4  O          0.0880    5.1010   -1.3120 O.2    29  PHE29      -0.2718
      5  CB        -0.0690    7.9840   -0.2160 C.3    29  PHE29       0.0547
      6  CG        -0.3680    9.4300   -0.3420 C.ar   29  PHE29      -0.0202
      7  CD1       -0.5510   10.0000   -1.6120 C.ar   29  PHE29      -0.0042
      8  CD2       -0.4670   10.2390    0.8110 C.ar   29  PHE29      -0.0042
      9  CE1       -0.8310   11.3960   -1.7460 C.ar   29  PHE29      -0.0003
     10  CE2       -0.7530   11.5710    0.6980 C.ar   29  PHE29      -0.0003
     11  CZ        -0.9410   12.1640   -0.5760 C.ar   29  PHE29      -0.0000
     12  N         -1.5700    4.8790    0.2440 N.am   30  LEU30      -0.1966
     13  CA        -1.3980    3.4350    0.3090 C.3    30  LEU30       0.1728
     14  C         -2.1140    2.6790   -0.8190 C.2    30  LEU30       0.2616
     15  O         -1.7150    1.5380   -1.1080 O.2    30  LEU30      -0.2715
     16  CB        -1.8500    2.9110    1.6880 C.3    30  LEU30       0.0311
     17  CG        -1.4430    1.4670    2.0740 C.3    30  LEU30       0.0022
     18  CD1        0.0360    1.1690    1.9240 C.3    30  LEU30       0.0001
     19  CD2       -1.8430    1.1160    3.5050 C.3    30  LEU30       0.0001
     20  N         -3.1200    3.3090   -1.4380 N.am   31  GLN31      -0.1977
     21  CA        -3.8650    2.6600   -2.5080 C.3    31  GLN31       0.1601
     22  C         -3.1060    2.6790   -3.8210 C.2    31  GLN31       0.2287
     23  O         -2.2680    3.5420   -4.0600 O.2    31  GLN31      -0.2864
     24  CB        -5.2060    3.3350   -2.7280 C.3    31  GLN31       0.0394
     25  CG        -6.0110    3.4450   -1.4770 C.3    31  GLN31       0.0908
     26  CD        -7.1490    4.4120   -1.6620 C.2    31  GLN31       0.2608
     27  OE1       -7.6570    4.5920   -2.7840 O.2    31  GLN31      -0.2717
     28  NE2       -7.5900    5.0080   -0.5730 N.am   31  GLN31      -0.0878
     29  N         -2.4680    3.5730   -7.5860 N.3    33  PRO33      -0.2116
     30  CA        -2.7990    4.8440   -8.3060 C.3    33  PRO33       0.1372
     31  C         -3.7640    4.5990   -9.4890 C.2    33  PRO33       0.2244
     32  O         -3.4310    4.8620  -10.6420 O.2    33  PRO33      -0.2868
     33  CB        -1.4090    5.3430   -8.7290 C.3    33  PRO33       0.0268
     34  CG        -0.6860    4.0570   -9.0250 C.3    33  PRO33       0.0207
     35  CD        -1.1090    3.0900   -7.9270 C.3    33  PRO33       0.0892
     36  N          6.9710   -3.0960  -12.4150 N.3    44  ALA44      -0.1231
     37  CA         7.4910   -1.7930  -11.9640 C.3    44  ALA44       0.1694
     38  C          8.3920   -1.9400  -10.7420 C.2    44  ALA44       0.2591
     39  O          9.5110   -1.3830  -10.7070 O.2    44  ALA44      -0.2718
     40  CB         6.3350   -0.8630  -11.6440 C.3    44  ALA44       0.0304
     41  N          7.9550   -2.7450   -9.7580 N.am   45  ILE45      -0.1980
     42  CA         8.7970   -2.9940   -8.5940 C.3    45  ILE45       0.1595
     43  C         10.1110   -3.6450   -9.0290 C.2    45  ILE45       0.2287
     44  O         11.1690   -3.2830   -8.5190 O.2    45  ILE45      -0.2864
     45  CB         8.0490   -3.8280   -7.5330 C.3    45  ILE45       0.0276
     46  CG1        6.8470   -3.0890   -6.9570 C.3    45  ILE45       0.0022
     47  CG2        8.9870   -4.2870   -6.4090 C.3    45  ILE45       0.0022
     48  CD1        7.0900   -1.8400   -6.2860 C.3    45  ILE45       0.0001
     49  N         12.4680   -1.0780  -10.1730 N.3    48  MET48      -0.1245
     50  CA        13.0240   -0.3810   -9.0130 C.3    48  MET48       0.1570
     51  C         14.1060   -1.2010   -8.3400 C.2    48  MET48       0.2261
     52  O         15.1790   -0.6680   -7.9950 O.2    48  MET48      -0.2867
     53  CB        11.9200   -0.0330   -8.0250 C.3    48  MET48       0.0387
     54  CG        10.7890    0.7770   -8.6960 C.3    48  MET48       0.0595
     55  SD         9.5600    1.0780   -7.4370 S.3    48  MET48      -0.1393
     56  CE         8.2520    1.7450   -8.4640 C.3    48  MET48       0.0692
     57  N         10.1860    4.8550  -14.4940 N.3   109  TYR109     -0.1241
     58  CA         9.1730    5.8380  -14.8470 C.3   109  TYR109      0.1605
     59  C          8.0910    5.2490  -15.7890 C.2   109  TYR109      0.2264
     60  O          6.9180    5.3980  -15.5300 O.2   109  TYR109     -0.2867
     61  CB         9.8760    7.0090  -15.5140 C.3   109  TYR109      0.0534
     62  CG         8.9920    8.1280  -15.9990 C.ar  109  TYR109     -0.0201
     63  CD1        8.3030    8.9650  -15.1010 C.ar  109  TYR109     -0.0009
     64  CD2        8.9150    8.3970  -17.3730 C.ar  109  TYR109     -0.0009
     65  CE1        7.5390   10.0390  -15.5620 C.ar  109  TYR109      0.0417
     66  CE2        8.1590    9.4450  -17.8340 C.ar  109  TYR109      0.0417
     67  CZ         7.4450   10.2300  -16.9440 C.ar  109  TYR109      0.1957
     68  OH         6.7350   11.2830  -17.4610 O.3   109  TYR109     -0.2866
     69  N          5.9390    2.5160  -13.9510 N.3   112  VAL112     -0.1231
     70  CA         4.9630    3.0970  -13.0300 C.3   112  VAL112      0.1692
     71  C          3.8670    3.8140  -13.8220 C.2   112  VAL112      0.2592
     72  O          2.6730    3.7310  -13.4880 O.2   112  VAL112     -0.2718
     73  CB         5.6260    4.0330  -12.0140 C.3   112  VAL112      0.0266
     74  CG1        4.5860    4.6520  -11.1140 C.3   112  VAL112      0.0020
     75  CG2        6.6180    3.2580  -11.1400 C.3   112  VAL112      0.0020
     76  N          4.2390    4.5140  -14.9130 N.am  113  SER113     -0.1952
     77  CA         3.2120    5.1540  -15.7310 C.3   113  SER113      0.1924
     78  C          2.1570    4.1530  -16.1970 C.2   113  SER113      0.2314
     79  O          0.9500    4.4740  -16.1780 O.2   113  SER113     -0.2863
     80  CB         3.8730    5.8240  -16.9370 C.3   113  SER113      0.2116
     81  OG         2.8450    6.4590  -17.6770 O.3   113  SER113     -0.2180
     82  N          0.8390    1.6780  -14.7710 N.3   115  ILE115     -0.1231
     83  CA        -0.1910    1.3480  -13.7910 C.3   115  ILE115      0.1692
     84  C         -0.8990    2.5640  -13.2150 C.2   115  ILE115      0.2592
     85  O         -1.7730    2.4140  -12.3650 O.2   115  ILE115     -0.2718
     86  CB         0.3790    0.4680  -12.5900 C.3   115  ILE115      0.0266
     87  CG1        1.4160    1.2300  -11.7610 C.3   115  ILE115      0.0019
     88  CG2        0.9200   -0.8590  -13.1530 C.3   115  ILE115      0.0020
     89  CD1        1.7880    0.4740  -10.4340 C.3   115  ILE115      0.0001
     90  N         -0.5480    3.7490  -13.6580 N.am  116  THR116     -0.1953
     91  CA        -1.1090    4.9850  -13.0790 C.3   116  THR116      0.1897
     92  C         -2.2670    5.4790  -13.9430 C.2   116  THR116      0.2313
     93  O         -2.0800    5.7830  -15.1280 O.2   116  THR116     -0.2863
     94  CB        -0.0180    6.0330  -12.9780 C.3   116  THR116      0.1794
     95  OG1        1.0050    5.5490  -12.1070 O.3   116  THR116     -0.2208
     96  CG2       -0.5420    7.3620  -12.3780 C.3   116  THR116      0.0378
     97  N         -5.0400   10.3710  -12.0770 N.3   120  VAL120     -0.1231
     98  CA        -4.3700   10.5420  -10.7830 C.3   120  VAL120      0.1678
     99  C         -3.6190   11.8580  -10.6520 C.2   120  VAL120      0.2434
    100  O         -3.7640   12.5490   -9.6300 O.2   120  VAL120     -0.2733
    101  CB        -3.5040    9.2900  -10.4620 C.3   120  VAL120      0.0265
    102  CG1       -2.5230    9.5190   -9.3080 C.3   120  VAL120      0.0020
    103  CG2       -4.4210    8.1280  -10.0790 C.3   120  VAL120      0.0020
    104  N         -2.8260   12.2620  -11.6720 N.am  121  PRO121     -0.2729
    105  CA        -2.1330   13.5280  -11.4750 C.3   121  PRO121      0.1401
    106  C         -3.0890   14.7010  -11.2530 C.2   121  PRO121      0.2269
    107  O         -2.8900   15.4960  -10.3400 O.2   121  PRO121     -0.2865
    108  CB        -1.2930   13.6710  -12.7710 C.3   121  PRO121      0.0296
    109  CG        -1.0200   12.2500  -13.1800 C.3   121  PRO121      0.0237
    110  CD        -2.3350   11.5460  -12.8790 C.3   121  PRO121      0.0939
    111  N         -4.4750   14.5630   -7.6730 N.3   124  MET124     -0.1245
    112  CA        -3.5100   15.0680   -6.7000 C.3   124  MET124      0.1570
    113  C         -3.3310   16.5740   -6.7500 C.2   124  MET124      0.2261
    114  O         -3.3520   17.2990   -5.7170 O.2   124  MET124     -0.2867
    115  CB        -2.1580   14.3800   -6.9690 C.3   124  MET124      0.0387
    116  CG        -2.0790   12.9450   -6.4740 C.3   124  MET124      0.0595
    117  SD        -2.1480   12.8420   -4.7090 S.3   124  MET124     -0.1393
    118  CE        -3.7110   12.1580   -4.5910 C.3   124  MET124      0.0692
    119  N          2.6000   23.6890  -10.2240 N.3   134  GLU134     -0.1245
    120  CA         3.2710   23.9990  -11.4600 C.3   134  GLU134      0.1567
    121  C          4.6860   24.5260  -11.2130 C.2   134  GLU134      0.2260
    122  O          5.6130   24.1450  -11.9260 O.2   134  GLU134     -0.2867
    123  CB         2.4230   24.9480  -12.3160 C.3   134  GLU134      0.0388
    124  CG         1.1710   24.2540  -12.8550 C.3   134  GLU134      0.1160
    125  CD         0.1920   25.1770  -13.5280 C.2   134  GLU134      0.3649
    126  OE1        0.5000   26.3770  -13.7090 O.co2 134  GLU134     -0.2457
    127  OE2       -0.8870   24.6780  -13.9020 O.co2 134  GLU134     -0.2457
    128  N          6.9060   21.6450  -10.2400 N.3   137  TYR137     -0.1227
    129  CA         7.2890   20.8530  -11.4080 C.3   137  TYR137      0.1736
    130  C          8.3420   21.5630  -12.2780 C.2   137  TYR137      0.2595
    131  O          9.2950   20.9280  -12.7450 O.2   137  TYR137     -0.2718
    132  CB         6.0450   20.4370  -12.2420 C.3   137  TYR137      0.0548
    133  CG         6.3910   19.6050  -13.4570 C.ar  137  TYR137     -0.0200
    134  CD1        6.8760   18.2770  -13.3590 C.ar  137  TYR137     -0.0009
    135  CD2        6.2580   20.1450  -14.7650 C.ar  137  TYR137     -0.0009
    136  CE1        7.1870   17.5230  -14.5080 C.ar  137  TYR137      0.0417
    137  CE2        6.5660   19.3890  -15.8620 C.ar  137  TYR137      0.0417
    138  CZ         7.0410   18.1160  -15.7430 C.ar  137  TYR137      0.1957
    139  OH         7.3400   17.4120  -16.8860 O.3   137  TYR137     -0.2866
    140  N          8.1680   22.8670  -12.5050 N.am  138  GLU138     -0.1979
    141  CA         9.1720   23.6300  -13.2360 C.3   138  GLU138      0.1602
    142  C         10.5170   23.5780  -12.4830 C.2   138  GLU138      0.2287
    143  O         11.5910   23.5310  -13.0820 O.2   138  GLU138     -0.2864
    144  CB         8.5980   25.0460  -13.4400 C.3   138  GLU138      0.0415
    145  CG         7.4300   24.9620  -14.4530 C.3   138  GLU138      0.1163
    146  CD         6.3980   26.0760  -14.3330 C.2   138  GLU138      0.3649
    147  OE1        6.6430   27.0180  -13.5730 O.co2 138  GLU138     -0.2457
    148  OE2        5.3250   26.0020  -14.9920 O.co2 138  GLU138     -0.2457
    149  N         12.0520   20.2000  -13.2080 N.3   141  LEU141     -0.1245
    150  CA        12.6790   20.1820  -14.5350 C.3   141  LEU141      0.1561
    151  C         14.0810   20.7700  -14.5430 C.2   141  LEU141      0.2260
    152  O         14.9870   20.2460  -15.1700 O.2   141  LEU141     -0.2867
    153  CB        11.8040   20.8690  -15.5890 C.3   141  LEU141      0.0270
    154  CG        10.4830   20.1540  -15.9120 C.3   141  LEU141      0.0019
    155  CD1        9.6970   21.0560  -16.8990 C.3   141  LEU141      0.0001
    156  CD2       10.6900   18.7800  -16.4770 C.3   141  LEU141      0.0001
@<TRIPOS>BOND
     1    66    64   ar
     2    66    67   ar
     3    81    80    1
     4    68    67    1
     5    64    62   ar
     6    67    65   ar
     7    80    77    1
     8   155   154    1
     9   139   138    1
    10   156   154    1
    11    78    79    2
    12    78    77    1
    13    62    61    1
    14    62    63   ar
    15   154   153    1
    16   137   138   ar
    17   137   135   ar
    18    59    60    2
    19    59    58    1
    20   138   136   ar
    21    77    76    1
    22   153   150    1
    23    65    63   ar
    24    61    58    1
    25   152   151    2
    26    93    92    2
    27   148   146   ar
    28    76    71   am
    29    58    57    1
    30    82    83    1
    31   135   133   ar
    32   151   150    1
    33   150   149    1
    34   136   134   ar
    35   145   146    1
    36   145   144    1
    37   146   147   ar
    38    69    70    1
    39    92    91    1
    40   127   125   ar
    41    71    72    2
    42    71    70    1
    43    83    84    1
    44    83    86    1
    45   126   125   ar
    46    90    84   am
    47    90    91    1
    48   125   124    1
    49   133   134   ar
    50   133   132    1
    51   144   141    1
    52   141   140    1
    53   141   142    1
    54    84    85    2
    55   109   110    1
    56   109   108    1
    57    88    86    1
    58   143   142    2
    59    91    94    1
    60    70    73    1
    61    94    96    1
    62    94    95    1
    63   110   104    1
    64   124   123    1
    65   108   105    1
    66   131   130    2
    67    86    87    1
    68   140   130   am
    69    36    37    1
    70   123   120    1
    71   130   129    1
    72   132   129    1
    73    97    98    1
    74    73    75    1
    75    73    74    1
    76    37    40    1
    77    37    38    1
    78   122   121    2
    79    87    89    1
    80   104   105    1
    81   104    99   am
    82   105   106    1
    83   120   121    1
    84   120   119    1
    85   129   128    1
    86   106   107    2
    87    98    99    1
    88    98   101    1
    89    38    39    2
    90    38    41   am
    91    99   100    2
    92    32    31    2
    93   101   103    1
    94   101   102    1
    95    49    50    1
    96    41    42    1
    97    31    30    1
    98    43    42    1
    99    43    44    2
   100    34    33    1
   101    34    35    1
   102    50    51    1
   103    50    53    1
   104    33    30    1
   105    54    53    1
   106    54    55    1
   107    42    45    1
   108    56    55    1
   109    51    52    2
   110    30    29    1
   111    35    29    1
   112   111   112    1
   113    45    46    1
   114    45    47    1
   115   115   112    1
   116   115   116    1
   117    46    48    1
   118   113   112    1
   119   113   114    2
   120   116   117    1
   121   117   118    1
   122    23    22    2
   123    22    21    1
   124    27    26    2
   125    24    21    1
   126    24    25    1
   127    21    20    1
   128     9     7   ar
   129     9    11   ar
   130    26    25    1
   131    26    28   am
   132     7     6   ar
   133    20    14   am
   134     4     3    2
   135    15    14    2
   136    14    13    1
   137     2     3    1
   138     2     5    1
   139     2     1    1
   140     3    12   am
   141    11    10   ar
   142     6     5    1
   143     6     8   ar
   144    12    13    1
   145    13    16    1
   146    10     8   ar
   147    16    17    1
   148    18    17    1
   149    17    19    1
