@<TRIPOS>MOLECULE
tmp/3iisA02.pdb
 88 86 0 0 0
SMALL
GASTEIGER

@<TRIPOS>ATOM
      1  N         -4.7950    7.8850    1.2320 N.3    28  ILE28      -0.1231
      2  CA        -4.9210    7.5540   -0.2030 C.3    28  ILE28       0.1692
      3  C         -3.6040    7.0260   -0.7870 C.2    28  ILE28       0.2592
      4  O         -3.6370    6.2260   -1.7330 O.2    28  ILE28      -0.2718
      5  CB        -5.4090    8.7660   -0.9900 C.3    28  ILE28       0.0266
      6  CG1       -5.9330    8.2900   -2.3630 C.3    28  ILE28       0.0019
      7  CG2       -4.2820    9.8130   -1.1900 C.3    28  ILE28       0.0020
      8  CD1       -6.6230    9.3930   -3.1970 C.3    28  ILE28       0.0001
      9  N         -2.4720    7.4410   -0.2150 N.am   29  PHE29      -0.1976
     10  CA        -1.1730    7.0860   -0.7790 C.3    29  PHE29       0.1639
     11  C         -0.8400    5.6060   -0.6230 C.2    29  PHE29       0.2290
     12  O          0.0880    5.1010   -1.3120 O.2    29  PHE29      -0.2864
     13  CB        -0.0690    7.9840   -0.2160 C.3    29  PHE29       0.0560
     14  CG        -0.3680    9.4300   -0.3420 C.ar   29  PHE29      -0.0200
     15  CD1       -0.5510   10.0000   -1.6120 C.ar   29  PHE29      -0.0042
     16  CD2       -0.4670   10.2390    0.8110 C.ar   29  PHE29      -0.0042
     17  CE1       -0.8310   11.3960   -1.7460 C.ar   29  PHE29      -0.0003
     18  CE2       -0.7530   11.5710    0.6980 C.ar   29  PHE29      -0.0003
     19  CZ        -0.9410   12.1640   -0.5760 C.ar   29  PHE29      -0.0000
     20  N         -3.1200    3.3090   -1.4380 N.3    31  GLN31      -0.1231
     21  CA        -3.8650    2.6600   -2.5080 C.3    31  GLN31       0.1698
     22  C         -3.1060    2.6790   -3.8210 C.2    31  GLN31       0.2592
     23  O         -2.2680    3.5420   -4.0600 O.2    31  GLN31      -0.2718
     24  CB        -5.2060    3.3350   -2.7280 C.3    31  GLN31       0.0381
     25  CG        -6.0110    3.4450   -1.4770 C.3    31  GLN31       0.0905
     26  CD        -7.1490    4.4120   -1.6620 C.2    31  GLN31       0.2608
     27  OE1       -7.6570    4.5920   -2.7840 O.2    31  GLN31      -0.2717
     28  NE2       -7.5900    5.0080   -0.5730 N.am   31  GLN31      -0.0878
     29  N         -3.4130    1.7060   -4.6770 N.am   32  ALA32      -0.1966
     30  CA        -2.8360    1.7360   -6.0090 C.3    32  ALA32       0.1713
     31  C         -3.3040    3.0210   -6.7020 C.2    32  ALA32       0.2458
     32  O         -4.3890    3.5280   -6.4710 O.2    32  ALA32      -0.2730
     33  CB        -3.3070    0.4940   -6.7920 C.3    32  ALA32       0.0333
     34  N         -2.4680    3.5730   -7.5860 N.am   33  PRO33      -0.2716
     35  CA        -2.7990    4.8440   -8.3060 C.3    33  PRO33       0.1536
     36  C         -3.7640    4.5990   -9.4890 C.2    33  PRO33       0.2599
     37  O         -3.4310    4.8620  -10.6420 O.2    33  PRO33      -0.2715
     38  CB        -1.4090    5.3430   -8.7290 C.3    33  PRO33       0.0310
     39  CG        -0.6860    4.0570   -9.0250 C.3    33  PRO33       0.0237
     40  CD        -1.1090    3.0900   -7.9270 C.3    33  PRO33       0.0939
     41  N         -4.9440    4.0700   -9.1560 N.am   34  GLY34      -0.1955
     42  CA        -5.8840    3.6300  -10.1820 C.3    34  GLY34       0.1869
     43  C         -6.3540    2.2550   -9.8060 C.2    34  GLY34       0.2309
     44  O         -6.6970    2.0220   -8.6210 O.2    34  GLY34      -0.2863
     45  N         -3.4520    5.5510  -13.3490 N.3   117  ASP117     -0.1239
     46  CA        -4.6240    5.9480  -14.1160 C.3   117  ASP117      0.1674
     47  C         -4.3990    7.4050  -14.5550 C.2   117  ASP117      0.2266
     48  O         -3.8370    8.2150  -13.8160 O.2   117  ASP117     -0.2867
     49  CB        -5.8400    5.7890  -13.2110 C.3   117  ASP117      0.1410
     50  CG        -7.1420    6.0860  -13.9410 C.2   117  ASP117      0.3668
     51  OD1       -7.4220    7.2830  -14.1880 O.co2 117  ASP117     -0.2456
     52  OD2       -7.8810    5.1190  -14.3100 O.co2 117  ASP117     -0.2456
     53  N         -6.2230    9.8460  -14.5460 N.3   119  LYS119     -0.1231
     54  CA        -6.8360   10.8670  -13.6770 C.3   119  LYS119      0.1693
     55  C         -6.0250   11.1950  -12.4360 C.2   119  LYS119      0.2591
     56  O         -6.3110   12.1940  -11.7820 O.2   119  LYS119     -0.2718
     57  CB        -8.2080   10.3590  -13.1520 C.3   119  LYS119      0.0285
     58  CG        -9.3380   10.2770  -14.2080 C.3   119  LYS119      0.0035
     59  CD       -10.5970    9.8180  -13.5130 C.3   119  LYS119      0.0206
     60  CE       -11.7660    9.6800  -14.4330 C.3   119  LYS119      0.1093
     61  NZ       -12.8350    9.0930  -13.5460 N.3   119  LYS119     -0.1314
     62  N         -5.0400   10.3710  -12.0770 N.am  120  VAL120     -0.1980
     63  CA        -4.3700   10.5420  -10.7830 C.3   120  VAL120      0.1595
     64  C         -3.6190   11.8580  -10.6520 C.2   120  VAL120      0.2287
     65  O         -3.7640   12.5490   -9.6300 O.2   120  VAL120     -0.2864
     66  CB        -3.5040    9.2900  -10.4620 C.3   120  VAL120      0.0276
     67  CG1       -2.5230    9.5190   -9.3080 C.3   120  VAL120      0.0022
     68  CG2       -4.4210    8.1280  -10.0790 C.3   120  VAL120      0.0022
     69  N         -6.0290   14.6560  -10.0780 N.3   123  TYR123     -0.1227
     70  CA        -6.6750   14.5560   -8.7640 C.3   123  TYR123      0.1736
     71  C         -5.7270   15.0230   -7.6630 C.2   123  TYR123      0.2595
     72  O         -6.1010   15.8760   -6.8190 O.2   123  TYR123     -0.2718
     73  CB        -7.1830   13.1640   -8.4950 C.3   123  TYR123      0.0548
     74  CG        -7.8260   13.1320   -7.1360 C.ar  123  TYR123     -0.0200
     75  CD1       -8.9370   13.9670   -6.8250 C.ar  123  TYR123     -0.0009
     76  CD2       -7.2650   12.3810   -6.1080 C.ar  123  TYR123     -0.0009
     77  CE1       -9.5060   13.9520   -5.5250 C.ar  123  TYR123      0.0417
     78  CE2       -7.7980   12.4090   -4.8130 C.ar  123  TYR123      0.0417
     79  CZ        -8.9090   13.1620   -4.5320 C.ar  123  TYR123      0.1957
     80  OH        -9.4070   13.1180   -3.2280 O.3   123  TYR123     -0.2866
     81  N         -4.4750   14.5630   -7.6730 N.am  124  MET124     -0.1979
     82  CA        -3.5100   15.0680   -6.7000 C.3   124  MET124      0.1605
     83  C         -3.3310   16.5740   -6.7500 C.2   124  MET124      0.2287
     84  O         -3.3520   17.2990   -5.7170 O.2   124  MET124     -0.2864
     85  CB        -2.1580   14.3800   -6.9690 C.3   124  MET124      0.0413
     86  CG        -2.0790   12.9450   -6.4740 C.3   124  MET124      0.0598
     87  SD        -2.1480   12.8420   -4.7090 S.3   124  MET124     -0.1393
     88  CE        -3.7110   12.1580   -4.5910 C.3   124  MET124      0.0692
@<TRIPOS>BOND
     1    47    46    1
     2    47    48    2
     3    53    54    1
     4    60    61    1
     5    60    59    1
     6    52    50   ar
     7    58    59    1
     8    58    57    1
     9    51    50   ar
    10    46    45    1
    11    46    49    1
    12    50    49    1
    13    54    57    1
    14    54    55    1
    15    55    62   am
    16    55    56    2
    17    62    63    1
    18    63    64    1
    19    63    66    1
    20    64    65    2
    21    37    36    2
    22    66    68    1
    23    66    67    1
    24    42    43    1
    25    42    41    1
    26    69    70    1
    27    43    44    2
    28    36    41   am
    29    36    35    1
    30    39    38    1
    31    39    40    1
    32    70    73    1
    33    70    71    1
    34    38    35    1
    35    73    74    1
    36    35    34    1
    37    40    34    1
    38    81    71   am
    39    81    82    1
    40    71    72    2
    41    34    31   am
    42    74    75   ar
    43    74    76   ar
    44    85    82    1
    45    85    86    1
    46    75    77   ar
    47    33    30    1
    48    83    82    1
    49    83    84    2
    50    31    32    2
    51    31    30    1
    52    86    87    1
    53    76    78   ar
    54    30    29    1
    55    77    79   ar
    56    78    79   ar
    57    87    88    1
    58    29    22   am
    59    79    80    1
    60    23    22    2
    61    22    21    1
    62     8     6    1
    63    27    26    2
    64    24    21    1
    65    24    25    1
    66    21    20    1
    67     6     5    1
    68    17    15   ar
    69    17    19   ar
    70     4     3    2
    71    26    25    1
    72    26    28   am
    73    15    14   ar
    74    12    11    2
    75     7     5    1
    76     5     2    1
    77     3     9   am
    78     3     2    1
    79    10    11    1
    80    10    13    1
    81    10     9    1
    82    19    18   ar
    83    14    13    1
    84    14    16   ar
    85     2     1    1
    86    18    16   ar
