@<TRIPOS>MOLECULE
tmp/3iitA00.pdb
 176 174 0 0 0
SMALL
GASTEIGER

@<TRIPOS>ATOM
      1  N         11.4380    4.5800   10.3250 N.3    82  LYS82      -0.1231
      2  CA        10.3020    4.9330   11.1460 C.3    82  LYS82       0.1693
      3  C          9.6560    3.7300   11.8220 C.2    82  LYS82       0.2592
      4  O          8.9970    3.8800   12.8460 O.2    82  LYS82      -0.2718
      5  CB         9.2600    5.7070   10.3340 C.3    82  LYS82       0.0285
      6  CG         9.7230    7.1050    9.9150 C.3    82  LYS82       0.0035
      7  CD         8.6320    7.8650    9.1710 C.3    82  LYS82       0.0206
      8  CE         7.4610    8.2280   10.0700 C.3    82  LYS82       0.1093
      9  NZ         7.5520    9.6200   10.5820 N.3    82  LYS82      -0.1314
     10  N          9.8030    2.5350   11.2570 N.am   83  GLU83      -0.1966
     11  CA         9.0230    1.4160   11.7800 C.3    83  GLU83       0.1733
     12  C          9.6430    0.7940   13.0290 C.2    83  GLU83       0.2617
     13  O          8.9400    0.1720   13.8240 O.2    83  GLU83      -0.2715
     14  CB         8.7840    0.3380   10.7140 C.3    83  GLU83       0.0429
     15  CG         8.1820    0.9630    9.4610 C.3    83  GLU83       0.1163
     16  CD         6.7190    1.2980    9.5640 C.2    83  GLU83       0.3649
     17  OE1        6.1420    1.0320   10.6210 O.co2  83  GLU83      -0.2457
     18  OE2        6.1350    1.8350    8.5720 O.co2  83  GLU83      -0.2457
     19  N         10.9460    0.9720   13.2110 N.am   84  THR84      -0.1937
     20  CA        11.6330    0.4500   14.3990 C.3    84  THR84       0.2028
     21  C         12.3880    1.5390   15.1600 C.2    84  THR84       0.2642
     22  O         12.8880    1.2850   16.2570 O.2    84  THR84      -0.2714
     23  CB        12.6640   -0.5840   14.0240 C.3    84  THR84       0.1808
     24  OG1       13.6420    0.0080   13.1460 O.3    84  THR84      -0.2208
     25  CG2       11.9660   -1.8160   13.3410 C.3    84  THR84       0.0379
     26  N         12.4340    2.7280   14.5690 N.am   85  TYR85      -0.1973
     27  CA        13.2430    3.8650   15.0440 C.3    85  TYR85       0.1639
     28  C         14.7210    3.5260   15.1000 C.2    85  TYR85       0.2290
     29  O         15.4770    4.1370   15.8820 O.2    85  TYR85      -0.2864
     30  CB        12.7900    4.3700   16.4100 C.3    85  TYR85       0.0560
     31  CG        11.6410    5.3360   16.3560 C.ar   85  TYR85      -0.0198
     32  CD1       11.4500    6.2690   17.3580 C.ar   85  TYR85      -0.0009
     33  CD2       10.7320    5.3110   15.2860 C.ar   85  TYR85      -0.0009
     34  CE1       10.3770    7.1350   17.3100 C.ar   85  TYR85       0.0417
     35  CE2        9.6650    6.1800   15.2240 C.ar   85  TYR85       0.0417
     36  CZ         9.4920    7.0830   16.2330 C.ar   85  TYR85       0.1957
     37  OH         8.4440    7.9460   16.1690 O.3    85  TYR85      -0.2866
     38  N          2.8750   10.5810   31.4950 N.3   135  GLU135     -0.1245
     39  CA         2.5050   10.0360   30.2060 C.3   135  GLU135      0.1567
     40  C          1.4140   10.8280   29.4740 C.2   135  GLU135      0.2260
     41  O          1.5280   11.1200   28.2710 O.2   135  GLU135     -0.2867
     42  CB         2.1120    8.5660   30.3800 C.3   135  GLU135      0.0388
     43  CG         1.5010    7.9620   29.1620 C.3   135  GLU135      0.1160
     44  CD         1.6370    6.4550   29.1060 C.2   135  GLU135      0.3649
     45  OE1        2.2920    5.8600   29.9880 O.co2 135  GLU135     -0.2457
     46  OE2        1.0970    5.8650   28.1470 O.co2 135  GLU135     -0.2457
     47  N          8.9500   -4.3050   21.2290 N.3   162  PHE162     -0.1241
     48  CA         9.5120   -3.9480   19.9330 C.3   162  PHE162      0.1605
     49  C         11.0020   -4.2180   19.9810 C.2   162  PHE162      0.2264
     50  O         11.6300   -4.1410   21.0540 O.2   162  PHE162     -0.2867
     51  CB         9.2790   -2.4560   19.6130 C.3   162  PHE162      0.0534
     52  CG         7.8410   -2.0090   19.6970 C.ar  162  PHE162     -0.0203
     53  CD1        7.0140   -2.0800   18.5930 C.ar  162  PHE162     -0.0042
     54  CD2        7.3330   -1.4800   20.8730 C.ar  162  PHE162     -0.0042
     55  CE1        5.7050   -1.6460   18.6560 C.ar  162  PHE162     -0.0003
     56  CE2        6.0340   -1.0520   20.9530 C.ar  162  PHE162     -0.0003
     57  CZ         5.2060   -1.1380   19.8390 C.ar  162  PHE162     -0.0000
     58  N         11.1500    8.6580   34.3510 N.3   179  ASP179     -0.1225
     59  CA        11.4580    8.2910   32.9680 C.3   179  ASP179      0.1805
     60  C         11.4640    9.6090   32.1740 C.2   179  ASP179      0.2598
     61  O         11.0240   10.6470   32.6770 O.2   179  ASP179     -0.2718
     62  CB        10.3750    7.3140   32.4740 C.3   179  ASP179      0.1424
     63  CG        10.7620    6.5700   31.2010 C.2   179  ASP179      0.3668
     64  OD1       11.9150    6.6900   30.7420 O.co2 179  ASP179     -0.2456
     65  OD2        9.9000    5.8390   30.6680 O.co2 179  ASP179     -0.2456
     66  N         12.0340    9.5800   30.9740 N.am  180  ALA180     -0.1966
     67  CA        11.8020   10.6280   30.0080 C.3   180  ALA180      0.1728
     68  C         10.3930   10.4030   29.5020 C.2   180  ALA180      0.2616
     69  O          9.7540    9.4160   29.8510 O.2   180  ALA180     -0.2715
     70  CB        12.8180   10.5240   28.8330 C.3   180  ALA180      0.0334
     71  N          9.9210   11.3070   28.6560 N.am  181  CYS181     -0.1954
     72  CA         8.6090   11.1860   28.0930 C.3   181  CYS181      0.1843
     73  C          8.5190   12.0100   26.8040 C.2   181  CYS181      0.2625
     74  O          9.4920   12.6340   26.3810 O.2   181  CYS181     -0.2714
     75  CB         7.5720   11.6740   29.1220 C.3   181  CYS181      0.0997
     76  SG         5.8790   11.1050   28.8040 S.3   181  CYS181     -0.0797
     77  N          7.3310   12.0460   26.2080 N.am  182  GLN182     -0.1977
     78  CA         7.1090   12.7010   24.9250 C.3   182  GLN182      0.1601
     79  C          7.5340   14.1600   25.0620 C.2   182  GLN182      0.2287
     80  O          7.2610   14.7980   26.0630 O.2   182  GLN182     -0.2864
     81  CB         5.6040   12.5510   24.5650 C.3   182  GLN182      0.0394
     82  CG         5.1350   13.1030   23.2250 C.3   182  GLN182      0.0908
     83  CD         3.6930   12.7040   22.9180 C.2   182  GLN182      0.2608
     84  OE1        3.1040   11.8520   23.6160 O.2   182  GLN182     -0.2717
     85  NE2        3.1070   13.3180   21.8800 N.am  182  GLN182     -0.0878
     86  N         12.1970   13.7450   23.5560 N.3   185  SER185     -0.1217
     87  CA        12.8400   13.1290   22.3960 C.3   185  SER185      0.1889
     88  C         13.8570   14.0070   21.7150 C.2   185  SER185      0.2288
     89  O         13.6260   15.2030   21.5290 O.2   185  SER185     -0.2866
     90  CB        11.7830   12.7370   21.3760 C.3   185  SER185      0.2089
     91  OG        10.9620   11.7680   21.9680 O.3   185  SER185     -0.2183
     92  N         17.6110   10.7770   23.5450 N.3   203  VAL203     -0.1231
     93  CA        16.2820   10.3240   23.9130 C.3   203  VAL203      0.1692
     94  C         15.4960    9.8860   22.6420 C.2   203  VAL203      0.2593
     95  O         15.3840   10.6340   21.6750 O.2   203  VAL203     -0.2718
     96  CB        15.4870   11.3750   24.6910 C.3   203  VAL203      0.0266
     97  CG1       14.0890   10.8120   25.0540 C.3   203  VAL203      0.0020
     98  CG2       16.2660   11.8350   25.9690 C.3   203  VAL203      0.0020
     99  N         14.9930    8.6560   22.6350 N.am  204  SER204     -0.1938
    100  CA        14.4660    8.0900   21.3870 C.3   204  SER204      0.2055
    101  C         12.9980    7.6770   21.4460 C.2   204  SER204      0.2643
    102  O         12.1530    8.2410   20.7410 O.2   204  SER204     -0.2714
    103  CB        15.3570    6.9380   20.8960 C.3   204  SER204      0.2130
    104  OG        14.9270    6.4100   19.6260 O.3   204  SER204     -0.2179
    105  N         12.6850    6.6730   22.2570 N.am  205  TRP205     -0.1959
    106  CA        11.2810    6.2640   22.3610 C.3   205  TRP205      0.1771
    107  C         11.0240    5.4950   23.6400 C.2   205  TRP205      0.2620
    108  O         11.9400    5.1680   24.3750 O.2   205  TRP205     -0.2715
    109  CB        10.8390    5.4260   21.1440 C.3   205  TRP205      0.0590
    110  CG        11.6480    4.1770   20.8600 C.ar  205  TRP205      0.0006
    111  CD1       12.8140    4.1040   20.1280 C.ar  205  TRP205      0.0946
    112  CD2       11.3450    2.8310   21.2510 C.ar  205  TRP205      0.0152
    113  NE1       13.2370    2.8160   20.0500 N.ar  205  TRP205     -0.2442
    114  CE2       12.3600    2.0070   20.7220 C.ar  205  TRP205      0.0810
    115  CE3       10.3210    2.2420   22.0000 C.ar  205  TRP205      0.0012
    116  CZ2       12.4020    0.6210   20.9480 C.ar  205  TRP205      0.0191
    117  CZ3       10.3450    0.8450   22.1990 C.ar  205  TRP205      0.0001
    118  CH2       11.3660    0.0640   21.6750 C.ar  205  TRP205      0.0015
    119  N          9.7550    5.2410   23.9180 N.am  206  GLY206     -0.1940
    120  CA         9.3850    4.3400   25.0040 C.3   206  GLY206      0.2014
    121  C          7.9400    3.9080   24.7760 C.2   206  GLY206      0.2639
    122  O          7.1940    4.5930   24.0720 O.2   206  GLY206     -0.2714
    123  N          7.5640    2.7630   25.3370 N.am  207  GLU207     -0.1963
    124  CA         6.1450    2.3590   25.3920 C.3   207  GLU207      0.1733
    125  C          5.4940    3.1120   26.5420 C.2   207  GLU207      0.2617
    126  O          5.5890    2.7140   27.6940 O.2   207  GLU207     -0.2715
    127  CB         6.0510    0.8550   25.5740 C.3   207  GLU207      0.0429
    128  CG         6.8710    0.1200   24.5210 C.3   207  GLU207      0.1163
    129  CD         6.6960   -1.3870   24.5730 C.2   207  GLU207      0.3649
    130  OE1        7.7190   -2.1190   24.6170 O.co2 207  GLU207     -0.2457
    131  OE2        5.5220   -1.8370   24.5820 O.co2 207  GLU207     -0.2457
    132  N          4.8980    4.2520   26.2470 N.am  208  GLY208     -0.1940
    133  CA         4.4940    5.1370   27.3260 C.3   208  GLY208      0.2014
    134  C          5.6650    5.7160   28.1160 C.2   208  GLY208      0.2639
    135  O          6.8360    5.6280   27.7120 O.2   208  GLY208     -0.2714
    136  N          5.3570    6.3060   29.2620 N.am  209  CYS209     -0.1967
    137  CA         6.3720    6.9270   30.0850 C.3   209  CYS209      0.1712
    138  C          6.3020    6.3820   31.4820 C.2   209  CYS209      0.2296
    139  O          5.2680    6.5090   32.1400 O.2   209  CYS209     -0.2864
    140  CB         6.1570    8.4380   30.1290 C.3   209  CYS209      0.0983
    141  SG         6.0000    9.1360   28.4970 S.3   209  CYS209     -0.0798
    142  N          6.1460    3.4030   32.6050 N.3   211  ARG211     -0.1245
    143  CA         5.3090    2.2030   32.8030 C.3   211  ARG211      0.1563
    144  C          6.0580    1.0730   33.5030 C.2   211  ARG211      0.2260
    145  O          7.2920    0.9270   33.3590 O.2   211  ARG211     -0.2867
    146  CB         4.7980    1.6960   31.4680 C.3   211  ARG211      0.0307
    147  CG         3.7500    2.5760   30.8470 C.3   211  ARG211      0.0489
    148  CD         3.1730    1.9540   29.5790 C.3   211  ARG211      0.2205
    149  NE         2.1500    2.8130   28.9940 N.pl3 211  ARG211     -0.0865
    150  CZ         1.5540    2.5620   27.8350 C.cat 211  ARG211      0.5346
    151  NH1        1.8880    1.4770   27.1440 N.pl3 211  ARG211      0.1354
    152  NH2        0.6350    3.3950   27.3660 N.pl3 211  ARG211      0.1354
    153  N         13.2090    3.3420   29.2730 N.3   216  GLY216     -0.1210
    154  CA        13.4000    4.3760   28.2380 C.3   216  GLY216      0.1956
    155  C         14.4150    3.8490   27.2450 C.2   216  GLY216      0.2612
    156  O         15.4000    3.2290   27.6420 O.2   216  GLY216     -0.2717
    157  N         14.1460    4.0560   25.9600 N.am  217  ILE217     -0.1965
    158  CA        15.0200    3.6040   24.9030 C.3   217  ILE217      0.1727
    159  C         15.7470    4.8000   24.2550 C.2   217  ILE217      0.2616
    160  O         15.1240    5.7300   23.7570 O.2   217  ILE217     -0.2715
    161  CB        14.2720    2.8090   23.8080 C.3   217  ILE217      0.0290
    162  CG1       13.2260    1.8750   24.4530 C.3   217  ILE217      0.0022
    163  CG2       15.2780    2.0530   22.9410 C.3   217  ILE217      0.0023
    164  CD1       13.8710    0.7890   25.3150 C.3   217  ILE217      0.0001
    165  N         17.0690    4.7050   24.2190 N.am  218  TYR218     -0.1974
    166  CA        17.9530    5.7860   23.7500 C.3   218  TYR218      0.1639
    167  C         18.7820    5.3200   22.5840 C.2   218  TYR218      0.2290
    168  O         19.2090    4.1630   22.5310 O.2   218  TYR218     -0.2864
    169  CB        18.9410    6.1180   24.8710 C.3   218  TYR218      0.0560
    170  CG        18.2380    6.6470   26.0850 C.ar  218  TYR218     -0.0198
    171  CD1       18.1540    8.0160   26.3070 C.ar  218  TYR218     -0.0009
    172  CD2       17.5790    5.7800   26.9640 C.ar  218  TYR218     -0.0009
    173  CE1       17.4870    8.5090   27.4100 C.ar  218  TYR218      0.0417
    174  CE2       16.8920    6.2700   28.0500 C.ar  218  TYR218      0.0417
    175  CZ        16.8550    7.6410   28.2760 C.ar  218  TYR218      0.1957
    176  OH        16.1840    8.1570   29.3720 O.3   218  TYR218     -0.2866
@<TRIPOS>BOND
     1    18    16   ar
     2     7     6    1
     3     7     8    1
     4    15    16    1
     5    15    14    1
     6    16    17   ar
     7     6     5    1
     8     8     9    1
     9     1     2    1
    10     5     2    1
    11    14    11    1
    12     2     3    1
    13    10    11    1
    14    10     3   am
    15    11    12    1
    16     3     4    2
    17    12    19   am
    18    12    13    2
    19    24    23    1
    20    19    20    1
    21    25    23    1
    22    23    20    1
    23    20    21    1
    24    26    27    1
    25    26    21   am
    26    27    28    1
    27    27    30    1
    28    28    29    2
    29    21    22    2
    30    35    33   ar
    31    35    36   ar
    32    33    31   ar
    33    37    36    1
    34    36    34   ar
    35    31    30    1
    36    31    32   ar
    37    34    32   ar
    38    53    55   ar
    39    53    52   ar
    40    55    57   ar
    41    51    52    1
    42    51    48    1
    43   104   103    1
    44    52    54   ar
    45    57    56   ar
    46    48    49    1
    47    48    47    1
    48    49    50    2
    49   113   111   ar
    50   113   114   ar
    51   111   110   ar
    52   114   116   ar
    53   114   112   ar
    54   102   101    2
    55   110   109    1
    56   110   112   ar
    57    54    56   ar
    58   103   100    1
    59   116   118   ar
    60   109   106    1
    61   112   115   ar
    62    90    91    1
    63    90    87    1
    64   100   101    1
    65   100    99    1
    66   101   105   am
    67    89    88    2
    68   118   117   ar
    69    95    94    2
    70    88    87    1
    71    85    83   am
    72   115   117   ar
    73   105   106    1
    74   106   107    1
    75    87    86    1
    76   168   167    2
    77   167   166    1
    78    99    94   am
    79    94    93    1
    80    83    82    1
    81    83    84    2
    82   163   161    1
    83    82    81    1
    84    92    93    1
    85   107   119   am
    86   107   108    2
    87   166   165    1
    88   166   169    1
    89   160   159    2
    90   161   162    1
    91   161   158    1
    92    93    96    1
    93   119   120    1
    94   122   121    2
    95   165   159   am
    96   159   158    1
    97   162   164    1
    98   128   129    1
    99   128   127    1
   100    81    78    1
   101   129   131   ar
   102   129   130   ar
   103    96    97    1
   104    96    98    1
   105   121   120    1
   106   121   123   am
   107   169   170    1
   108   158   157    1
   109    78    79    1
   110    78    77    1
   111    79    80    2
   112   123   124    1
   113   124   127    1
   114   124   125    1
   115   157   155   am
   116   170   171   ar
   117   170   172   ar
   118    77    73   am
   119   132   125   am
   120   132   133    1
   121   171   173   ar
   122    74    73    2
   123   125   126    2
   124    73    72    1
   125   172   174   ar
   126   151   150    1
   127   155   156    2
   128   155   154    1
   129   133   134    1
   130   152   150    1
   131   173   175   ar
   132   135   134    2
   133   150   149    2
   134   174   175   ar
   135    72    71    1
   136    72    75    1
   137   134   136   am
   138    46    44   ar
   139   154   153    1
   140    41    40    2
   141   175   176    1
   142   141    76    1
   143   141   140    1
   144    71    68   am
   145    76    75    1
   146    70    67    1
   147   149   148    1
   148    44    43    1
   149    44    45   ar
   150    43    42    1
   151   136   137    1
   152    40    39    1
   153    68    69    2
   154    68    67    1
   155   148   147    1
   156    67    66    1
   157   137   140    1
   158   137   138    1
   159    39    42    1
   160    39    38    1
   161    65    63   ar
   162    64    63   ar
   163   147   146    1
   164    66    60   am
   165    63    62    1
   166   146   143    1
   167   138   139    2
   168    60    61    2
   169    60    59    1
   170    62    59    1
   171   142   143    1
   172   143   144    1
   173    59    58    1
   174   145   144    2
