@<TRIPOS>MOLECULE
tmp/3iiuA03.pdb
 141 133 0 0 0
SMALL
GASTEIGER

@<TRIPOS>ATOM
      1  N          7.9110    2.7990    9.7980 N.3    45  ILE45      -0.1245
      2  CA         8.7510    3.0370    8.6030 C.3    45  ILE45       0.1561
      3  C         10.0560    3.7250    9.0420 C.2    45  ILE45       0.2260
      4  O         11.1270    3.3710    8.5380 O.2    45  ILE45      -0.2867
      5  CB         7.9900    3.8670    7.5590 C.3    45  ILE45       0.0252
      6  CG1        6.8130    3.0960    6.9360 C.3    45  ILE45       0.0019
      7  CG2        8.9290    4.3260    6.4700 C.3    45  ILE45       0.0019
      8  CD1        7.0500    1.7410    6.3810 C.3    45  ILE45       0.0001
      9  N         12.3890    1.1270   10.2180 N.3    48  MET48      -0.1230
     10  CA        12.9240    0.4380    9.0340 C.3    48  MET48       0.1702
     11  C         13.9940    1.2450    8.3370 C.2    48  MET48       0.2592
     12  O         15.0450    0.6720    7.9200 O.2    48  MET48      -0.2718
     13  CB        11.8100    0.0640    8.0500 C.3    48  MET48       0.0401
     14  CG        10.8510   -0.9420    8.6860 C.3    48  MET48       0.0596
     15  SD         9.4920   -1.1380    7.4910 S.3    48  MET48      -0.1393
     16  CE         8.0780   -1.6090    8.5060 C.3    48  MET48       0.0692
     17  N         13.7750    2.5520    8.1960 N.am   49  ILE49      -0.1980
     18  CA        14.7840    3.4130    7.5190 C.3    49  ILE49       0.1595
     19  C         16.1010    3.4600    8.3270 C.2    49  ILE49       0.2287
     20  O         17.1940    3.3500    7.7550 O.2    49  ILE49      -0.2864
     21  CB        14.1720    4.7950    7.3130 C.3    49  ILE49       0.0276
     22  CG1       13.0420    4.6590    6.2900 C.3    49  ILE49       0.0022
     23  CG2       15.2680    5.7760    6.8620 C.3    49  ILE49       0.0022
     24  CD1       12.1840    5.9670    6.1920 C.3    49  ILE49       0.0001
     25  N         17.1900    1.0950   10.2770 N.3    51  MET51      -0.1230
     26  CA        17.8070   -0.2110   10.0760 C.3    51  MET51       0.1702
     27  C         18.4600   -0.3160    8.6920 C.2    51  MET51       0.2592
     28  O         19.5860   -0.8340    8.5680 O.2    51  MET51      -0.2718
     29  CB        16.7550   -1.3040   10.2540 C.3    51  MET51       0.0401
     30  CG        17.3070   -2.7240    9.9830 C.3    51  MET51       0.0596
     31  SD        16.1450   -3.9320   10.6040 S.3    51  MET51      -0.1393
     32  CE        16.6190   -5.3290    9.6240 C.3    51  MET51       0.0692
     33  N         17.7640    0.1250    7.6320 N.am   52  GLY52      -0.1957
     34  CA        18.3330    0.1050    6.2750 C.3    52  GLY52       0.1869
     35  C         19.6190    0.9030    6.1650 C.2    52  GLY52       0.2309
     36  O         20.5680    0.4840    5.5080 O.2    52  GLY52      -0.2863
     37  N         22.7440   -5.5030    1.4390 N.3    60  LEU60      -0.1245
     38  CA        21.4900   -4.9690    0.9030 C.3    60  LEU60       0.1561
     39  C         21.4310   -5.1380   -0.6020 C.2    60  LEU60       0.2260
     40  O         20.4150   -5.5370   -1.1750 O.2    60  LEU60      -0.2867
     41  CB        21.3450   -3.4850    1.2300 C.3    60  LEU60       0.0270
     42  CG        20.9350   -3.0820    2.6190 C.3    60  LEU60       0.0019
     43  CD1       20.8390   -1.5420    2.6310 C.3    60  LEU60       0.0001
     44  CD2       19.5660   -3.6640    3.0380 C.3    60  LEU60       0.0001
     45  N         18.3270  -12.2090    2.9650 N.3    93  LEU93      -0.1245
     46  CA        17.6840  -11.3870    4.0140 C.3    93  LEU93       0.1561
     47  C         18.2040  -11.7350    5.3870 C.2    93  LEU93       0.2260
     48  O         18.4550  -10.8380    6.1710 O.2    93  LEU93      -0.2867
     49  CB        16.1490  -11.5210    3.9760 C.3    93  LEU93       0.0270
     50  CG        15.5450  -10.8290    2.7510 C.3    93  LEU93       0.0019
     51  CD1       14.0370  -10.9910    2.8050 C.3    93  LEU93       0.0001
     52  CD2       15.9260   -9.3620    2.6920 C.3    93  LEU93       0.0001
     53  N         21.2810   -9.7370    5.8350 N.3    96  VAL96      -0.1231
     54  CA        20.9750   -8.3350    6.1350 C.3    96  VAL96       0.1692
     55  C         20.5850   -8.1920    7.5980 C.2    96  VAL96       0.2591
     56  O         21.0850   -7.2810    8.2850 O.2    96  VAL96      -0.2718
     57  CB        19.8590   -7.8270    5.2090 C.3    96  VAL96       0.0266
     58  CG1       19.3100   -6.4790    5.7310 C.3    96  VAL96       0.0020
     59  CG2       20.3860   -7.6410    3.7720 C.3    96  VAL96       0.0020
     60  N         19.7050   -9.0560    8.0910 N.am   97  ILE97      -0.1980
     61  CA        19.3160   -9.0190    9.5230 C.3    97  ILE97       0.1595
     62  C         20.5300   -9.1170   10.4540 C.2    97  ILE97       0.2287
     63  O         20.6480   -8.3440   11.4390 O.2    97  ILE97      -0.2864
     64  CB        18.3170  -10.1630    9.8570 C.3    97  ILE97       0.0276
     65  CG1       17.0380  -10.0880    8.9960 C.3    97  ILE97       0.0022
     66  CG2       18.0100  -10.1810   11.3510 C.3    97  ILE97       0.0022
     67  CD1       16.1600   -8.8880    9.2590 C.3    97  ILE97       0.0001
     68  N         16.3850   -4.5550   14.8500 N.3   105  VAL105     -0.1231
     69  CA        15.4720   -5.5310   14.2970 C.3   105  VAL105      0.1692
     70  C         14.2340   -5.6070   15.1810 C.2   105  VAL105      0.2591
     71  O         13.1060   -5.6180   14.6740 O.2   105  VAL105     -0.2718
     72  CB        16.1700   -6.9360   14.1910 C.3   105  VAL105      0.0266
     73  CG1       15.2220   -7.9670   13.5790 C.3   105  VAL105      0.0020
     74  CG2       17.4490   -6.7820   13.3250 C.3   105  VAL105      0.0020
     75  N         14.4400   -5.6410   16.4910 N.am  106  MET106     -0.1979
     76  CA        13.3180   -5.6640   17.4240 C.3   106  MET106      0.1605
     77  C         12.4710   -4.3970   17.3700 C.2   106  MET106      0.2287
     78  O         11.2310   -4.4660   17.5260 O.2   106  MET106     -0.2864
     79  CB        13.8260   -5.9200   18.8460 C.3   106  MET106      0.0413
     80  CG        14.3940   -7.3440   19.0170 C.3   106  MET106      0.0598
     81  SD        13.2970   -8.7070   18.5400 S.3   106  MET106     -0.1393
     82  CE        11.8920   -8.4250   19.6170 C.3   106  MET106      0.0692
     83  N         11.8780   -2.6130   14.6770 N.3   108  VAL108     -0.1231
     84  CA        10.9640   -2.7590   13.5490 C.3   108  VAL108      0.1692
     85  C          9.7880   -3.6740   13.9050 C.2   108  VAL108      0.2592
     86  O          8.6290   -3.3130   13.6940 O.2   108  VAL108     -0.2718
     87  CB        11.7130   -3.3060   12.3220 C.3   108  VAL108      0.0266
     88  CG1       10.7100   -3.6690   11.2380 C.3   108  VAL108      0.0020
     89  CG2       12.7110   -2.2340   11.8340 C.3   108  VAL108      0.0020
     90  N         10.1080   -4.8380   14.4720 N.am  109  TYR109     -0.1976
     91  CA         9.0860   -5.8050   14.8330 C.3   109  TYR109      0.1639
     92  C          8.0300   -5.2190   15.7890 C.2   109  TYR109      0.2290
     93  O          6.8410   -5.3540   15.5440 O.2   109  TYR109     -0.2864
     94  CB         9.7980   -7.0110   15.4070 C.3   109  TYR109      0.0560
     95  CG         8.9360   -8.0960   15.9480 C.ar  109  TYR109     -0.0198
     96  CD1        8.2570   -8.9700   15.0900 C.ar  109  TYR109     -0.0009
     97  CD2        8.8270   -8.2720   17.3390 C.ar  109  TYR109     -0.0009
     98  CE1        7.4780  -10.0110   15.6130 C.ar  109  TYR109      0.0417
     99  CE2        8.0710   -9.3050   17.8830 C.ar  109  TYR109      0.0417
    100  CZ         7.3920  -10.1450   17.0070 C.ar  109  TYR109      0.1957
    101  OH         6.6590  -11.1550   17.5440 O.3   109  TYR109     -0.2866
    102  N          6.8750  -21.6760   10.3730 N.3   137  TYR137     -0.1241
    103  CA         7.2300  -20.8680   11.5180 C.3   137  TYR137      0.1605
    104  C          8.2690  -21.5800   12.3950 C.2   137  TYR137      0.2264
    105  O          9.1970  -20.9550   12.8950 O.2   137  TYR137     -0.2867
    106  CB         5.9740  -20.4490   12.3120 C.3   137  TYR137      0.0534
    107  CG         6.2870  -19.6320   13.5150 C.ar  137  TYR137     -0.0201
    108  CD1        6.7320  -18.3090   13.3930 C.ar  137  TYR137     -0.0009
    109  CD2        6.1560  -20.1730   14.8180 C.ar  137  TYR137     -0.0009
    110  CE1        7.0350  -17.5340   14.5440 C.ar  137  TYR137      0.0417
    111  CE2        6.4590  -19.3860   15.9440 C.ar  137  TYR137      0.0417
    112  CZ         6.8830  -18.0860   15.7960 C.ar  137  TYR137      0.1957
    113  OH         7.1920  -17.3620   16.9460 O.3   137  TYR137     -0.2866
    114  N         11.4180  -21.0260   10.7910 N.3   140  PHE140     -0.1227
    115  CA        11.8790  -19.6700   11.0170 C.3   140  PHE140      0.1736
    116  C         12.5790  -19.5590   12.3820 C.2   140  PHE140      0.2595
    117  O         13.6250  -18.9170   12.4900 O.2   140  PHE140     -0.2718
    118  CB        10.6990  -18.6700   10.9260 C.3   140  PHE140      0.0547
    119  CG        11.1020  -17.2480   11.3380 C.ar  140  PHE140     -0.0202
    120  CD1       11.8120  -16.4280   10.4500 C.ar  140  PHE140     -0.0042
    121  CD2       10.8370  -16.7620   12.6160 C.ar  140  PHE140     -0.0042
    122  CE1       12.2110  -15.1210   10.8050 C.ar  140  PHE140     -0.0003
    123  CE2       11.2410  -15.4680   13.0020 C.ar  140  PHE140     -0.0003
    124  CZ        11.9300  -14.6450   12.0690 C.ar  140  PHE140     -0.0000
    125  N         12.0070  -20.1920   13.4110 N.am  141  LEU141     -0.1980
    126  CA        12.6330  -20.1600   14.7370 C.3   141  LEU141      0.1596
    127  C         14.0410  -20.7810   14.7390 C.2   141  LEU141      0.2287
    128  O         14.9440  -20.2490   15.3710 O.2   141  LEU141     -0.2864
    129  CB        11.7560  -20.8230   15.8160 C.3   141  LEU141      0.0297
    130  CG        10.4130  -20.1260   16.0420 C.3   141  LEU141      0.0022
    131  CD1        9.6300  -20.9720   17.0200 C.3   141  LEU141      0.0001
    132  CD2       10.5470  -18.7270   16.5870 C.3   141  LEU141      0.0001
    133  N         16.3950  -18.2180   12.6880 N.3   144  LYS144     -0.1245
    134  CA        16.7650  -16.9980   13.4010 C.3   144  LYS144      0.1561
    135  C         17.8650  -17.2360   14.4390 C.2   144  LYS144      0.2260
    136  O         18.6070  -16.3110   14.7850 O.2   144  LYS144     -0.2867
    137  CB        15.5360  -16.3120   14.0250 C.3   144  LYS144      0.0271
    138  CG        14.8180  -17.1290   15.0990 C.3   144  LYS144      0.0035
    139  CD        15.3710  -16.8490   16.4860 C.3   144  LYS144      0.0206
    140  CE        14.4600  -17.4080   17.5690 C.3   144  LYS144      0.1093
    141  NZ        14.5080  -18.8910   17.5950 N.3   144  LYS144     -0.1314
@<TRIPOS>BOND
     1    40    39    2
     2    39    38    1
     3    38    41    1
     4    38    37    1
     5    41    42    1
     6    42    43    1
     7    42    44    1
     8    52    50    1
     9    50    51    1
    10    50    49    1
    11    45    46    1
    12    59    57    1
    13    49    46    1
    14    46    47    1
    15    57    58    1
    16    57    54    1
    17    47    48    2
    18    36    35    2
    19    53    54    1
    20    54    55    1
    21    35    34    1
    22    24    22    1
    23    34    33    1
    24    22    21    1
    25     8     6    1
    26     7     5    1
    27    23    21    1
    28     6     5    1
    29    21    18    1
    30    15    16    1
    31    15    14    1
    32    18    17    1
    33    18    19    1
    34     5     2    1
    35    55    60   am
    36    55    56    2
    37    33    27   am
    38    20    19    2
    39    12    11    2
    40    13    14    1
    41    13    10    1
    42    60    61    1
    43    17    11   am
    44    11    10    1
    45     4     3    2
    46    28    27    2
    47     2     3    1
    48     2     1    1
    49    27    26    1
    50    65    67    1
    51    65    64    1
    52    10     9    1
    53    61    64    1
    54    61    62    1
    55    32    31    1
    56    64    66    1
    57    30    29    1
    58    30    31    1
    59    26    29    1
    60    26    25    1
    61   102   103    1
    62   120   122   ar
    63   120   119   ar
    64    62    63    2
    65   114   115    1
    66   122   124   ar
    67   118   115    1
    68   118   119    1
    69   115   116    1
    70    88    87    1
    71   119   121   ar
    72   103   106    1
    73   103   104    1
    74    89    87    1
    75   124   123   ar
    76   106   107    1
    77    87    84    1
    78   116   117    2
    79   116   125   am
    80   104   105    2
    81   121   123   ar
    82   133   134    1
    83    74    72    1
    84   108   107   ar
    85   108   110   ar
    86   134   137    1
    87   134   135    1
    88   125   126    1
    89   107   109   ar
    90    84    85    1
    91    84    83    1
    92    73    72    1
    93    86    85    2
    94    85    90   am
    95   137   138    1
    96    72    69    1
    97    69    68    1
    98    69    70    1
    99   135   136    2
   100    90    91    1
   101   110   112   ar
   102    71    70    2
   103   126   127    1
   104   126   129    1
   105   127   128    2
   106   109   111   ar
   107    91    94    1
   108    91    92    1
   109    96    98   ar
   110    96    95   ar
   111   138   139    1
   112    70    75   am
   113    94    95    1
   114    93    92    2
   115    98   100   ar
   116   112   111   ar
   117   112   113    1
   118   129   130    1
   119    95    97   ar
   120   130   132    1
   121   130   131    1
   122   139   140    1
   123    75    76    1
   124   100   101    1
   125   100    99   ar
   126    97    99   ar
   127    77    76    1
   128    77    78    2
   129    76    79    1
   130   140   141    1
   131    81    80    1
   132    81    82    1
   133    79    80    1
