@<TRIPOS>MOLECULE
tmp/3iiuA05.pdb
 151 144 0 0 0
SMALL
GASTEIGER

@<TRIPOS>ATOM
      1  N         -2.4960   -7.4120    0.2120 N.3    29  PHE29      -0.1227
      2  CA        -1.1930   -7.0870    0.8010 C.3    29  PHE29       0.1736
      3  C         -0.8520   -5.5990    0.6270 C.2    29  PHE29       0.2595
      4  O          0.0930   -5.1200    1.2870 O.2    29  PHE29      -0.2718
      5  CB        -0.0920   -7.9750    0.2250 C.3    29  PHE29       0.0547
      6  CG        -0.3810   -9.4230    0.3570 C.ar   29  PHE29      -0.0202
      7  CD1       -0.5930  -10.0010    1.6390 C.ar   29  PHE29      -0.0042
      8  CD2       -0.4790  -10.2200   -0.7850 C.ar   29  PHE29      -0.0042
      9  CE1       -0.8610  -11.3630    1.7580 C.ar   29  PHE29      -0.0003
     10  CE2       -0.7680  -11.5670   -0.6430 C.ar   29  PHE29      -0.0003
     11  CZ        -0.9680  -12.1250    0.6190 C.ar   29  PHE29      -0.0000
     12  N         -1.6150   -4.8810   -0.2090 N.am   30  LEU30      -0.1966
     13  CA        -1.4300   -3.4380   -0.3310 C.3    30  LEU30       0.1728
     14  C         -2.1490   -2.6970    0.8080 C.2    30  LEU30       0.2616
     15  O         -1.7400   -1.5740    1.1410 O.2    30  LEU30      -0.2715
     16  CB        -1.8990   -2.9440   -1.7090 C.3    30  LEU30       0.0311
     17  CG        -1.4970   -1.4960   -2.0370 C.3    30  LEU30       0.0022
     18  CD1        0.0030   -1.2130   -1.8710 C.3    30  LEU30       0.0001
     19  CD2       -1.9230   -1.1500   -3.4460 C.3    30  LEU30       0.0001
     20  N         -3.1400   -3.3340    1.4420 N.am   31  GLN31      -0.1977
     21  CA        -3.8760   -2.7060    2.5290 C.3    31  GLN31       0.1601
     22  C         -3.0730   -2.6790    3.8140 C.2    31  GLN31       0.2287
     23  O         -2.2790   -3.5550    4.0590 O.2    31  GLN31      -0.2864
     24  CB        -5.1500   -3.4710    2.8060 C.3    31  GLN31       0.0394
     25  CG        -6.0530   -3.4550    1.6080 C.3    31  GLN31       0.0908
     26  CD        -7.1960   -4.3910    1.7900 C.2    31  GLN31       0.2608
     27  OE1       -7.6950   -4.6010    2.9190 O.2    31  GLN31      -0.2717
     28  NE2       -7.6450   -4.9670    0.6890 N.am   31  GLN31      -0.0878
     29  N         -2.4260   -3.5340    7.5960 N.3    33  PRO33      -0.2116
     30  CA        -2.7830   -4.8050    8.3050 C.3    33  PRO33       0.1372
     31  C         -3.7490   -4.5330    9.4660 C.2    33  PRO33       0.2244
     32  O         -3.4500   -4.8210   10.6200 O.2    33  PRO33      -0.2868
     33  CB        -1.4280   -5.3140    8.7600 C.3    33  PRO33       0.0268
     34  CG        -0.6520   -4.0320    9.0760 C.3    33  PRO33       0.0207
     35  CD        -1.0750   -3.0670    7.9740 C.3    33  PRO33       0.0892
     36  N          7.9110    2.7990    9.7980 N.3    45  ILE45      -0.1245
     37  CA         8.7510    3.0370    8.6030 C.3    45  ILE45       0.1561
     38  C         10.0560    3.7250    9.0420 C.2    45  ILE45       0.2260
     39  O         11.1270    3.3710    8.5380 O.2    45  ILE45      -0.2867
     40  CB         7.9900    3.8670    7.5590 C.3    45  ILE45       0.0252
     41  CG1        6.8130    3.0960    6.9360 C.3    45  ILE45       0.0019
     42  CG2        8.9290    4.3260    6.4700 C.3    45  ILE45       0.0019
     43  CD1        7.0500    1.7410    6.3810 C.3    45  ILE45       0.0001
     44  N         12.3890    1.1270   10.2180 N.3    48  MET48      -0.1245
     45  CA        12.9240    0.4380    9.0340 C.3    48  MET48       0.1570
     46  C         13.9940    1.2450    8.3370 C.2    48  MET48       0.2261
     47  O         15.0450    0.6720    7.9200 O.2    48  MET48      -0.2867
     48  CB        11.8100    0.0640    8.0500 C.3    48  MET48       0.0387
     49  CG        10.8510   -0.9420    8.6860 C.3    48  MET48       0.0595
     50  SD         9.4920   -1.1380    7.4910 S.3    48  MET48      -0.1393
     51  CE         8.0780   -1.6090    8.5060 C.3    48  MET48       0.0692
     52  N         10.1080   -4.8380   14.4720 N.3   109  TYR109     -0.1241
     53  CA         9.0860   -5.8050   14.8330 C.3   109  TYR109      0.1605
     54  C          8.0300   -5.2190   15.7890 C.2   109  TYR109      0.2264
     55  O          6.8410   -5.3540   15.5440 O.2   109  TYR109     -0.2867
     56  CB         9.7980   -7.0110   15.4070 C.3   109  TYR109      0.0534
     57  CG         8.9360   -8.0960   15.9480 C.ar  109  TYR109     -0.0201
     58  CD1        8.2570   -8.9700   15.0900 C.ar  109  TYR109     -0.0009
     59  CD2        8.8270   -8.2720   17.3390 C.ar  109  TYR109     -0.0009
     60  CE1        7.4780  -10.0110   15.6130 C.ar  109  TYR109      0.0417
     61  CE2        8.0710   -9.3050   17.8830 C.ar  109  TYR109      0.0417
     62  CZ         7.3920  -10.1450   17.0070 C.ar  109  TYR109      0.1957
     63  OH         6.6590  -11.1550   17.5440 O.3   109  TYR109     -0.2866
     64  N          5.8770   -2.4780   13.9770 N.3   112  VAL112     -0.1231
     65  CA         4.8850   -3.0590   13.0590 C.3   112  VAL112      0.1692
     66  C          3.7960   -3.7870   13.8530 C.2   112  VAL112      0.2592
     67  O          2.5990   -3.6980   13.5110 O.2   112  VAL112     -0.2718
     68  CB         5.5330   -3.9990   12.0380 C.3   112  VAL112      0.0266
     69  CG1        4.4750   -4.6410   11.1440 C.3   112  VAL112      0.0020
     70  CG2        6.5190   -3.2320   11.1610 C.3   112  VAL112      0.0020
     71  N          4.1840   -4.4740   14.9350 N.am  113  SER113     -0.1952
     72  CA         3.1540   -5.1280   15.7360 C.3   113  SER113      0.1924
     73  C          2.0860   -4.1050   16.2010 C.2   113  SER113      0.2314
     74  O          0.8840   -4.4230   16.2080 O.2   113  SER113     -0.2863
     75  CB         3.8080   -5.8040   16.9270 C.3   113  SER113      0.2116
     76  OG         2.7540   -6.3680   17.7160 O.3   113  SER113     -0.2180
     77  N          0.7800   -1.6330   14.7870 N.3   115  ILE115     -0.1231
     78  CA        -0.2050   -1.2680   13.7930 C.3   115  ILE115      0.1692
     79  C         -0.9090   -2.4830   13.1900 C.2   115  ILE115      0.2592
     80  O         -1.7960   -2.3200   12.3520 O.2   115  ILE115     -0.2718
     81  CB         0.3450   -0.4080   12.6220 C.3   115  ILE115      0.0266
     82  CG1        1.4070   -1.1680   11.8030 C.3   115  ILE115      0.0019
     83  CG2        0.8660    0.9350   13.1800 C.3   115  ILE115      0.0020
     84  CD1        1.7510   -0.4050   10.5340 C.3   115  ILE115      0.0001
     85  N         -0.5690   -3.6870   13.6410 N.am  116  THR116     -0.1953
     86  CA        -1.1340   -4.9220   13.0680 C.3   116  THR116      0.1897
     87  C         -2.3050   -5.4030   13.9480 C.2   116  THR116      0.2313
     88  O         -2.1480   -5.7070   15.1540 O.2   116  THR116     -0.2863
     89  CB        -0.0630   -5.9960   12.9580 C.3   116  THR116      0.1794
     90  OG1        0.9700   -5.5300   12.0820 O.3   116  THR116     -0.2208
     91  CG2       -0.6380   -7.3030   12.3840 C.3   116  THR116      0.0378
     92  N         -5.1050  -10.3820   12.0580 N.3   120  VAL120     -0.1231
     93  CA        -4.4430  -10.5270   10.7740 C.3   120  VAL120      0.1678
     94  C         -3.6660  -11.8470   10.6400 C.2   120  VAL120      0.2434
     95  O         -3.8400  -12.5260    9.6280 O.2   120  VAL120     -0.2733
     96  CB        -3.5900   -9.2770   10.4240 C.3   120  VAL120      0.0265
     97  CG1       -2.5690   -9.5920    9.3040 C.3   120  VAL120      0.0020
     98  CG2       -4.4890   -8.1080   10.0160 C.3   120  VAL120      0.0020
     99  N         -2.8640  -12.2450   11.6670 N.am  121  PRO121     -0.2729
    100  CA        -2.1410  -13.4930   11.4660 C.3   121  PRO121      0.1401
    101  C         -3.1000  -14.6630   11.2390 C.2   121  PRO121      0.2269
    102  O         -2.9240  -15.4430   10.3040 O.2   121  PRO121     -0.2865
    103  CB        -1.3280  -13.6390   12.7650 C.3   121  PRO121      0.0296
    104  CG        -1.0470  -12.1890   13.1650 C.3   121  PRO121      0.0237
    105  CD        -2.3880  -11.5450   12.8910 C.3   121  PRO121      0.0939
    106  N         -4.5680  -14.6210    7.6890 N.3   124  MET124     -0.1245
    107  CA        -3.5830  -15.1050    6.7190 C.3   124  MET124      0.1570
    108  C         -3.4270  -16.6180    6.7750 C.2   124  MET124      0.2261
    109  O         -3.4280  -17.2940    5.7370 O.2   124  MET124     -0.2867
    110  CB        -2.2360  -14.4170    6.9590 C.3   124  MET124      0.0387
    111  CG        -2.1950  -12.9680    6.4710 C.3   124  MET124      0.0595
    112  SD        -2.2110  -12.8380    4.6950 S.3   124  MET124     -0.1393
    113  CE        -3.8510  -12.2480    4.5120 C.3   124  MET124      0.0692
    114  N          2.5800  -23.6970   10.2920 N.3   134  GLU134     -0.1245
    115  CA         3.2810  -23.9400   11.5570 C.3   134  GLU134      0.1567
    116  C          4.6970  -24.4930   11.3570 C.2   134  GLU134      0.2260
    117  O          5.6110  -24.1150   12.0950 O.2   134  GLU134     -0.2867
    118  CB         2.4350  -24.8100   12.5120 C.3   134  GLU134      0.0388
    119  CG         0.9410  -24.5400   12.3170 C.3   134  GLU134      0.1160
    120  CD         0.1470  -24.2640   13.5800 C.2   134  GLU134      0.3649
    121  OE1        0.5880  -23.4500   14.4090 O.co2 134  GLU134     -0.2457
    122  OE2       -0.9730  -24.8200   13.7010 O.co2 134  GLU134     -0.2457
    123  N          6.8750  -21.6760   10.3730 N.3   137  TYR137     -0.1227
    124  CA         7.2300  -20.8680   11.5180 C.3   137  TYR137      0.1736
    125  C          8.2690  -21.5800   12.3950 C.2   137  TYR137      0.2595
    126  O          9.1970  -20.9550   12.8950 O.2   137  TYR137     -0.2718
    127  CB         5.9740  -20.4490   12.3120 C.3   137  TYR137      0.0548
    128  CG         6.2870  -19.6320   13.5150 C.ar  137  TYR137     -0.0200
    129  CD1        6.7320  -18.3090   13.3930 C.ar  137  TYR137     -0.0009
    130  CD2        6.1560  -20.1730   14.8180 C.ar  137  TYR137     -0.0009
    131  CE1        7.0350  -17.5340   14.5440 C.ar  137  TYR137      0.0417
    132  CE2        6.4590  -19.3860   15.9440 C.ar  137  TYR137      0.0417
    133  CZ         6.8830  -18.0860   15.7960 C.ar  137  TYR137      0.1957
    134  OH         7.1920  -17.3620   16.9460 O.3   137  TYR137     -0.2866
    135  N          8.0830  -22.8830   12.6140 N.am  138  GLU138     -0.1979
    136  CA         9.0760  -23.6580   13.3460 C.3   138  GLU138      0.1602
    137  C         10.4310  -23.5800   12.6520 C.2   138  GLU138      0.2287
    138  O         11.4530  -23.4070   13.3000 O.2   138  GLU138     -0.2864
    139  CB         8.5550  -25.0930   13.5060 C.3   138  GLU138      0.0415
    140  CG         7.3310  -25.0510   14.4090 C.3   138  GLU138      0.1163
    141  CD         6.5560  -26.3380   14.4860 C.2   138  GLU138      0.3649
    142  OE1        6.9440  -27.2950   13.8020 O.co2 138  GLU138     -0.2457
    143  OE2        5.5420  -26.3970   15.2200 O.co2 138  GLU138     -0.2457
    144  N         12.0070  -20.1920   13.4110 N.3   141  LEU141     -0.1245
    145  CA        12.6330  -20.1600   14.7370 C.3   141  LEU141      0.1561
    146  C         14.0410  -20.7810   14.7390 C.2   141  LEU141      0.2260
    147  O         14.9440  -20.2490   15.3710 O.2   141  LEU141     -0.2867
    148  CB        11.7560  -20.8230   15.8160 C.3   141  LEU141      0.0270
    149  CG        10.4130  -20.1260   16.0420 C.3   141  LEU141      0.0019
    150  CD1        9.6300  -20.9720   17.0200 C.3   141  LEU141      0.0001
    151  CD2       10.5470  -18.7270   16.5870 C.3   141  LEU141      0.0001
@<TRIPOS>BOND
     1    19    17    1
     2    17    18    1
     3    17    16    1
     4    16    13    1
     5     8    10   ar
     6     8     6   ar
     7    10    11   ar
     8    13    12    1
     9    13    14    1
    10    12     3   am
    11     1     2    1
    12     5     6    1
    13     5     2    1
    14     6     7   ar
    15    11     9   ar
    16     3     2    1
    17     3     4    2
    18    28    26   am
    19    14    15    2
    20    14    20   am
    21    20    21    1
    22    25    26    1
    23    25    24    1
    24     7     9   ar
    25    26    27    2
    26    21    24    1
    27    21    22    1
    28    22    23    2
    29   113   112    1
    30   112   111    1
    31   109   108    2
    32    43    41    1
    33    42    40    1
    34   111   110    1
    35   107   108    1
    36   107   110    1
    37   107   106    1
    38    41    40    1
    39    50    51    1
    40    50    49    1
    41    40    37    1
    42    29    35    1
    43    29    30    1
    44    47    46    2
    45    35    34    1
    46    48    49    1
    47    48    45    1
    48    30    33    1
    49    30    31    1
    50    46    45    1
    51    39    38    2
    52    37    38    1
    53    37    36    1
    54    33    34    1
    55    45    44    1
    56    97    96    1
    57    31    32    2
    58    95    94    2
    59    98    96    1
    60   114   115    1
    61   102   101    2
    62   123   124    1
    63    96    93    1
    64    84    82    1
    65    94    93    1
    66    94    99   am
    67    93    92    1
    68    69    68    1
    69    70    68    1
    70   101   100    1
    71   116   115    1
    72   116   117    2
    73   100    99    1
    74   100   103    1
    75   124   127    1
    76   124   125    1
    77   115   118    1
    78    99   105    1
    79    82    81    1
    80    68    65    1
    81    90    89    1
    82   127   128    1
    83   119   118    1
    84   119   120    1
    85    80    79    2
    86    91    89    1
    87   125   135   am
    88   125   126    2
    89   135   136    1
    90    81    83    1
    91    81    78    1
    92   137   138    2
    93   137   136    1
    94   103   104    1
    95   105   104    1
    96    89    86    1
    97    65    66    1
    98    65    64    1
    99    86    85    1
   100    86    87    1
   101    79    85   am
   102    79    78    1
   103   136   139    1
   104   129   128   ar
   105   129   131   ar
   106   144   145    1
   107   139   140    1
   108    67    66    2
   109   128   130   ar
   110   120   122   ar
   111   120   121   ar
   112    78    77    1
   113   142   141   ar
   114    66    71   am
   115    87    88    2
   116   140   141    1
   117    52    53    1
   118   141   143   ar
   119   131   133   ar
   120   145   146    1
   121   145   148    1
   122   146   147    2
   123   130   132   ar
   124    53    56    1
   125    53    54    1
   126    71    72    1
   127    58    60   ar
   128    58    57   ar
   129    56    57    1
   130    55    54    2
   131    60    62   ar
   132    72    73    1
   133    72    75    1
   134   133   132   ar
   135   133   134    1
   136   148   149    1
   137    57    59   ar
   138   149   151    1
   139   149   150    1
   140    73    74    2
   141    75    76    1
   142    62    63    1
   143    62    61   ar
   144    59    61   ar
