@<TRIPOS>MOLECULE
tmp/3iiuA01.pdb
 133 130 0 0 0
SMALL
GASTEIGER

@<TRIPOS>ATOM
      1  N          4.3810  -23.9320    2.3580 N.3    18  PHE18      -0.1241
      2  CA         3.5860  -22.7840    2.7580 C.3    18  PHE18       0.1605
      3  C          3.6940  -21.6740    1.6910 C.2    18  PHE18       0.2264
      4  O          2.6680  -21.0810    1.2970 O.2    18  PHE18      -0.2867
      5  CB         4.1000  -22.2990    4.1120 C.3    18  PHE18       0.0534
      6  CG         3.7250  -20.8720    4.4420 C.ar   18  PHE18      -0.0203
      7  CD1        2.4750  -20.5730    4.9910 C.ar   18  PHE18      -0.0042
      8  CD2        4.6550  -19.8510    4.2430 C.ar   18  PHE18      -0.0042
      9  CE1        2.1350  -19.2460    5.3410 C.ar   18  PHE18      -0.0003
     10  CE2        4.3100  -18.4950    4.5790 C.ar   18  PHE18      -0.0003
     11  CZ         3.0670  -18.2200    5.1290 C.ar   18  PHE18      -0.0000
     12  N          0.4710  -19.5470   -0.4870 N.3    22  VAL22      -0.1245
     13  CA         0.0770  -18.1450   -0.4000 C.3    22  VAL22       0.1561
     14  C         -0.2900  -17.6470   -1.7900 C.2    22  VAL22       0.2260
     15  O          0.4130  -17.9640   -2.7530 O.2    22  VAL22      -0.2867
     16  CB         1.2370  -17.3180    0.2270 C.3    22  VAL22       0.0252
     17  CG1        0.9640  -15.7790    0.1230 C.3    22  VAL22       0.0019
     18  CG2        1.4750  -17.7340    1.6480 C.3    22  VAL22       0.0019
     19  N          0.1710  -14.8910   -3.8120 N.3    24  TRP24      -0.1227
     20  CA         0.9900  -13.6640   -3.8310 C.3    24  TRP24       0.1737
     21  C          0.3910  -12.5620   -4.6890 C.2    24  TRP24       0.2595
     22  O          0.8080  -11.4030   -4.5970 O.2    24  TRP24      -0.2718
     23  CB         2.4190  -14.0010   -4.2800 C.3    24  TRP24       0.0564
     24  CG         3.0430  -14.9750   -3.3530 C.ar   24  TRP24       0.0003
     25  CD1        3.1000  -16.3470   -3.5110 C.ar   24  TRP24       0.0946
     26  CD2        3.6740  -14.7010   -2.0930 C.ar   24  TRP24       0.0152
     27  NE1        3.7330  -16.9420   -2.4340 N.ar   24  TRP24      -0.2442
     28  CE2        4.1130  -15.9590   -1.5440 C.ar   24  TRP24       0.0810
     29  CE3        3.9300  -13.5170   -1.3720 C.ar   24  TRP24       0.0012
     30  CZ2        4.7500  -16.0620   -0.2980 C.ar   24  TRP24       0.0191
     31  CZ3        4.5960  -13.6130   -0.1570 C.ar   24  TRP24       0.0001
     32  CH2        4.9920  -14.8680    0.3880 C.ar   24  TRP24       0.0015
     33  N         -0.5910  -12.9030   -5.5270 N.am   25  ASN25      -0.1960
     34  CA        -1.2900  -11.9260   -6.3760 C.3    25  ASN25       0.1819
     35  C         -2.5680  -11.3740   -5.7540 C.2    25  ASN25       0.2621
     36  O         -3.2780  -10.5520   -6.3700 O.2    25  ASN25      -0.2715
     37  CB        -1.6150  -12.5290   -7.7540 C.3    25  ASN25       0.1195
     38  CG        -0.3700  -12.8570   -8.5460 C.2    25  ASN25       0.2630
     39  OD1        0.5120  -12.0220   -8.6570 O.2    25  ASN25      -0.2716
     40  ND2       -0.2740  -14.0720   -9.0480 N.am   25  ASN25      -0.0877
     41  N         -2.8790  -11.7830   -4.5290 N.am   26  ASN26      -0.1958
     42  CA        -3.9930  -11.1920   -3.7690 C.3    26  ASN26       0.1819
     43  C         -3.7120   -9.7010   -3.5470 C.2    26  ASN26       0.2621
     44  O         -2.6330   -9.3260   -3.0670 O.2    26  ASN26      -0.2715
     45  CB        -4.1220  -11.9380   -2.4180 C.3    26  ASN26       0.1195
     46  CG        -5.3570  -11.5770   -1.6280 C.2    26  ASN26       0.2630
     47  OD1       -5.9270  -10.5180   -1.7830 O.2    26  ASN26      -0.2716
     48  ND2       -5.8110  -12.5190   -0.7860 N.am   26  ASN26      -0.0877
     49  N         -4.6900   -8.8400   -3.8150 N.am   27  GLY27      -0.1954
     50  CA        -4.4580   -7.4010   -3.6150 C.3    27  GLY27       0.1869
     51  C         -4.4610   -6.9680   -2.1590 C.2    27  GLY27       0.2309
     52  O         -4.1200   -5.8130   -1.8540 O.2    27  GLY27      -0.2863
     53  N         -2.4960   -7.4120    0.2120 N.3    29  PHE29      -0.1227
     54  CA        -1.1930   -7.0870    0.8010 C.3    29  PHE29       0.1736
     55  C         -0.8520   -5.5990    0.6270 C.2    29  PHE29       0.2595
     56  O          0.0930   -5.1200    1.2870 O.2    29  PHE29      -0.2718
     57  CB        -0.0920   -7.9750    0.2250 C.3    29  PHE29       0.0547
     58  CG        -0.3810   -9.4230    0.3570 C.ar   29  PHE29      -0.0202
     59  CD1       -0.5930  -10.0010    1.6390 C.ar   29  PHE29      -0.0042
     60  CD2       -0.4790  -10.2200   -0.7850 C.ar   29  PHE29      -0.0042
     61  CE1       -0.8610  -11.3630    1.7580 C.ar   29  PHE29      -0.0003
     62  CE2       -0.7680  -11.5670   -0.6430 C.ar   29  PHE29      -0.0003
     63  CZ        -0.9680  -12.1250    0.6190 C.ar   29  PHE29      -0.0000
     64  N         -1.6150   -4.8810   -0.2090 N.am   30  LEU30      -0.1980
     65  CA        -1.4300   -3.4380   -0.3310 C.3    30  LEU30       0.1596
     66  C         -2.1490   -2.6970    0.8080 C.2    30  LEU30       0.2287
     67  O         -1.7400   -1.5740    1.1410 O.2    30  LEU30      -0.2864
     68  CB        -1.8990   -2.9440   -1.7090 C.3    30  LEU30       0.0297
     69  CG        -1.4970   -1.4960   -2.0370 C.3    30  LEU30       0.0022
     70  CD1        0.0030   -1.2130   -1.8710 C.3    30  LEU30       0.0001
     71  CD2       -1.9230   -1.1500   -3.4460 C.3    30  LEU30       0.0001
     72  N         -2.8640  -12.2450   11.6670 N.3   121  PRO121     -0.2102
     73  CA        -2.1410  -13.4930   11.4660 C.3   121  PRO121      0.1504
     74  C         -3.1000  -14.6630   11.2390 C.2   121  PRO121      0.2575
     75  O         -2.9240  -15.4430   10.3040 O.2   121  PRO121     -0.2718
     76  CB        -1.3280  -13.6390   12.7650 C.3   121  PRO121      0.0282
     77  CG        -1.0470  -12.1890   13.1650 C.3   121  PRO121      0.0208
     78  CD        -2.3880  -11.5450   12.8910 C.3   121  PRO121      0.0893
     79  N         -4.1670  -14.7500   12.0390 N.am  122  ALA122     -0.1980
     80  CA        -5.0670  -15.8910   11.8850 C.3   122  ALA122      0.1597
     81  C         -5.8020  -15.8490   10.5550 C.2   122  ALA122      0.2287
     82  O         -6.0650  -16.9050    9.9500 O.2   122  ALA122     -0.2864
     83  CB        -6.0890  -15.9620   13.0580 C.3   122  ALA122      0.0319
     84  N         -4.5680  -14.6210    7.6890 N.3   124  MET124     -0.1230
     85  CA        -3.5830  -15.1050    6.7190 C.3   124  MET124      0.1702
     86  C         -3.4270  -16.6180    6.7750 C.2   124  MET124      0.2592
     87  O         -3.4280  -17.2940    5.7370 O.2   124  MET124     -0.2718
     88  CB        -2.2360  -14.4170    6.9590 C.3   124  MET124      0.0401
     89  CG        -2.1950  -12.9680    6.4710 C.3   124  MET124      0.0596
     90  SD        -2.2110  -12.8380    4.6950 S.3   124  MET124     -0.1393
     91  CE        -3.8510  -12.2480    4.5120 C.3   124  MET124      0.0692
     92  N         -3.3280  -17.1740    7.9850 N.am  125  LYS125     -0.1980
     93  CA        -3.1400  -18.6210    8.1320 C.3   125  LYS125      0.1596
     94  C         -4.3470  -19.3730    7.5930 C.2   125  LYS125      0.2287
     95  O         -4.1790  -20.4840    7.0530 O.2   125  LYS125     -0.2864
     96  CB        -2.9120  -18.9640    9.6160 C.3   125  LYS125      0.0298
     97  CG        -2.5200  -20.4230    9.8500 C.3   125  LYS125      0.0038
     98  CD        -2.3760  -20.6940   11.3460 C.3   125  LYS125      0.0206
     99  CE        -2.1560  -22.1820   11.5830 C.3   125  LYS125      0.1093
    100  NZ        -2.0190  -22.4060   13.0230 N.3   125  LYS125     -0.1314
    101  N         -4.1970  -20.7390    3.9820 N.3   128  VAL128     -0.1245
    102  CA        -3.1890  -21.7090    3.6060 C.3   128  VAL128      0.1561
    103  C         -3.3860  -22.9770    4.4560 C.2   128  VAL128      0.2260
    104  O         -4.3210  -23.0600    5.2710 O.2   128  VAL128     -0.2867
    105  CB        -1.7340  -21.1440    3.7620 C.3   128  VAL128      0.0252
    106  CG1       -1.5260  -19.8990    2.8630 C.3   128  VAL128      0.0019
    107  CG2       -1.3730  -20.8690    5.2570 C.3   128  VAL128      0.0019
    108  N          1.8910  -23.8100    7.5400 N.3   133  ALA133     -0.1231
    109  CA         2.2870  -22.5280    8.1480 C.3   133  ALA133      0.1694
    110  C          3.0450  -22.7590    9.4570 C.2   133  ALA133      0.2591
    111  O          4.0380  -22.1010    9.7310 O.2   133  ALA133     -0.2718
    112  CB         1.0680  -21.6150    8.3720 C.3   133  ALA133      0.0304
    113  N          2.5800  -23.6970   10.2920 N.am  134  GLU134     -0.1979
    114  CA         3.2810  -23.9400   11.5570 C.3   134  GLU134      0.1602
    115  C          4.6970  -24.4930   11.3570 C.2   134  GLU134      0.2287
    116  O          5.6110  -24.1150   12.0950 O.2   134  GLU134     -0.2864
    117  CB         2.4350  -24.8100   12.5120 C.3   134  GLU134      0.0415
    118  CG         0.9410  -24.5400   12.3170 C.3   134  GLU134      0.1163
    119  CD         0.1470  -24.2640   13.5800 C.2   134  GLU134      0.3649
    120  OE1        0.5880  -23.4500   14.4090 O.co2 134  GLU134     -0.2457
    121  OE2       -0.9730  -24.8200   13.7010 O.co2 134  GLU134     -0.2457
    122  N          6.8750  -21.6760   10.3730 N.3   137  TYR137     -0.1241
    123  CA         7.2300  -20.8680   11.5180 C.3   137  TYR137      0.1605
    124  C          8.2690  -21.5800   12.3950 C.2   137  TYR137      0.2264
    125  O          9.1970  -20.9550   12.8950 O.2   137  TYR137     -0.2867
    126  CB         5.9740  -20.4490   12.3120 C.3   137  TYR137      0.0534
    127  CG         6.2870  -19.6320   13.5150 C.ar  137  TYR137     -0.0201
    128  CD1        6.7320  -18.3090   13.3930 C.ar  137  TYR137     -0.0009
    129  CD2        6.1560  -20.1730   14.8180 C.ar  137  TYR137     -0.0009
    130  CE1        7.0350  -17.5340   14.5440 C.ar  137  TYR137      0.0417
    131  CE2        6.4590  -19.3860   15.9440 C.ar  137  TYR137      0.0417
    132  CZ         6.8830  -18.0860   15.7960 C.ar  137  TYR137      0.1957
    133  OH         7.1920  -17.3620   16.9460 O.3   137  TYR137     -0.2866
@<TRIPOS>BOND
     1    40    38   am
     2    39    38    2
     3    38    37    1
     4    37    34    1
     5    34    35    1
     6    34    33    1
     7    36    35    2
     8    35    41   am
     9    33    21   am
    10    21    22    2
    11    21    20    1
    12    41    42    1
    13    23    20    1
    14    23    24    1
    15    20    19    1
    16    49    50    1
    17    49    43   am
    18    42    43    1
    19    42    45    1
    20    50    51    1
    21    43    44    2
    22    25    24   ar
    23    25    27   ar
    24    71    69    1
    25    24    26   ar
    26    15    14    2
    27    27    28   ar
    28    45    46    1
    29    51    52    2
    30    26    28   ar
    31    26    29   ar
    32    69    70    1
    33    69    68    1
    34    14    13    1
    35    47    46    2
    36    68    65    1
    37    46    48   am
    38    28    30   ar
    39    29    31   ar
    40    60    62   ar
    41    60    58   ar
    42    62    63   ar
    43    12    13    1
    44    13    16    1
    45    65    64    1
    46    65    66    1
    47    30    32   ar
    48    64    55   am
    49    31    32   ar
    50    17    16    1
    51    53    54    1
    52    57    58    1
    53    57    54    1
    54    16    18    1
    55    58    59   ar
    56    63    61   ar
    57    55    54    1
    58    55    56    2
    59    66    67    2
    60     4     3    2
    61    59    61   ar
    62     3     2    1
    63     1     2    1
    64     2     5    1
    65   106   105    1
    66   102   105    1
    67   102   101    1
    68   102   103    1
    69   105   107    1
    70     5     6    1
    71     8     6   ar
    72     8    10   ar
    73     6     7   ar
    74   103   104    2
    75    91    90    1
    76    10    11   ar
    77    90    89    1
    78     7     9   ar
    79    11     9   ar
    80    87    86    2
    81    89    88    1
    82    85    86    1
    83    85    88    1
    84    85    84    1
    85    86    92   am
    86    95    94    2
    87   108   109    1
    88    94    93    1
    89    92    93    1
    90    93    96    1
    91   109   112    1
    92   109   110    1
    93   110   111    2
    94   110   113   am
    95    96    97    1
    96    97    98    1
    97    82    81    2
    98   113   114    1
    99    75    74    2
   100   122   123    1
   101    81    80    1
   102    74    73    1
   103    74    79   am
   104    98    99    1
   105   115   114    1
   106   115   116    2
   107    73    72    1
   108    73    76    1
   109   123   126    1
   110   123   124    1
   111   114   117    1
   112    99   100    1
   113    72    78    1
   114    80    79    1
   115    80    83    1
   116   126   127    1
   117   118   117    1
   118   118   119    1
   119   124   125    2
   120    76    77    1
   121    78    77    1
   122   128   127   ar
   123   128   130   ar
   124   127   129   ar
   125   119   121   ar
   126   119   120   ar
   127   130   132   ar
   128   129   131   ar
   129   132   131   ar
   130   132   133    1
