@<TRIPOS>MOLECULE
tmp/3iiwA00.pdb
 144 139 0 0 0
SMALL
GASTEIGER

@<TRIPOS>ATOM
      1  N         -9.4310  -20.5740   26.0310 N.3    17  PHE17      -0.1241
      2  CA        -9.7500  -21.6290   25.0810 C.3    17  PHE17       0.1605
      3  C         -8.6710  -21.6900   24.0130 C.2    17  PHE17       0.2264
      4  O         -8.5940  -22.6650   23.2640 O.2    17  PHE17      -0.2867
      5  CB       -11.0850  -21.3330   24.4040 C.3    17  PHE17       0.0534
      6  CG       -12.2690  -21.6440   25.2780 C.ar   17  PHE17      -0.0203
      7  CD1      -12.4330  -22.9270   25.8010 C.ar   17  PHE17      -0.0042
      8  CD2      -13.1810  -20.6500   25.6310 C.ar   17  PHE17      -0.0042
      9  CE1      -13.5210  -23.2400   26.6410 C.ar   17  PHE17      -0.0003
     10  CE2      -14.3090  -20.9680   26.3860 C.ar   17  PHE17      -0.0003
     11  CZ       -14.4530  -22.2520   26.9380 C.ar   17  PHE17      -0.0000
     12  N        -17.8260  -14.5010   23.5870 N.3    66  ASN66      -0.1240
     13  CA       -16.8090  -15.3480   24.1840 C.3    66  ASN66       0.1653
     14  C        -15.8930  -15.7860   23.0560 C.2    66  ASN66       0.2266
     15  O        -16.3210  -16.4870   22.1470 O.2    66  ASN66      -0.2867
     16  CB       -17.4560  -16.5840   24.8330 C.3    66  ASN66       0.1155
     17  CG       -16.5080  -17.3500   25.7530 C.2    66  ASN66       0.2627
     18  OD1      -15.2670  -17.1300   25.7970 O.2    66  ASN66      -0.2716
     19  ND2      -17.0760  -18.3560   26.4070 N.am   66  ASN66      -0.0877
     20  N        -13.1370  -17.9350   21.2170 N.3    68  TYR68      -0.1241
     21  CA       -12.7280  -19.3380   21.3470 C.3    68  TYR68       0.1605
     22  C        -11.3360  -19.6020   20.7450 C.2    68  TYR68       0.2264
     23  O        -10.6890  -20.6030   21.1020 O.2    68  TYR68      -0.2867
     24  CB       -13.7440  -20.2050   20.5930 C.3    68  TYR68       0.0534
     25  CG       -15.1550  -20.2310   21.1730 C.ar   68  TYR68      -0.0201
     26  CD1      -15.4100  -19.8650   22.4890 C.ar   68  TYR68      -0.0009
     27  CD2      -16.1980  -20.7840   20.4330 C.ar   68  TYR68      -0.0009
     28  CE1      -16.7130  -19.9670   23.0300 C.ar   68  TYR68       0.0417
     29  CE2      -17.4740  -20.8900   20.9670 C.ar   68  TYR68       0.0417
     30  CZ       -17.7260  -20.4450   22.2320 C.ar   68  TYR68       0.1957
     31  OH       -19.0080  -20.5950   22.7400 O.3    68  TYR68      -0.2866
     32  N        -15.6870  -22.1510   15.8250 N.3   114  ASN114     -0.1240
     33  CA       -14.8980  -23.0240   16.6940 C.3   114  ASN114      0.1653
     34  C        -13.3990  -23.0700   16.3930 C.2   114  ASN114      0.2266
     35  O        -12.6040  -23.4150   17.2840 O.2   114  ASN114     -0.2867
     36  CB       -15.4600  -24.4450   16.6470 C.3   114  ASN114      0.1155
     37  CG       -16.8260  -24.5220   17.3190 C.2   114  ASN114      0.2627
     38  OD1      -17.0260  -23.9810   18.4210 O.2   114  ASN114     -0.2716
     39  ND2      -17.7610  -25.2370   16.6830 N.am  114  ASN114     -0.0877
     40  N        -21.9960  -29.5700   14.5260 N.3   158  GLU158     -0.1245
     41  CA       -20.9250  -28.5590   14.6320 C.3   158  GLU158      0.1567
     42  C        -19.6230  -29.0540   14.0110 C.2   158  GLU158      0.2260
     43  O        -19.1890  -30.1790   14.2750 O.2   158  GLU158     -0.2867
     44  CB       -20.6200  -28.2270   16.0940 C.3   158  GLU158      0.0388
     45  CG       -21.8130  -27.8100   16.9410 C.3   158  GLU158      0.1160
     46  CD       -21.3840  -26.9810   18.1460 C.2   158  GLU158      0.3649
     47  OE1      -20.3190  -26.3120   18.1040 O.co2 158  GLU158     -0.2457
     48  OE2      -22.1890  -26.8900   19.0950 O.co2 158  GLU158     -0.2457
     49  N        -16.7790  -40.6370   18.9260 N.3   227  ASN227     -0.1225
     50  CA       -17.3850  -39.5110   19.6250 C.3   227  ASN227      0.1785
     51  C        -16.9490  -38.2370   18.9010 C.2   227  ASN227      0.2597
     52  O        -16.2910  -38.3280   17.8650 O.2   227  ASN227     -0.2718
     53  CB       -16.9290  -39.4850   21.0860 C.3   227  ASN227      0.1169
     54  CG       -17.9750  -38.8990   22.0280 C.2   227  ASN227      0.2627
     55  OD1      -18.6540  -37.9110   21.7040 O.2   227  ASN227     -0.2716
     56  ND2      -18.0830  -39.4880   23.2300 N.am  227  ASN227     -0.0877
     57  N        -17.2210  -37.0800   19.4980 N.am  228  TYR228     -0.1976
     58  CA       -16.9930  -35.8150   18.8020 C.3   228  TYR228      0.1639
     59  C        -15.5080  -35.7670   18.4250 C.2   228  TYR228      0.2290
     60  O        -14.6540  -36.0330   19.2750 O.2   228  TYR228     -0.2864
     61  CB       -17.2030  -34.6770   19.7870 C.3   228  TYR228      0.0560
     62  CG       -18.6250  -34.4740   20.2660 C.ar  228  TYR228     -0.0198
     63  CD1      -18.8830  -33.5640   21.2770 C.ar  228  TYR228     -0.0009
     64  CD2      -19.6930  -35.1250   19.6590 C.ar  228  TYR228     -0.0009
     65  CE1      -20.1840  -33.3320   21.7040 C.ar  228  TYR228      0.0417
     66  CE2      -21.0020  -34.9090   20.0910 C.ar  228  TYR228      0.0417
     67  CZ       -21.2260  -34.0040   21.1130 C.ar  228  TYR228      0.1957
     68  OH       -22.4980  -33.6990   21.5350 O.3   228  TYR228     -0.2866
     69  N        -12.7700  -37.2570   22.3000 N.3   244  CYS244     -0.1235
     70  CA       -12.6850  -37.1880   23.7560 C.3   244  CYS244      0.1677
     71  C        -12.5710  -38.5990   24.3420 C.2   244  CYS244      0.2270
     72  O        -13.1520  -38.8900   25.3890 O.2   244  CYS244     -0.2867
     73  CB       -13.9030  -36.4290   24.3310 C.3   244  CYS244      0.0956
     74  SG       -15.4800  -36.9510   23.5770 S.3   244  CYS244     -0.0801
     75  N        -11.5260  -36.5270   28.7790 N.3   282  ASP282     -0.1225
     76  CA       -12.8690  -37.0440   28.4850 C.3   282  ASP282      0.1805
     77  C        -13.8200  -35.9220   28.0900 C.2   282  ASP282      0.2598
     78  O        -14.9840  -36.1860   27.7880 O.2   282  ASP282     -0.2718
     79  CB       -13.4940  -37.6190   29.7780 C.3   282  ASP282      0.1424
     80  CG       -12.6250  -38.6730   30.4260 C.2   282  ASP282      0.3668
     81  OD1      -12.2890  -39.6540   29.7210 O.co2 282  ASP282     -0.2456
     82  OD2      -12.2490  -38.4950   31.6090 O.co2 282  ASP282     -0.2456
     83  N        -13.3740  -34.6770   28.2200 N.am  283  ILE283     -0.1966
     84  CA       -14.2020  -33.5480   27.8290 C.3   283  ILE283      0.1727
     85  C        -13.7620  -33.1170   26.4320 C.2   283  ILE283      0.2616
     86  O        -12.6280  -33.3880   26.0210 O.2   283  ILE283     -0.2715
     87  CB       -14.0750  -32.3820   28.8450 C.3   283  ILE283      0.0290
     88  CG1      -12.6190  -31.9140   28.9600 C.3   283  ILE283      0.0022
     89  CG2      -14.6830  -32.7890   30.2200 C.3   283  ILE283      0.0023
     90  CD1      -12.4340  -30.6810   29.8430 C.3   283  ILE283      0.0001
     91  N        -14.6760  -32.5140   25.6800 N.am  284  TRP284     -0.1960
     92  CA       -14.3570  -32.0610   24.3300 C.3   284  TRP284      0.1771
     93  C        -13.9100  -30.6020   24.2610 C.2   284  TRP284      0.2619
     94  O        -14.1130  -29.8470   25.2030 O.2   284  TRP284     -0.2715
     95  CB       -15.5130  -32.3150   23.3440 C.3   284  TRP284      0.0590
     96  CG       -16.7920  -31.5700   23.6030 C.ar  284  TRP284      0.0006
     97  CD1      -17.8640  -32.0130   24.3450 C.ar  284  TRP284      0.0946
     98  CD2      -17.2160  -30.3420   22.9860 C.ar  284  TRP284      0.0152
     99  NE1      -18.8840  -31.0950   24.2840 N.ar  284  TRP284     -0.2442
    100  CE2      -18.5480  -30.1020   23.4020 C.ar  284  TRP284      0.0810
    101  CE3      -16.6390  -29.4740   22.0490 C.ar  284  TRP284      0.0012
    102  CZ2      -19.2500  -28.9510   23.0360 C.ar  284  TRP284      0.0191
    103  CZ3      -17.3500  -28.3360   21.6680 C.ar  284  TRP284      0.0001
    104  CH2      -18.6330  -28.0730   22.1860 C.ar  284  TRP284      0.0015
    105  N        -13.2980  -30.2330   23.1370 N.am  285  TYR285     -0.1974
    106  CA       -12.6520  -28.9280   22.9250 C.3   285  TYR285      0.1639
    107  C        -11.2990  -28.8650   23.6600 C.2   285  TYR285      0.2290
    108  O        -11.0740  -28.0290   24.5380 O.2   285  TYR285     -0.2864
    109  CB       -13.5750  -27.7350   23.2770 C.3   285  TYR285      0.0560
    110  CG       -13.2800  -26.5350   22.3920 C.ar  285  TYR285     -0.0198
    111  CD1      -13.8720  -26.4150   21.1350 C.ar  285  TYR285     -0.0009
    112  CD2      -12.4650  -25.5020   22.8350 C.ar  285  TYR285     -0.0009
    113  CE1      -13.5660  -25.3360   20.2870 C.ar  285  TYR285      0.0417
    114  CE2      -12.1460  -24.4270   22.0080 C.ar  285  TYR285      0.0417
    115  CZ       -12.6940  -24.3560   20.7360 C.ar  285  TYR285      0.1957
    116  OH       -12.3620  -23.2950   19.9140 O.3   285  TYR285     -0.2866
    117  N         -7.3530  -32.8980   31.2290 N.3   302  GLN302     -0.1245
    118  CA        -8.3560  -32.1330   31.9670 C.3   302  GLN302      0.1566
    119  C         -7.9630  -31.8890   33.4350 C.2   302  GLN302      0.2260
    120  O         -8.6590  -31.1470   34.1380 O.2   302  GLN302     -0.2867
    121  CB        -9.7640  -32.7340   31.8430 C.3   302  GLN302      0.0367
    122  CG       -10.0040  -33.9300   32.7770 C.3   302  GLN302      0.0905
    123  CD       -10.9440  -34.9730   32.1690 C.2   302  GLN302      0.2608
    124  OE1      -11.4500  -34.8070   31.0590 O.2   302  GLN302     -0.2717
    125  NE2      -11.1190  -36.0890   32.8710 N.am  302  GLN302     -0.0878
    126  N         -6.5720  -26.3120   27.7570 N.3   334  ARG334     -0.1245
    127  CA        -7.3930  -26.2550   26.5460 C.3   334  ARG334      0.1563
    128  C         -6.5690  -26.2870   25.2690 C.2   334  ARG334      0.2260
    129  O         -7.0470  -26.7960   24.2460 O.2   334  ARG334     -0.2867
    130  CB        -8.2700  -24.9870   26.5270 C.3   334  ARG334      0.0307
    131  CG        -9.4380  -25.0690   27.5030 C.3   334  ARG334      0.0489
    132  CD       -10.4730  -26.1210   27.0650 C.3   334  ARG334      0.2205
    133  NE       -11.5290  -26.1910   28.0820 N.pl3 334  ARG334     -0.0865
    134  CZ       -12.5740  -27.0110   28.0640 C.cat 334  ARG334      0.5346
    135  NH1      -13.4450  -27.0010   29.0820 N.pl3 334  ARG334      0.1354
    136  NH2      -12.8210  -27.7380   26.9900 N.pl3 334  ARG334      0.1354
    137  N         -8.5010  -23.8110   31.9480 N.3   350  ASP350     -0.1239
    138  CA        -9.8900  -23.4440   32.2470 C.3   350  ASP350      0.1674
    139  C        -10.0630  -22.4650   33.4040 C.2   350  ASP350      0.2266
    140  O        -11.1280  -21.8460   33.5320 O.2   350  ASP350     -0.2867
    141  CB       -10.7150  -24.6960   32.5650 C.3   350  ASP350      0.1410
    142  CG       -11.4910  -25.1710   31.3720 C.2   350  ASP350      0.3668
    143  OD1      -11.0920  -24.7620   30.2650 O.co2 350  ASP350     -0.2456
    144  OD2      -12.4330  -25.9870   31.5070 O.co2 350  ASP350     -0.2456
@<TRIPOS>BOND
     1    42    43    2
     2    42    41    1
     3    40    41    1
     4    41    44    1
     5    32    33    1
     6    44    45    1
     7    34    33    1
     8    34    35    2
     9    36    33    1
    10    36    37    1
    11    39    37   am
    12    45    46    1
    13    37    38    2
    14    52    51    2
    15    47    46   ar
    16    46    48   ar
    17    59    58    1
    18    59    60    2
    19    58    57    1
    20    58    61    1
    21    51    57   am
    22    51    50    1
    23    49    50    1
    24    50    53    1
    25    64    66   ar
    26    64    62   ar
    27    61    62    1
    28   116   115    1
    29    66    67   ar
    30    62    63   ar
    31   113   115   ar
    32   113   111   ar
    33    27    29   ar
    34    27    25   ar
    35    24    25    1
    36    24    21    1
    37   115   114   ar
    38    22    23    2
    39    22    21    1
    40    29    30   ar
    41    53    54    1
    42    67    68    1
    43    67    65   ar
    44   111   110   ar
    45    25    26   ar
    46    20    21    1
    47    63    65   ar
    48   103   101   ar
    49   103   104   ar
    50    55    54    2
    51   114   112   ar
    52    54    56   am
    53   101    98   ar
    54    15    14    2
    55   104   102   ar
    56    30    31    1
    57    30    28   ar
    58    69    70    1
    59   110   112   ar
    60   110   109    1
    61    26    28   ar
    62   106   105    1
    63   106   109    1
    64   106   107    1
    65    98   100   ar
    66    98    96   ar
    67   102   100   ar
    68    14    13    1
    69   105    93   am
    70     4     3    2
    71    95    96    1
    72    95    92    1
    73   100    99   ar
    74    74    73    1
    75    12    13    1
    76    96    97   ar
    77   107   108    2
    78    70    73    1
    79    70    71    1
    80     3     2    1
    81    13    16    1
    82   129   128    2
    83    93    92    1
    84    93    94    2
    85    99    97   ar
    86    92    91    1
    87    71    72    2
    88     5     2    1
    89     5     6    1
    90    16    17    1
    91     2     1    1
    92   128   127    1
    93     6     8   ar
    94     6     7   ar
    95     8    10   ar
    96    91    85   am
    97    17    18    2
    98    17    19   am
    99     7     9   ar
   100    86    85    2
   101    10    11   ar
   102    85    84    1
   103   130   127    1
   104   130   131    1
   105   127   126    1
   106     9    11   ar
   107   136   134    1
   108   132   131    1
   109   132   133    1
   110    78    77    2
   111    84    83    1
   112    84    87    1
   113   134   133    2
   114   134   135    1
   115    77    83   am
   116    77    76    1
   117    76    75    1
   118    76    79    1
   119    87    88    1
   120    87    89    1
   121    88    90    1
   122    81    80   ar
   123    79    80    1
   124   143   142   ar
   125    80    82   ar
   126   124   123    2
   127   117   118    1
   128   142   144   ar
   129   142   141    1
   130   121   118    1
   131   121   122    1
   132   137   138    1
   133   118   119    1
   134   123   122    1
   135   123   125   am
   136   138   141    1
   137   138   139    1
   138   139   140    2
   139   119   120    2
