@<TRIPOS>MOLECULE
tmp/3iixA01.pdb
 137 131 0 0 0
SMALL
GASTEIGER

@<TRIPOS>ATOM
      1  N         51.6920   -0.1690   24.4740 N.3    69  TYR69      -0.1227
      2  CA        52.3460    0.6890   23.4590 C.3    69  TYR69       0.1736
      3  C         51.7990    2.1090   23.4300 C.2    69  TYR69       0.2595
      4  O         52.4430    2.9870   22.8600 O.2    69  TYR69      -0.2718
      5  CB        52.1520    0.0980   22.0490 C.3    69  TYR69       0.0548
      6  CG        50.7810   -0.4510   21.7470 C.ar   69  TYR69      -0.0200
      7  CD1       49.7410    0.3970   21.3770 C.ar   69  TYR69      -0.0009
      8  CD2       50.4960   -1.8090   21.8560 C.ar   69  TYR69      -0.0009
      9  CE1       48.4810   -0.0880   21.1020 C.ar   69  TYR69       0.0417
     10  CE2       49.2400   -2.2950   21.5820 C.ar   69  TYR69       0.0417
     11  CZ        48.2270   -1.4240   21.2100 C.ar   69  TYR69       0.1957
     12  OH        46.9880   -1.9610   20.9620 O.3    69  TYR69      -0.2866
     13  N         50.6560    2.3480   24.0640 N.am   70  CYS70      -0.1970
     14  CA        49.8300    3.5370   23.7700 C.3    70  CYS70       0.1712
     15  C         50.0080    4.6400   24.8000 C.2    70  CYS70       0.2296
     16  O         49.8290    4.4060   25.9930 O.2    70  CYS70      -0.2864
     17  CB        48.3430    3.1750   23.6690 C.3    70  CYS70       0.0983
     18  SG        47.3170    4.5470   23.2240 S.3    70  CYS70      -0.0798
     19  N         37.3880    9.3610   16.4670 N.3   107  GLN107     -0.1245
     20  CA        38.2720    8.4410   17.1850 C.3   107  GLN107      0.1566
     21  C         38.4720    8.9190   18.6080 C.2   107  GLN107      0.2260
     22  O         38.5320   10.1120   18.8690 O.2   107  GLN107     -0.2867
     23  CB        39.6310    8.2810   16.5030 C.3   107  GLN107      0.0367
     24  CG        40.4870    7.1220   17.0210 C.3   107  GLN107      0.0905
     25  CD        41.8270    7.0630   16.3760 C.2   107  GLN107      0.2608
     26  OE1       42.7520    7.8040   16.7390 O.2   107  GLN107     -0.2717
     27  NE2       41.9640    6.1830   15.4070 N.am  107  GLN107     -0.0878
     28  N         35.9300    4.9610   15.3290 N.3   135  SER135     -0.1217
     29  CA        37.1030    4.2320   15.7430 C.3   135  SER135      0.1889
     30  C         37.2010    4.4000   17.2560 C.2   135  SER135      0.2288
     31  O         37.9660    5.2060   17.7710 O.2   135  SER135     -0.2866
     32  CB        38.3390    4.7830   15.0440 C.3   135  SER135      0.2089
     33  OG        39.5270    4.0960   15.3630 O.3   135  SER135     -0.2183
     34  N         41.8210   -1.7260   14.2870 N.3   158  ARG158     -0.1245
     35  CA        43.0210   -2.4490   13.8810 C.3   158  ARG158      0.1563
     36  C         43.1380   -3.7120   14.7060 C.2   158  ARG158      0.2260
     37  O         42.9150   -3.6930   15.9030 O.2   158  ARG158     -0.2867
     38  CB        44.2530   -1.6010   14.0810 C.3   158  ARG158      0.0307
     39  CG        44.3480   -0.4470   13.1280 C.3   158  ARG158      0.0489
     40  CD        45.7080    0.0960   13.2260 C.3   158  ARG158      0.2205
     41  NE        45.8490    1.3340   12.5030 N.pl3 158  ARG158     -0.0865
     42  CZ        46.9860    2.0040   12.4620 C.cat 158  ARG158      0.5346
     43  NH1       48.0490    1.5490   13.1230 N.pl3 158  ARG158      0.1354
     44  NH2       47.0580    3.1260   11.7880 N.pl3 158  ARG158      0.1354
     45  N         45.9140   -5.1300   15.3130 N.3   160  GLU160     -0.1245
     46  CA        47.1390   -4.8100   16.0680 C.3   160  GLU160      0.1567
     47  C         48.2600   -5.8210   15.8540 C.2   160  GLU160      0.2260
     48  O         49.3410   -5.4740   15.4000 O.2   160  GLU160     -0.2867
     49  CB        46.8670   -4.5960   17.5630 C.3   160  GLU160      0.0388
     50  CG        45.7490   -3.6140   17.8900 C.3   160  GLU160      0.1160
     51  CD        45.9290   -2.2060   17.3660 C.2   160  GLU160      0.3649
     52  OE1       46.8880   -1.9120   16.6300 O.co2 160  GLU160     -0.2457
     53  OE2       45.0420   -1.3790   17.6900 O.co2 160  GLU160     -0.2457
     54  N         39.1810   -9.2720   19.8790 N.3   179  ARG179     -0.1245
     55  CA        39.3620   -8.3120   18.7960 C.3   179  ARG179      0.1563
     56  C         38.7810   -8.8420   17.5040 C.2   179  ARG179      0.2260
     57  O         38.0800   -8.1310   16.7870 O.2   179  ARG179     -0.2867
     58  CB        40.8460   -8.0300   18.6300 C.3   179  ARG179      0.0307
     59  CG        41.2030   -6.7590   17.8800 C.3   179  ARG179      0.0489
     60  CD        40.9170   -5.5320   18.7390 C.3   179  ARG179      0.2205
     61  NE        41.5000   -4.3190   18.1890 N.pl3 179  ARG179     -0.0865
     62  CZ        41.3810   -3.1090   18.7200 C.cat 179  ARG179      0.5346
     63  NH1       40.7250   -2.9380   19.8600 N.pl3 179  ARG179      0.1354
     64  NH2       41.9380   -2.0660   18.1160 N.pl3 179  ARG179      0.1354
     65  N         50.3890   -2.9810   13.6750 N.3   197  MET197     -0.1245
     66  CA        51.6330   -2.2670   13.8350 C.3   197  MET197      0.1570
     67  C         52.7840   -3.1840   13.4140 C.2   197  MET197      0.2261
     68  O         52.6890   -4.4130   13.5020 O.2   197  MET197     -0.2867
     69  CB        51.8320   -1.7860   15.2640 C.3   197  MET197      0.0387
     70  CG        50.9500   -0.5850   15.6080 C.3   197  MET197      0.0595
     71  SD        51.0550   -0.1410   17.3540 S.3   197  MET197     -0.1393
     72  CE        50.1230   -1.4820   18.0520 C.3   197  MET197      0.0692
     73  N         50.9850    0.8700   10.3320 N.3   226  GLY226     -0.1210
     74  CA        52.0460    1.8040   10.6310 C.3   226  GLY226      0.1940
     75  C         53.1150    1.1510   11.4770 C.2   226  GLY226      0.2454
     76  O         52.9110    0.0530   11.9950 O.2   226  GLY226     -0.2732
     77  N         54.2380    1.8340   11.6220 N.am  227  PRO227     -0.2717
     78  CA        55.3140    1.3280   12.4700 C.3   227  PRO227      0.1535
     79  C         54.9750    1.5840   13.9210 C.2   227  PRO227      0.2599
     80  O         54.3560    2.5930   14.2430 O.2   227  PRO227     -0.2715
     81  CB        56.4990    2.2120   12.0680 C.3   227  PRO227      0.0310
     82  CG        55.8510    3.5010   11.7290 C.3   227  PRO227      0.0237
     83  CD        54.5900    3.1320   11.0170 C.3   227  PRO227      0.0939
     84  N         55.4600    0.7040   14.7840 N.am  228  PHE228     -0.1960
     85  CA        55.4510    0.9660   16.2140 C.3   228  PHE228      0.1771
     86  C         56.4390    2.1060   16.5370 C.2   228  PHE228      0.2619
     87  O         57.5840    2.1010   16.0730 O.2   228  PHE228     -0.2715
     88  CB        55.8340   -0.3020   16.9870 C.3   228  PHE228      0.0574
     89  CG        56.2090   -0.0430   18.4180 C.ar  228  PHE228     -0.0200
     90  CD1       55.2660    0.4040   19.3250 C.ar  228  PHE228     -0.0042
     91  CD2       57.5110   -0.2230   18.8400 C.ar  228  PHE228     -0.0042
     92  CE1       55.6350    0.6810   20.6280 C.ar  228  PHE228     -0.0003
     93  CE2       57.8600    0.0270   20.1520 C.ar  228  PHE228     -0.0003
     94  CZ        56.9170    0.4830   21.0350 C.ar  228  PHE228     -0.0000
     95  N         55.9780    3.0790   17.3180 N.am  229  ILE229     -0.1977
     96  CA        56.8140    4.2030   17.7290 C.3   229  ILE229      0.1596
     97  C         56.7670    4.2710   19.2760 C.2   229  ILE229      0.2287
     98  O         55.6880    4.5080   19.8440 O.2   229  ILE229     -0.2864
     99  CB        56.3300    5.5270   17.1030 C.3   229  ILE229      0.0276
    100  CG1       56.4120    5.4700   15.5680 C.3   229  ILE229      0.0022
    101  CG2       57.1870    6.7070   17.6040 C.3   229  ILE229      0.0022
    102  CD1       55.7580    6.6450   14.8640 C.3   229  ILE229      0.0001
    103  N         56.6550    5.2710   23.0850 N.3   231  HIS231     -0.1241
    104  CA        56.1740    6.4550   23.7750 C.3   231  HIS231      0.1621
    105  C         56.8130    6.4840   25.1610 C.2   231  HIS231      0.2264
    106  O         56.7910    5.4950   25.8680 O.2   231  HIS231     -0.2867
    107  CB        54.6600    6.4010   23.9060 C.3   231  HIS231      0.0745
    108  CG        54.0390    7.6620   24.4110 C.ar  231  HIS231      0.0817
    109  ND1       54.2590    8.1520   25.6810 N.ar  231  HIS231     -0.2268
    110  CD2       53.2000    8.5350   23.8070 C.ar  231  HIS231      0.1154
    111  CE1       53.5830    9.2800   25.8300 C.ar  231  HIS231      0.1986
    112  NE2       52.9210    9.5270   24.7140 N.ar  231  HIS231     -0.2212
    113  N         51.6340    7.8200   11.3010 N.3   268  ALA268     -0.1245
    114  CA        52.8620    7.2430   11.8780 C.3   268  ALA268      0.1562
    115  C         53.9470    7.0870   10.8220 C.2   268  ALA268      0.2260
    116  O         55.1270    7.2740   11.1320 O.2   268  ALA268     -0.2867
    117  CB        52.5810    5.9290   12.5900 C.3   268  ALA268      0.0290
    118  N         49.3490    9.2050   20.7790 N.3   303  LEU303     -0.1231
    119  CA        49.4670    7.7680   20.9770 C.3   303  LEU303      0.1693
    120  C         50.9400    7.3920   20.9940 C.2   303  LEU303      0.2592
    121  O         51.3570    6.4960   21.7160 O.2   303  LEU303     -0.2718
    122  CB        48.7390    7.0200   19.8620 C.3   303  LEU303      0.0284
    123  CG        47.3320    7.4880   19.5040 C.3   303  LEU303      0.0019
    124  CD1       46.6750    6.5220   18.5230 C.3   303  LEU303      0.0001
    125  CD2       46.5050    7.6640   20.7300 C.3   303  LEU303      0.0001
    126  N         51.6940    8.0910   20.1430 N.am  304  TYR304     -0.1976
    127  CA        53.1390    8.0310   20.0420 C.3   304  TYR304      0.1639
    128  C         53.6290    9.4800   19.9240 C.2   304  TYR304      0.2290
    129  O         52.8610   10.3660   19.5160 O.2   304  TYR304     -0.2864
    130  CB        53.5650    7.2320   18.8130 C.3   304  TYR304      0.0560
    131  CG        52.8460    7.6260   17.5470 C.ar  304  TYR304     -0.0198
    132  CD1       53.2960    8.6970   16.7800 C.ar  304  TYR304     -0.0009
    133  CD2       51.7190    6.9480   17.1180 C.ar  304  TYR304     -0.0009
    134  CE1       52.6350    9.0830   15.6410 C.ar  304  TYR304      0.0417
    135  CE2       51.0610    7.3290   15.9670 C.ar  304  TYR304      0.0417
    136  CZ        51.5270    8.3910   15.2330 C.ar  304  TYR304      0.1957
    137  OH        50.8830    8.7770   14.0860 O.3   304  TYR304     -0.2866
@<TRIPOS>BOND
     1    73    74    1
     2    74    75    1
     3   115   116    2
     4   115   114    1
     5    83    77    1
     6    83    82    1
     7   113   114    1
     8    75    77   am
     9    75    76    2
    10    77    78    1
    11    82    81    1
    12    44    42    1
    13   114   117    1
    14    81    78    1
    15    42    41    2
    16    42    43    1
    17    78    79    1
    18    41    40    1
    19    39    40    1
    20    39    38    1
    21    67    68    2
    22    67    66    1
    23    65    66    1
    24    66    69    1
    25    35    38    1
    26    35    34    1
    27    35    36    1
    28    79    80    2
    29    79    84   am
    30   137   136    1
    31    36    37    2
    32    84    85    1
    33   102   100    1
    34    32    33    1
    35    32    29    1
    36   136   134   ar
    37   136   135   ar
    38    69    70    1
    39    45    46    1
    40    28    29    1
    41    48    47    2
    42    27    25   am
    43   100    99    1
    44    70    71    1
    45   134   132   ar
    46    29    30    1
    47    47    46    1
    48   135   133   ar
    49    46    49    1
    50    87    86    2
    51    85    86    1
    52    85    88    1
    53    25    26    2
    54    25    24    1
    55    19    20    1
    56    23    24    1
    57    23    20    1
    58    86    95   am
    59    52    51   ar
    60   132   131   ar
    61    57    56    2
    62    88    89    1
    63    99   101    1
    64    99    96    1
    65   133   131   ar
    66    20    21    1
    67    30    31    2
    68    95    96    1
    69    71    72    1
    70    51    53   ar
    71    51    50    1
    72    56    55    1
    73   131   130    1
    74    49    50    1
    75    96    97    1
    76    59    58    1
    77    59    60    1
    78    64    62    1
    79    61    62    2
    80    61    60    1
    81    89    91   ar
    82    89    90   ar
    83   124   123    1
    84    21    22    2
    85    58    55    1
    86    62    63    1
    87    55    54    1
    88   130   127    1
    89    91    93   ar
    90    97    98    2
    91    90    92   ar
    92   123   122    1
    93   123   125    1
    94   129   128    2
    95   122   119    1
    96   128   127    1
    97   127   126    1
    98   126   120   am
    99    93    94   ar
   100    92    94   ar
   101   118   119    1
   102    12    11    1
   103   119   120    1
   104   120   121    2
   105     9    11   ar
   106     9     7   ar
   107    11    10   ar
   108     7     6   ar
   109    10     8   ar
   110     6     8   ar
   111     6     5    1
   112     5     2    1
   113     4     3    2
   114   103   104    1
   115    18    17    1
   116     3     2    1
   117     3    13   am
   118     2     1    1
   119    17    14    1
   120    14    13    1
   121    14    15    1
   122   104   107    1
   123   104   105    1
   124   110   108   ar
   125   110   112   ar
   126   107   108    1
   127   108   109   ar
   128   112   111   ar
   129    15    16    2
   130   105   106    2
   131   109   111   ar
