@<TRIPOS>MOLECULE
tmp/3iiyA00.pdb
 135 131 0 0 0
SMALL
GASTEIGER

@<TRIPOS>ATOM
      1  N          9.4430   22.0420   19.5140 N.3    21  PHE21      -0.1241
      2  CA         9.7680   20.9960   20.4690 C.3    21  PHE21       0.1605
      3  C          8.7030   20.7870   21.5500 C.2    21  PHE21       0.2264
      4  O          8.6380   19.7200   22.1790 O.2    21  PHE21      -0.2867
      5  CB        11.1170   21.2920   21.1290 C.3    21  PHE21       0.0534
      6  CG        12.3060   20.9900   20.2640 C.ar   21  PHE21      -0.0203
      7  CD1       12.4350   19.7560   19.6270 C.ar   21  PHE21      -0.0042
      8  CD2       13.3260   21.9260   20.1150 C.ar   21  PHE21      -0.0042
      9  CE1       13.5540   19.4740   18.8250 C.ar   21  PHE21      -0.0003
     10  CE2       14.4440   21.6550   19.3190 C.ar   21  PHE21      -0.0003
     11  CZ        14.5540   20.4260   18.6730 C.ar   21  PHE21      -0.0000
     12  N         17.7760   27.9620   22.0060 N.3    70  ASN70      -0.1240
     13  CA        16.7700   27.0900   21.4200 C.3    70  ASN70       0.1653
     14  C         15.8290   26.6270   22.5250 C.2    70  ASN70       0.2266
     15  O         16.2370   25.8840   23.4230 O.2    70  ASN70      -0.2867
     16  CB        17.4190   25.9050   20.6790 C.3    70  ASN70       0.1155
     17  CG        16.4350   25.1590   19.7360 C.2    70  ASN70       0.2627
     18  OD1       15.2130   25.4270   19.7090 O.2    70  ASN70      -0.2716
     19  ND2       16.9770   24.2080   18.9640 N.am   70  ASN70      -0.0877
     20  N         13.0740   24.4790   24.2980 N.3    72  TYR72      -0.1241
     21  CA        12.6530   23.0720   24.2400 C.3    72  TYR72       0.1605
     22  C         11.3140   22.8520   24.9230 C.2    72  TYR72       0.2264
     23  O         10.5380   21.9730   24.5200 O.2    72  TYR72      -0.2867
     24  CB        13.6780   22.1400   24.9060 C.3    72  TYR72       0.0534
     25  CG        15.0830   22.1590   24.3330 C.ar   72  TYR72      -0.0201
     26  CD1       15.3490   22.6670   23.0500 C.ar   72  TYR72      -0.0009
     27  CD2       16.1500   21.6240   25.0630 C.ar   72  TYR72      -0.0009
     28  CE1       16.6410   22.6630   22.5320 C.ar   72  TYR72       0.0417
     29  CE2       17.4390   21.6080   24.5530 C.ar   72  TYR72       0.0417
     30  CZ        17.6840   22.1240   23.2890 C.ar   72  TYR72       0.1957
     31  OH        18.9740   22.1240   22.7930 O.3    72  TYR72      -0.2866
     32  N         15.6610   20.3540   29.8010 N.3   118  ASN118     -0.1240
     33  CA        14.8850   19.4820   28.9280 C.3   118  ASN118      0.1653
     34  C         13.3860   19.5010   29.1550 C.2   118  ASN118      0.2266
     35  O         12.6270   19.2830   28.2220 O.2   118  ASN118     -0.2867
     36  CB        15.3940   18.0550   29.0200 C.3   118  ASN118      0.1155
     37  CG        16.7420   17.8950   28.3780 C.2   118  ASN118      0.2627
     38  OD1       17.0030   18.4830   27.3300 O.2   118  ASN118     -0.2716
     39  ND2       17.6150   17.1100   29.0010 N.am  118  ASN118     -0.0877
     40  N         21.8890   12.8630   31.0940 N.3   162  GLU162     -0.1245
     41  CA        20.7990   13.8390   30.9720 C.3   162  GLU162      0.1567
     42  C         19.4850   13.3670   31.5740 C.2   162  GLU162      0.2260
     43  O         19.0710   12.2230   31.3680 O.2   162  GLU162     -0.2867
     44  CB        20.5530   14.2060   29.5100 C.3   162  GLU162      0.0388
     45  CG        21.7440   14.8200   28.7940 C.3   162  GLU162      0.1160
     46  CD        21.3300   15.6550   27.5960 C.2   162  GLU162      0.3649
     47  OE1       20.2060   16.2210   27.6050 O.co2 162  GLU162     -0.2457
     48  OE2       22.1420   15.7580   26.6480 O.co2 162  GLU162     -0.2457
     49  N         16.8310    1.7810   26.6990 N.3   231  ASN231     -0.1225
     50  CA        17.3960    2.9610   26.0560 C.3   231  ASN231      0.1785
     51  C         16.9580    4.2280   26.7870 C.2   231  ASN231      0.2597
     52  O         16.3450    4.1490   27.8600 O.2   231  ASN231     -0.2718
     53  CB        16.9720    3.0130   24.5910 C.3   231  ASN231      0.1169
     54  CG        18.0180    3.6630   23.6830 C.2   231  ASN231      0.2627
     55  OD1       18.8400    4.4840   24.1130 O.2   231  ASN231     -0.2716
     56  ND2       17.9740    3.3040   22.4060 N.am  231  ASN231     -0.0877
     57  N         17.2780    5.3870   26.2100 N.am  232  TYR232     -0.1976
     58  CA        16.9250    6.6840   26.7820 C.3   232  TYR232      0.1639
     59  C         15.4550    6.7420   27.1600 C.2   232  TYR232      0.2290
     60  O         14.5920    6.4700   26.3330 O.2   232  TYR232     -0.2864
     61  CB        17.1960    7.8030   25.7820 C.3   232  TYR232      0.0560
     62  CG        18.6420    8.0060   25.3680 C.ar  232  TYR232     -0.0198
     63  CD1       19.7100    7.5120   26.1350 C.ar  232  TYR232     -0.0009
     64  CD2       18.9370    8.7310   24.2230 C.ar  232  TYR232     -0.0009
     65  CE1       21.0290    7.7210   25.7470 C.ar  232  TYR232      0.0417
     66  CE2       20.2440    8.9420   23.8230 C.ar  232  TYR232      0.0417
     67  CZ        21.2860    8.4440   24.5820 C.ar  232  TYR232      0.1957
     68  OH        22.5690    8.6870   24.1570 O.3   232  TYR232     -0.2866
     69  N         12.8160    5.2040   23.3230 N.3   248  CYS248     -0.1235
     70  CA        12.7450    5.2380   21.8670 C.3   248  CYS248      0.1677
     71  C         12.5960    3.8220   21.2880 C.2   248  CYS248      0.2270
     72  O         13.1740    3.4970   20.2410 O.2   248  CYS248     -0.2867
     73  CB        13.9690    5.9710   21.2960 C.3   248  CYS248      0.0956
     74  SG        15.5600    5.3780   21.9280 S.3   248  CYS248     -0.0801
     75  N         11.5730    5.9510   16.9160 N.3   286  ASP286     -0.1225
     76  CA        12.8000    5.5180   17.5710 C.3   286  ASP286      0.1805
     77  C         13.8580    6.6170   17.6570 C.2   286  ASP286      0.2598
     78  O         15.0090    6.3680   18.0100 O.2   286  ASP286     -0.2718
     79  CB        13.3250    4.2150   16.9670 C.3   286  ASP286      0.1424
     80  CG        13.1660    4.1720   15.4790 C.2   286  ASP286      0.3668
     81  OD1       13.5530    5.1600   14.8360 O.co2 286  ASP286     -0.2456
     82  OD2       12.6480    3.1660   14.9530 O.co2 286  ASP286     -0.2456
     83  N         13.4480    7.8470   17.3590 N.am  287  ILE287     -0.1966
     84  CA        14.2540    9.0020   17.7270 C.3   287  ILE287      0.1727
     85  C         13.9050    9.3780   19.1810 C.2   287  ILE287      0.2616
     86  O         12.8200    9.0310   19.6660 O.2   287  ILE287     -0.2715
     87  CB        14.1080   10.1950   16.7220 C.3   287  ILE287      0.0290
     88  CG1       12.6460   10.6360   16.5600 C.3   287  ILE287      0.0022
     89  CG2       14.7140    9.8360   15.3820 C.3   287  ILE287      0.0023
     90  CD1       12.4750   11.9070   15.7410 C.3   287  ILE287      0.0001
     91  N         14.8300   10.0320   19.8870 N.am  288  TRP288     -0.1960
     92  CA        14.5520   10.4520   21.2620 C.3   288  TRP288      0.1771
     93  C         14.0690   11.8970   21.3230 C.2   288  TRP288      0.2619
     94  O         14.2620   12.6670   20.3700 O.2   288  TRP288     -0.2715
     95  CB        15.7230   10.1630   22.2340 C.3   288  TRP288      0.0590
     96  CG        17.0150   10.9560   22.0290 C.ar  288  TRP288      0.0006
     97  CD1       18.0880   10.5920   21.2570 C.ar  288  TRP288      0.0946
     98  CD2       17.3800   12.2100   22.6460 C.ar  288  TRP288      0.0152
     99  NE1       19.0780   11.5430   21.3350 N.ar  288  TRP288     -0.2442
    100  CE2       18.6770   12.5420   22.1830 C.ar  288  TRP288      0.0810
    101  CE3       16.7370   13.0850   23.5360 C.ar  288  TRP288      0.0012
    102  CZ2       19.3370   13.7200   22.5710 C.ar  288  TRP288      0.0191
    103  CZ3       17.3960   14.2550   23.9240 C.ar  288  TRP288      0.0001
    104  CH2       18.6790   14.5620   23.4360 C.ar  288  TRP288      0.0015
    105  N         13.4310   12.2410   22.4430 N.am  289  TYR289     -0.1974
    106  CA        12.7290   13.5200   22.6480 C.3   289  TYR289      0.1639
    107  C         11.3690   13.5790   21.9190 C.2   289  TYR289      0.2290
    108  O         11.1010   14.4630   21.0910 O.2   289  TYR289     -0.2864
    109  CB        13.6190   14.7310   22.3350 C.3   289  TYR289      0.0560
    110  CG        13.3160   15.9030   23.2240 C.ar  289  TYR289     -0.0198
    111  CD1       13.8420   15.9780   24.5210 C.ar  289  TYR289     -0.0009
    112  CD2       12.4860   16.9280   22.7880 C.ar  289  TYR289     -0.0009
    113  CE1       13.5510   17.0630   25.3560 C.ar  289  TYR289      0.0417
    114  CE2       12.1920   18.0090   23.6060 C.ar  289  TYR289      0.0417
    115  CZ        12.7230   18.0730   24.8860 C.ar  289  TYR289      0.1957
    116  OH        12.4110   19.1520   25.6850 O.3   289  TYR289     -0.2866
    117  N          6.6620   16.2080   17.9570 N.3   338  ARG338     -0.1245
    118  CA         7.4620   16.2760   19.1830 C.3   338  ARG338      0.1563
    119  C          6.6370   16.1790   20.4550 C.2   338  ARG338      0.2260
    120  O          7.0980   15.6320   21.4680 O.2   338  ARG338     -0.2867
    121  CB         8.2960   17.5540   19.2070 C.3   338  ARG338      0.0307
    122  CG         9.4070   17.5700   18.1910 C.3   338  ARG338      0.0489
    123  CD        10.4280   16.5290   18.5460 C.3   338  ARG338      0.2205
    124  NE        11.4120   16.3260   17.4900 N.pl3 338  ARG338     -0.0865
    125  CZ        12.4700   15.5360   17.6120 C.cat 338  ARG338      0.5346
    126  NH1       12.6880   14.8790   18.7450 N.pl3 338  ARG338      0.1354
    127  NH2       13.3150   15.4130   16.6010 N.pl3 338  ARG338      0.1354
    128  N          8.5530   18.8110   13.5040 N.3   354  ASP354     -0.1239
    129  CA         9.9470   19.1910   13.2440 C.3   354  ASP354      0.1674
    130  C         10.1300   20.1820   12.0870 C.2   354  ASP354      0.2266
    131  O         11.1810   20.8160   11.9580 O.2   354  ASP354     -0.2867
    132  CB        10.8170   17.9470   13.0290 C.3   354  ASP354      0.1410
    133  CG        11.3900   17.4120   14.3260 C.2   354  ASP354      0.3668
    134  OD1       10.8890   17.7990   15.4080 O.co2 354  ASP354     -0.2456
    135  OD2       12.3440   16.6050   14.2660 O.co2 354  ASP354     -0.2456
@<TRIPOS>BOND
     1   131   130    2
     2   130   129    1
     3   132   129    1
     4   132   133    1
     5   129   128    1
     6   135   133   ar
     7   133   134   ar
     8    81    80   ar
     9    82    80   ar
    10    89    87    1
    11    80    79    1
    12    90    88    1
    13    88    87    1
    14   127   125    1
    15    87    84    1
    16    75    76    1
    17    79    76    1
    18    83    77   am
    19    83    84    1
    20   124   125    2
    21   124   123    1
    22    76    77    1
    23   125   126    1
    24    77    78    2
    25    84    85    1
    26   117   118    1
    27   122   123    1
    28   122   121    1
    29    11     9   ar
    30    11    10   ar
    31     9     7   ar
    32    19    17   am
    33    85    86    2
    34    85    91   am
    35   118   121    1
    36   118   119    1
    37    10     8   ar
    38     1     2    1
    39     7     6   ar
    40    18    17    2
    41    17    16    1
    42    91    92    1
    43     8     6   ar
    44    72    71    2
    45     6     5    1
    46    94    93    2
    47   119   120    2
    48     2     5    1
    49     2     3    1
    50    16    13    1
    51   108   107    2
    52    97    99   ar
    53    97    96   ar
    54    92    93    1
    55    92    95    1
    56    71    70    1
    57    73    70    1
    58    73    74    1
    59    93   105   am
    60    99   100   ar
    61    13    12    1
    62    13    14    1
    63     3     4    2
    64    70    69    1
    65   107   106    1
    66    96    95    1
    67    96    98   ar
    68   100   102   ar
    69   100    98   ar
    70   109   106    1
    71   109   110    1
    72    56    54   am
    73   105   106    1
    74    14    15    2
    75    28    26   ar
    76    28    30   ar
    77   102   104   ar
    78    98   101   ar
    79   112   110   ar
    80   112   114   ar
    81    31    30    1
    82    26    25   ar
    83   110   111   ar
    84    30    29   ar
    85   104   103   ar
    86   101   103   ar
    87   114   115   ar
    88    54    55    2
    89    54    53    1
    90    66    64   ar
    91    66    67   ar
    92    68    67    1
    93    64    62   ar
    94    21    20    1
    95    21    24    1
    96    21    22    1
    97    25    24    1
    98    25    27   ar
    99    23    22    2
   100   111   113   ar
   101    29    27   ar
   102    67    65   ar
   103    53    50    1
   104   115   113   ar
   105   115   116    1
   106    62    61    1
   107    62    63   ar
   108    65    63   ar
   109    61    58    1
   110    50    49    1
   111    50    51    1
   112    57    58    1
   113    57    51   am
   114    60    59    2
   115    48    46   ar
   116    58    59    1
   117    51    52    2
   118    38    37    2
   119    46    47   ar
   120    46    45    1
   121    35    34    2
   122    37    39   am
   123    37    36    1
   124    45    44    1
   125    33    36    1
   126    33    34    1
   127    33    32    1
   128    44    41    1
   129    41    40    1
   130    41    42    1
   131    43    42    2
