@<TRIPOS>MOLECULE
tmp/3ij3A00.pdb
 82 76 0 0 0
SMALL
GASTEIGER

@<TRIPOS>ATOM
      1  N         69.1400   68.3580   21.2470 N.3   115  PHE115     -0.1241
      2  CA        68.7620   69.2700   20.1500 C.3   115  PHE115      0.1605
      3  C         70.0920   69.8670   19.6420 C.2   115  PHE115      0.2264
      4  O         70.6990   70.6810   20.3320 O.2   115  PHE115     -0.2867
      5  CB        67.8230   70.3260   20.6650 C.3   115  PHE115      0.0534
      6  CG        67.2960   71.2260   19.5980 C.ar  115  PHE115     -0.0203
      7  CD1       66.4900   70.7170   18.5820 C.ar  115  PHE115     -0.0042
      8  CD2       67.5630   72.5870   19.6290 C.ar  115  PHE115     -0.0042
      9  CE1       65.9870   71.5330   17.5880 C.ar  115  PHE115     -0.0003
     10  CE2       67.0510   73.4290   18.6480 C.ar  115  PHE115     -0.0003
     11  CZ        66.2700   72.9030   17.6160 C.ar  115  PHE115     -0.0000
     12  N         60.0220   64.6940   17.3280 N.3   147  LEU147     -0.1245
     13  CA        59.4830   65.6930   16.4140 C.3   147  LEU147      0.1561
     14  C         58.8910   66.8660   17.2100 C.2   147  LEU147      0.2260
     15  O         59.1460   68.0310   16.9030 O.2   147  LEU147     -0.2867
     16  CB        58.4240   65.0910   15.4940 C.3   147  LEU147      0.0270
     17  CG        57.6680   66.0550   14.5930 C.3   147  LEU147      0.0019
     18  CD1       58.6470   66.7500   13.6220 C.3   147  LEU147      0.0001
     19  CD2       56.5780   65.2650   13.8070 C.3   147  LEU147      0.0001
     20  N         61.6310   68.8290   18.8230 N.3   150  ASP150     -0.1225
     21  CA        62.3610   69.5870   17.7950 C.3   150  ASP150      0.1805
     22  C         61.5960   70.8360   17.3460 C.2   150  ASP150      0.2597
     23  O         62.1810   71.9240   17.2600 O.2   150  ASP150     -0.2718
     24  CB        62.6850   68.7260   16.5450 C.3   150  ASP150      0.1424
     25  CG        63.8190   67.7080   16.7630 C.2   150  ASP150      0.3668
     26  OD1       64.5670   67.7830   17.7570 O.co2 150  ASP150     -0.2456
     27  OD2       63.9820   66.8320   15.8730 O.co2 150  ASP150     -0.2456
     28  N         60.2940   70.6930   17.0720 N.am  151  LEU151     -0.1979
     29  CA        59.5030   71.8260   16.6190 C.3   151  LEU151      0.1596
     30  C         59.4550   72.9240   17.6890 C.2   151  LEU151      0.2287
     31  O         59.6150   74.0990   17.3920 O.2   151  LEU151     -0.2864
     32  CB        58.0880   71.3790   16.2350 C.3   151  LEU151      0.0297
     33  CG        58.0110   70.4770   14.9960 C.3   151  LEU151      0.0022
     34  CD1       56.5480   69.9300   14.8120 C.3   151  LEU151      0.0001
     35  CD2       58.4850   71.2130   13.7340 C.3   151  LEU151      0.0001
     36  N         62.9350   74.6570   18.1250 N.3   154  THR154     -0.1218
     37  CA        63.4460   75.4840   17.0170 C.3   154  THR154      0.1862
     38  C         63.1020   76.9400   17.2710 C.2   154  THR154      0.2287
     39  O         61.9460   77.2890   17.5010 O.2   154  THR154     -0.2866
     40  CB        62.8700   75.0350   15.6670 C.3   154  THR154      0.1770
     41  OG1       63.1910   73.6550   15.4550 O.3   154  THR154     -0.2211
     42  CG2       63.4690   75.8900   14.4960 C.3   154  THR154      0.0375
     43  N         63.3120   80.4520   12.7210 N.3   158  ASP158     -0.1225
     44  CA        63.4130   79.2780   11.8280 C.3   158  ASP158      0.1805
     45  C         62.1950   78.3470   11.9280 C.2   158  ASP158      0.2597
     46  O         62.1900   77.2300   11.3940 O.2   158  ASP158     -0.2718
     47  CB        64.7120   78.5450   12.1800 C.3   158  ASP158      0.1424
     48  CG        65.9530   79.4230   11.9990 C.2   158  ASP158      0.3668
     49  OD1       65.9840   80.2510   11.0750 O.co2 158  ASP158     -0.2456
     50  OD2       66.9190   79.2340   12.7590 O.co2 158  ASP158     -0.2456
     51  N         61.1450   78.8200   12.5840 N.am  159  MET159     -0.1979
     52  CA        59.9200   78.0560   12.7730 C.3   159  MET159      0.1605
     53  C         58.7360   79.0220   12.8030 C.2   159  MET159      0.2287
     54  O         58.0470   79.1670   13.8350 O.2   159  MET159     -0.2864
     55  CB        59.9720   77.1870   14.0320 C.3   159  MET159      0.0413
     56  CG        58.7790   76.2650   14.2330 C.3   159  MET159      0.0598
     57  SD        58.3970   75.1820   12.8200 S.3   159  MET159     -0.1393
     58  CE        59.9730   74.3080   12.5900 C.3   159  MET159      0.0692
     59  N         57.2410   77.4430    7.9330 N.3   163  GLU163     -0.1245
     60  CA        58.0350   76.2920    8.3580 C.3   163  GLU163      0.1567
     61  C         57.1650   75.2460    9.0650 C.2   163  GLU163      0.2260
     62  O         57.3960   74.0380    8.9470 O.2   163  GLU163     -0.2867
     63  CB        59.2090   76.6950    9.2420 C.3   163  GLU163      0.0388
     64  CG        60.2910   77.4960    8.5210 C.3   163  GLU163      0.1160
     65  CD        59.9890   78.9590    8.3280 C.2   163  GLU163      0.3649
     66  OE1       59.0860   79.5300    8.9870 O.co2 163  GLU163     -0.2457
     67  OE2       60.7100   79.5730    7.5140 O.co2 163  GLU163     -0.2457
     68  N         56.5040   71.4260    7.9110 N.3   167  ALA167     -0.1245
     69  CA        56.6500   70.2730    8.7900 C.3   167  ALA167      0.1562
     70  C         55.4180   69.3550    8.6700 C.2   167  ALA167      0.2260
     71  O         55.5330   68.1250    8.6180 O.2   167  ALA167     -0.2867
     72  CB        56.8550   70.7380   10.2710 C.3   167  ALA167      0.0290
     73  N         55.5650   67.4780    5.4710 N.3   170  HIS170     -0.1241
     74  CA        56.5690   66.4200    5.5370 C.3   170  HIS170      0.1621
     75  C         55.9680   65.1790    6.1980 C.2   170  HIS170      0.2264
     76  O         56.1650   64.0630    5.7330 O.2   170  HIS170     -0.2867
     77  CB        57.8240   66.8810    6.2860 C.3   170  HIS170      0.0745
     78  CG        58.9510   65.8890    6.2410 C.ar  170  HIS170      0.0817
     79  ND1       59.8520   65.8340    5.2010 N.ar  170  HIS170     -0.2268
     80  CD2       59.3200   64.9180    7.1080 C.ar  170  HIS170      0.1154
     81  CE1       60.7280   64.8680    5.4280 C.ar  170  HIS170      0.1986
     82  NE2       60.4270   64.2980    6.5810 N.ar  170  HIS170     -0.2212
@<TRIPOS>BOND
     1    79    81   ar
     2    79    78   ar
     3    81    82   ar
     4    73    74    1
     5    74    75    1
     6    74    77    1
     7    76    75    2
     8    78    77    1
     9    78    80   ar
    10    82    80   ar
    11    67    65   ar
    12    68    69    1
    13    59    60    1
    14    65    64    1
    15    65    66   ar
    16    60    61    1
    17    60    63    1
    18    64    63    1
    19    71    70    2
    20    70    69    1
    21    69    72    1
    22    62    61    2
    23    49    48   ar
    24    46    45    2
    25    44    45    1
    26    44    47    1
    27    44    43    1
    28    45    51   am
    29    48    47    1
    30    48    50   ar
    31    51    52    1
    32    58    57    1
    33    52    53    1
    34    52    55    1
    35    53    54    2
    36    57    56    1
    37    18    17    1
    38    35    33    1
    39    19    17    1
    40    55    56    1
    41    42    40    1
    42    17    16    1
    43    34    33    1
    44    33    32    1
    45    41    40    1
    46    16    13    1
    47    40    37    1
    48    27    25   ar
    49    32    29    1
    50    13    14    1
    51    13    12    1
    52    24    25    1
    53    24    21    1
    54    29    28    1
    55    29    30    1
    56    25    26   ar
    57    15    14    2
    58    37    38    1
    59    37    36    1
    60    28    22   am
    61    23    22    2
    62    38    39    2
    63    22    21    1
    64    31    30    2
    65     9    11   ar
    66     9     7   ar
    67    11    10   ar
    68    21    20    1
    69     7     6   ar
    70    10     8   ar
    71     6     8   ar
    72     6     5    1
    73     3     2    1
    74     3     4    2
    75     2     5    1
    76     2     1    1
