@<TRIPOS>MOLECULE
tmp/3ij3A04.pdb
 97 92 0 0 0
SMALL
GASTEIGER

@<TRIPOS>ATOM
      1  N         32.5320   81.8780   12.7430 N.3   297  ALA297     -0.1245
      2  CA        31.2390   81.5180   13.3270 C.3   297  ALA297      0.1562
      3  C         30.2090   82.6580   13.2700 C.2   297  ALA297      0.2260
      4  O         29.0520   82.4690   13.6580 O.2   297  ALA297     -0.2867
      5  CB        31.4460   81.1130   14.7790 C.3   297  ALA297      0.0290
      6  N         30.3550   85.4200   15.0430 N.3   299  LYS299     -0.1245
      7  CA        30.2420   86.0490   16.3570 C.3   299  LYS299      0.1561
      8  C         31.2610   87.1820   16.3270 C.2   299  LYS299      0.2260
      9  O         32.2380   87.1160   15.5740 O.2   299  LYS299     -0.2867
     10  CB        30.5530   85.0920   17.4860 C.3   299  LYS299      0.0271
     11  CG        29.5650   83.9720   17.6010 C.3   299  LYS299      0.0035
     12  CD        29.8360   83.0730   18.8150 C.3   299  LYS299      0.0206
     13  CE        28.8120   81.9420   18.9010 C.3   299  LYS299      0.1093
     14  NZ        27.4450   82.4420   19.1270 N.3   299  LYS299     -0.1314
     15  N         35.3520   76.5780   14.7950 N.3   319  ALA319     -0.1245
     16  CA        34.1510   76.8640   14.0150 C.3   319  ALA319      0.1562
     17  C         34.1750   76.0320   12.7320 C.2   319  ALA319      0.2260
     18  O         33.1350   75.5310   12.2730 O.2   319  ALA319     -0.2867
     19  CB        34.0510   78.3790   13.6900 C.3   319  ALA319      0.0290
     20  N         33.6360   72.1080   13.6690 N.3   322  VAL322     -0.1245
     21  CA        32.2600   71.7440   14.0390 C.3   322  VAL322      0.1561
     22  C         31.3040   71.5760   12.8480 C.2   322  VAL322      0.2260
     23  O         30.3230   70.8490   12.9510 O.2   322  VAL322     -0.2867
     24  CB        31.6260   72.7260   15.0780 C.3   322  VAL322      0.0252
     25  CG1       32.3700   72.6700   16.4110 C.3   322  VAL322      0.0019
     26  CG2       31.5350   74.1060   14.5260 C.3   322  VAL322      0.0019
     27  N         30.0730   77.5480   34.2600 N.3   379  GLN379     -0.1245
     28  CA        29.1960   78.4310   33.4840 C.3   379  GLN379      0.1566
     29  C         28.9670   79.8420   34.0390 C.2   379  GLN379      0.2260
     30  O         28.8740   80.7600   33.2400 O.2   379  GLN379     -0.2867
     31  CB        27.8790   77.7240   33.1350 C.3   379  GLN379      0.0367
     32  CG        28.0990   76.4180   32.3250 C.3   379  GLN379      0.0905
     33  CD        28.6810   76.6830   30.9490 C.2   379  GLN379      0.2608
     34  OE1       28.0740   77.3790   30.1400 O.2   379  GLN379     -0.2717
     35  NE2       29.8420   76.1110   30.6690 N.am  379  GLN379     -0.0878
     36  N         30.9850   82.7710   32.5450 N.3   382  ARG382     -0.1245
     37  CA        30.7480   83.3210   31.2100 C.3   382  ARG382      0.1563
     38  C         30.5030   84.8180   31.3220 C.2   382  ARG382      0.2260
     39  O         30.7970   85.5550   30.3880 O.2   382  ARG382     -0.2867
     40  CB        29.5830   82.6240   30.5200 C.3   382  ARG382      0.0307
     41  CG        29.9660   81.2400   29.9930 C.3   382  ARG382      0.0489
     42  CD        28.7530   80.4500   29.5310 C.3   382  ARG382      0.2205
     43  NE        27.9910   81.0830   28.4530 N.pl3 382  ARG382     -0.0865
     44  CZ        27.9650   80.6940   27.1640 C.cat 382  ARG382      0.5346
     45  NH1       28.6680   79.6440   26.7130 N.pl3 382  ARG382      0.1354
     46  NH2       27.1950   81.3630   26.3050 N.pl3 382  ARG382      0.1354
     47  N         34.4020   77.4260   24.2950 N.3   411  GLN411     -0.1231
     48  CA        33.1540   76.7150   24.3400 C.3   411  GLN411      0.1698
     49  C         32.0620   77.4470   23.5670 C.2   411  GLN411      0.2592
     50  O         31.1250   76.8210   23.1060 O.2   411  GLN411     -0.2718
     51  CB        32.7070   76.4710   25.7780 C.3   411  GLN411      0.0381
     52  CG        31.4840   75.6000   25.8880 C.3   411  GLN411      0.0905
     53  CD        31.1300   75.2690   27.3150 C.2   411  GLN411      0.2608
     54  OE1       31.3770   76.0650   28.2390 O.2   411  GLN411     -0.2717
     55  NE2       30.5200   74.1090   27.5100 N.am  411  GLN411     -0.0878
     56  N         32.1680   78.7620   23.4430 N.am  412  HIS412     -0.1962
     57  CA        31.1590   79.5220   22.6600 C.3   412  HIS412      0.1787
     58  C         31.1380   79.1010   21.2010 C.2   412  HIS412      0.2620
     59  O         30.1410   79.3500   20.5070 O.2   412  HIS412     -0.2715
     60  CB        31.4220   81.0240   22.7160 C.3   412  HIS412      0.0785
     61  CG        31.0400   81.6550   24.0150 C.ar  412  HIS412      0.0821
     62  ND1       31.8010   81.5310   25.1530 N.ar  412  HIS412     -0.2267
     63  CD2       29.9820   82.4290   24.3540 C.ar  412  HIS412      0.1154
     64  CE1       31.2300   82.2010   26.1400 C.ar  412  HIS412      0.1986
     65  NE2       30.1260   82.7540   25.6840 N.ar  412  HIS412     -0.2212
     66  N         32.2080   78.4400   20.7530 N.am  413  PHE413     -0.1960
     67  CA        32.3610   78.0210   19.3320 C.3   413  PHE413      0.1771
     68  C         32.1100   76.5440   19.0800 C.2   413  PHE413      0.2619
     69  O         32.1650   76.0750   17.9230 O.2   413  PHE413     -0.2715
     70  CB        33.7350   78.4620   18.8360 C.3   413  PHE413      0.0574
     71  CG        33.9190   79.9540   18.9230 C.ar  413  PHE413     -0.0200
     72  CD1       33.5550   80.7620   17.8480 C.ar  413  PHE413     -0.0042
     73  CD2       34.3660   80.5620   20.0980 C.ar  413  PHE413     -0.0042
     74  CE1       33.6560   82.1550   17.9200 C.ar  413  PHE413     -0.0003
     75  CE2       34.4640   81.9620   20.1820 C.ar  413  PHE413     -0.0003
     76  CZ        34.0940   82.7590   19.0830 C.ar  413  PHE413     -0.0000
     77  N         31.7910   75.8140   20.1440 N.am  414  VAL414     -0.1963
     78  CA        31.5500   74.3720   20.0340 C.3   414  VAL414      0.1727
     79  C         30.2610   73.9150   20.7010 C.2   414  VAL414      0.2617
     80  O         30.0940   74.0570   21.9170 O.2   414  VAL414     -0.2715
     81  CB        32.7010   73.5820   20.7010 C.3   414  VAL414      0.0290
     82  CG1       32.4890   72.0650   20.4890 C.3   414  VAL414      0.0023
     83  CG2       34.0540   73.9930   20.1410 C.3   414  VAL414      0.0023
     84  N         29.3500   73.3540   19.9070 N.am  415  SER415     -0.1936
     85  CA        28.1010   72.8160   20.4180 C.3   415  SER415      0.2055
     86  C         28.3140   71.7830   21.5310 C.2   415  SER415      0.2643
     87  O         29.2320   70.9580   21.4530 O.2   415  SER415     -0.2714
     88  CB        27.3420   72.1080   19.2940 C.3   415  SER415      0.2130
     89  OG        26.1600   71.5110   19.7910 O.3   415  SER415     -0.2179
     90  N         27.4520   71.8100   22.5530 N.am  416  ASP416     -0.1971
     91  CA        27.4920   70.7890   23.6080 C.3   416  ASP416      0.1709
     92  C         27.2080   69.3970   23.0360 C.2   416  ASP416      0.2293
     93  O         27.5080   68.3840   23.6930 O.2   416  ASP416     -0.2864
     94  CB        26.4610   71.0670   24.7140 C.3   416  ASP416      0.1436
     95  CG        26.8630   72.2040   25.6380 C.2   416  ASP416      0.3671
     96  OD1       28.0490   72.5970   25.6760 O.co2 416  ASP416     -0.2456
     97  OD2       25.9630   72.6880   26.3520 O.co2 416  ASP416     -0.2456
@<TRIPOS>BOND
     1    18    17    2
     2    17    16    1
     3     1     2    1
     4    22    23    2
     5    22    21    1
     6     3     2    1
     7     3     4    2
     8     2     5    1
     9    20    21    1
    10    19    16    1
    11    16    15    1
    12    21    24    1
    13    26    24    1
    14     6     7    1
    15    24    25    1
    16     9     8    2
    17     8     7    1
    18     7    10    1
    19    10    11    1
    20    11    12    1
    21    72    74   ar
    22    72    71   ar
    23    74    76   ar
    24    69    68    2
    25    12    13    1
    26    70    71    1
    27    70    67    1
    28    13    14    1
    29    71    73   ar
    30    68    67    1
    31    68    77   am
    32    76    75   ar
    33    88    89    1
    34    88    85    1
    35    67    66    1
    36    84    85    1
    37    84    79   am
    38    78    77    1
    39    78    81    1
    40    78    79    1
    41    73    75   ar
    42    83    81    1
    43    85    86    1
    44    82    81    1
    45    59    58    2
    46    79    80    2
    47    66    58   am
    48    58    57    1
    49    87    86    2
    50    86    90   am
    51    90    91    1
    52    57    60    1
    53    57    56    1
    54    60    61    1
    55    92    91    1
    56    92    93    2
    57    50    49    2
    58    56    49   am
    59    49    48    1
    60    91    94    1
    61    61    63   ar
    62    61    62   ar
    63    47    48    1
    64    48    51    1
    65    63    65   ar
    66    94    95    1
    67    62    64   ar
    68    95    96   ar
    69    95    97   ar
    70    65    64   ar
    71    51    52    1
    72    52    53    1
    73    46    44    1
    74    45    44    1
    75    44    43    2
    76    53    55   am
    77    53    54    2
    78    43    42    1
    79    42    41    1
    80    41    40    1
    81    34    33    2
    82    39    38    2
    83    40    37    1
    84    35    33   am
    85    33    32    1
    86    37    38    1
    87    37    36    1
    88    32    31    1
    89    31    28    1
    90    30    29    2
    91    28    29    1
    92    28    27    1
