@<TRIPOS>MOLECULE
tmp/3ij7A01.pdb
 119 113 0 0 0
SMALL
GASTEIGER

@<TRIPOS>ATOM
      1  N          4.6540   39.7860   36.8760 N.3   317  ALA317     -0.1245
      2  CA         4.8600   40.7980   37.9140 C.3   317  ALA317      0.1562
      3  C          3.5750   41.4250   38.4820 C.2   317  ALA317      0.2260
      4  O          3.3170   41.3110   39.6810 O.2   317  ALA317     -0.2867
      5  CB         5.7920   41.8880   37.3890 C.3   317  ALA317      0.0290
      6  N          2.1620   40.1350   42.1170 N.3   321  LYS321     -0.1245
      7  CA         2.1720   40.9510   43.3210 C.3   321  LYS321      0.1561
      8  C          0.8170   40.9190   44.0210 C.2   321  LYS321      0.2260
      9  O          0.7430   40.9290   45.2520 O.2   321  LYS321     -0.2867
     10  CB         2.5620   42.3920   42.9760 C.3   321  LYS321      0.0271
     11  CG         4.0660   42.5960   42.8440 C.3   321  LYS321      0.0035
     12  CD         4.4150   44.0480   42.5200 C.3   321  LYS321      0.0206
     13  CE         4.1760   44.3610   41.0470 C.3   321  LYS321      0.1093
     14  NZ         4.4240   45.8100   40.7360 N.3   321  LYS321     -0.1314
     15  N         16.6520   34.9820   37.3480 N.3   342  ARG342     -0.1245
     16  CA        16.2030   35.1100   35.9760 C.3   342  ARG342      0.1563
     17  C         16.8940   34.0900   35.0860 C.2   342  ARG342      0.2260
     18  O         18.0670   33.7780   35.2760 O.2   342  ARG342     -0.2867
     19  CB        16.5080   36.5200   35.4630 C.3   342  ARG342      0.0307
     20  CG        15.3450   37.4910   35.5560 C.3   342  ARG342      0.0489
     21  CD        15.5040   38.6400   34.5700 C.3   342  ARG342      0.2205
     22  NE        16.1070   39.8180   35.1910 N.pl3 342  ARG342     -0.0865
     23  CZ        15.6170   40.4290   36.2650 C.cat 342  ARG342      0.5346
     24  NH1       14.5110   39.9730   36.8410 N.pl3 342  ARG342      0.1354
     25  NH2       16.2310   41.4970   36.7620 N.pl3 342  ARG342      0.1354
     26  N         18.7230   50.9830   44.7810 N.3   374  ASP374     -0.1225
     27  CA        17.2730   51.0490   44.9910 C.3   374  ASP374      0.1805
     28  C         16.7600   49.8300   45.7690 C.2   374  ASP374      0.2598
     29  O         15.5550   49.5960   45.8560 O.2   374  ASP374     -0.2718
     30  CB        16.5300   51.1770   43.6530 C.3   374  ASP374      0.1424
     31  CG        16.7770   50.0030   42.7170 C.2   374  ASP374      0.3668
     32  OD1       17.4700   49.0370   43.1050 O.co2 374  ASP374     -0.2456
     33  OD2       16.2640   50.0520   41.5790 O.co2 374  ASP374     -0.2456
     34  N         17.7020   49.0780   46.3340 N.am  375  THR375     -0.1939
     35  CA        17.4510   47.8810   47.1420 C.3   375  THR375      0.2028
     36  C         17.0930   46.6460   46.3050 C.2   375  THR375      0.2642
     37  O         16.8110   45.5890   46.8700 O.2   375  THR375     -0.2714
     38  CB        16.3570   48.1040   48.2210 C.3   375  THR375      0.1808
     39  OG1       15.0600   47.8980   47.6540 O.3   375  THR375     -0.2208
     40  CG2       16.4480   49.5080   48.7880 C.3   375  THR375      0.0379
     41  N         17.0900   46.7570   44.9770 N.am  376  THR376     -0.1950
     42  CA        16.8250   45.5690   44.1630 C.3   376  THR376      0.1897
     43  C         18.1110   44.7650   44.0180 C.2   376  THR376      0.2313
     44  O         19.1620   45.2120   44.4710 O.2   376  THR376     -0.2863
     45  CB        16.3010   45.9160   42.7490 C.3   376  THR376      0.1794
     46  OG1       17.2460   46.7530   42.0730 O.3   376  THR376     -0.2208
     47  CG2       14.9550   46.6170   42.8330 C.3   376  THR376      0.0378
     48  N         16.2540   37.8280   40.9630 N.3   382  VAL382     -0.1245
     49  CA        14.9940   38.5810   40.9680 C.3   382  VAL382      0.1561
     50  C         14.7150   39.2560   42.3150 C.2   382  VAL382      0.2260
     51  O         14.2860   40.4110   42.3590 O.2   382  VAL382     -0.2867
     52  CB        13.8000   37.6790   40.5870 C.3   382  VAL382      0.0252
     53  CG1       12.5300   38.5160   40.4710 C.3   382  VAL382      0.0019
     54  CG2       14.0840   36.9840   39.2590 C.3   382  VAL382      0.0019
     55  N         12.3250   41.4350   47.9820 N.3   386  ARG386     -0.1231
     56  CA        12.7950   42.8050   48.1490 C.3   386  ARG386      0.1694
     57  C         11.8750   43.7970   47.4420 C.2   386  ARG386      0.2592
     58  O         12.0450   45.0110   47.5770 O.2   386  ARG386     -0.2718
     59  CB        14.2310   42.9570   47.6390 C.3   386  ARG386      0.0321
     60  CG        15.2730   42.8390   48.7500 C.3   386  ARG386      0.0489
     61  CD        16.6450   42.4580   48.2080 C.3   386  ARG386      0.2205
     62  NE        17.6490   42.3780   49.2650 N.pl3 386  ARG386     -0.0865
     63  CZ        18.2880   43.4260   49.7720 C.cat 386  ARG386      0.5346
     64  NH1       18.0300   44.6490   49.3230 N.pl3 386  ARG386      0.1354
     65  NH2       19.1880   43.2510   50.7290 N.pl3 386  ARG386      0.1354
     66  N         10.9120   43.2890   46.6730 N.am  387  TRP387     -0.1962
     67  CA         9.9520   44.1750   46.0220 C.3   387  TRP387      0.1771
     68  C          9.1320   44.8760   47.0960 C.2   387  TRP387      0.2619
     69  O          8.5940   44.2150   47.9880 O.2   387  TRP387     -0.2715
     70  CB         9.0070   43.3850   45.1050 C.3   387  TRP387      0.0590
     71  CG         9.6650   42.7820   43.8920 C.ar  387  TRP387      0.0006
     72  CD1       11.0000   42.7640   43.6020 C.ar  387  TRP387      0.0946
     73  CD2        9.0120   42.0930   42.8160 C.ar  387  TRP387      0.0152
     74  NE1       11.2190   42.1050   42.4130 N.ar  387  TRP387     -0.2442
     75  CE2       10.0170   41.6840   41.9100 C.ar  387  TRP387      0.0810
     76  CE3        7.6740   41.7810   42.5310 C.ar  387  TRP387      0.0012
     77  CZ2        9.7260   40.9740   40.7340 C.ar  387  TRP387      0.0191
     78  CZ3        7.3850   41.0760   41.3590 C.ar  387  TRP387      0.0001
     79  CH2        8.4060   40.6830   40.4780 C.ar  387  TRP387      0.0015
     80  N          9.0380   46.2010   47.0300 N.am  388  ARG388     -0.1963
     81  CA         8.3010   46.9440   48.0510 C.3   388  ARG388      0.1729
     82  C          6.9220   46.3430   48.3190 C.2   388  ARG388      0.2616
     83  O          6.5450   46.1390   49.4710 O.2   388  ARG388     -0.2715
     84  CB         8.1360   48.4150   47.6530 C.3   388  ARG388      0.0348
     85  CG         7.4270   49.2480   48.7220 C.3   388  ARG388      0.0492
     86  CD         7.1860   50.6850   48.2630 C.3   388  ARG388      0.2205
     87  NE         6.2120   50.7320   47.1770 N.pl3 388  ARG388     -0.0865
     88  CZ         6.5190   50.9880   45.9100 C.cat 388  ARG388      0.5346
     89  NH1        7.7750   51.2250   45.5660 N.pl3 388  ARG388      0.1354
     90  NH2        5.5730   50.9730   44.9830 N.pl3 388  ARG388      0.1354
     91  N          6.1750   46.0700   47.2540 N.am  389  GLN389     -0.1977
     92  CA         4.8260   45.5180   47.3650 C.3   389  GLN389      0.1601
     93  C          4.8050   44.1750   48.1070 C.2   389  GLN389      0.2287
     94  O          3.8160   43.8330   48.7580 O.2   389  GLN389     -0.2864
     95  CB         4.2170   45.3390   45.9690 C.3   389  GLN389      0.0394
     96  CG         4.0350   46.6320   45.1900 C.3   389  GLN389      0.0908
     97  CD         5.2590   47.0040   44.3680 C.2   389  GLN389      0.2608
     98  OE1        6.3750   46.5720   44.6630 O.2   389  GLN389     -0.2717
     99  NE2        5.0540   47.8130   43.3330 N.am  389  GLN389     -0.0878
    100  N          7.5880   42.9850   50.2020 N.3   391  ARG391     -0.1245
    101  CA         8.2060   43.1790   51.5040 C.3   391  ARG391      0.1563
    102  C          7.2230   43.8100   52.4880 C.2   391  ARG391      0.2260
    103  O          7.1310   43.3920   53.6410 O.2   391  ARG391     -0.2867
    104  CB         9.4410   44.0690   51.3700 C.3   391  ARG391      0.0307
    105  CG        10.1450   44.3450   52.6860 C.3   391  ARG391      0.0489
    106  CD        10.3250   45.8370   52.9050 C.3   391  ARG391      0.2205
    107  NE        10.9590   46.4840   51.7590 N.pl3 391  ARG391     -0.0865
    108  CZ        10.6070   47.6750   51.2820 C.cat 391  ARG391      0.5346
    109  NH1        9.6190   48.3610   51.8490 N.pl3 391  ARG391      0.1354
    110  NH2       11.2540   48.1880   50.2460 N.pl3 391  ARG391      0.1354
    111  N         -0.5220   50.7710   38.4490 N.3   483  GLU483     -0.1245
    112  CA         0.6040   49.8390   38.4010 C.3   483  GLU483      0.1567
    113  C          0.2900   48.6090   39.2360 C.2   483  GLU483      0.2260
    114  O          0.4950   47.4760   38.8090 O.2   483  GLU483     -0.2867
    115  CB         1.8830   50.4950   38.9290 C.3   483  GLU483      0.0388
    116  CG         3.0900   49.5450   39.0080 C.3   483  GLU483      0.1160
    117  CD         2.9490   48.3090   38.1160 C.2   483  GLU483      0.3649
    118  OE1        2.7430   48.4690   36.8910 O.co2 483  GLU483     -0.2457
    119  OE2        3.0420   47.1730   38.6400 O.co2 483  GLU483     -0.2457
@<TRIPOS>BOND
     1    21    22    1
     2    21    20    1
     3    17    18    2
     4    17    16    1
     5    22    23    2
     6    19    20    1
     7    19    16    1
     8    16    15    1
     9    23    25    1
    10    23    24    1
    11     1     2    1
    12   118   117   ar
    13     5     2    1
    14     2     3    1
    15   117   119   ar
    16   117   116    1
    17   112   111    1
    18   112   115    1
    19   112   113    1
    20     3     4    2
    21   114   113    2
    22   115   116    1
    23    54    52    1
    24    53    52    1
    25    79    77   ar
    26    79    78   ar
    27    52    49    1
    28    77    75   ar
    29    14    13    1
    30    48    49    1
    31    49    50    1
    32    13    12    1
    33    78    76   ar
    34    33    31   ar
    35    75    74   ar
    36    75    73   ar
    37    46    45    1
    38     6     7    1
    39    50    51    2
    40    74    72   ar
    41    12    11    1
    42    76    73   ar
    43    31    32   ar
    44    31    30    1
    45    45    47    1
    46    45    42    1
    47    73    71   ar
    48    11    10    1
    49    10     7    1
    50     7     8    1
    51    99    97   am
    52    72    71   ar
    53    30    27    1
    54    71    70    1
    55    43    42    1
    56    43    44    2
    57     8     9    2
    58    42    41    1
    59    97    98    2
    60    97    96    1
    61    26    27    1
    62    41    36   am
    63    90    88    1
    64    27    28    1
    65    70    67    1
    66    96    95    1
    67    89    88    1
    68    28    29    2
    69    28    34   am
    70    88    87    2
    71    95    92    1
    72    67    66    1
    73    67    68    1
    74    36    37    2
    75    36    35    1
    76    34    35    1
    77    66    57   am
    78    80    68   am
    79    80    81    1
    80    68    69    2
    81    35    38    1
    82    87    86    1
    83    91    92    1
    84    91    82   am
    85    92    93    1
    86    57    58    2
    87    57    56    1
    88    59    56    1
    89    59    60    1
    90    84    81    1
    91    84    85    1
    92    39    38    1
    93    55    56    1
    94    81    82    1
    95    93    94    2
    96    61    60    1
    97    61    62    1
    98    38    40    1
    99    86    85    1
   100    82    83    2
   101    62    63    2
   102    64    63    1
   103    63    65    1
   104   100   101    1
   105   110   108    1
   106   108   107    2
   107   108   109    1
   108   104   101    1
   109   104   105    1
   110   101   102    1
   111   107   106    1
   112   102   103    2
   113   105   106    1
