@<TRIPOS>MOLECULE
tmp/3ij7A00.pdb
 181 179 0 0 0
SMALL
GASTEIGER

@<TRIPOS>ATOM
      1  N         19.5610   23.4020   37.7110 N.3    57  TRP57      -0.1227
      2  CA        19.1700   23.5820   39.1020 C.3    57  TRP57       0.1737
      3  C         18.7830   22.2490   39.7420 C.2    57  TRP57       0.2595
      4  O         19.0920   22.0020   40.9150 O.2    57  TRP57      -0.2718
      5  CB        17.9920   24.5620   39.2030 C.3    57  TRP57       0.0564
      6  CG        16.7420   24.1030   38.4890 C.ar   57  TRP57       0.0003
      7  CD1       16.3810   24.3910   37.2020 C.ar   57  TRP57       0.0946
      8  CD2       15.7050   23.2570   39.0170 C.ar   57  TRP57       0.0152
      9  NE1       15.1870   23.7750   36.8940 N.ar   57  TRP57      -0.2442
     10  CE2       14.7520   23.0720   37.9890 C.ar   57  TRP57       0.0810
     11  CE3       15.4930   22.6340   40.2570 C.ar   57  TRP57       0.0012
     12  CZ2       13.5980   22.2910   38.1620 C.ar   57  TRP57       0.0191
     13  CZ3       14.3430   21.8550   40.4300 C.ar   57  TRP57       0.0001
     14  CH2       13.4120   21.6920   39.3850 C.ar   57  TRP57       0.0015
     15  N         18.1430   21.3740   38.9650 N.am   58  TRP58      -0.1976
     16  CA        17.6750   20.0980   39.5060 C.3    58  TRP58       0.1640
     17  C         18.7940   19.1110   39.8300 C.2    58  TRP58       0.2290
     18  O         18.5160   18.0450   40.3830 O.2    58  TRP58      -0.2864
     19  CB        16.6350   19.4320   38.5850 C.3    58  TRP58       0.0576
     20  CG        16.8580   19.5340   37.1000 C.ar   58  TRP58       0.0006
     21  CD1       16.2170   20.3750   36.2320 C.ar   58  TRP58       0.0946
     22  CD2       17.6850   18.6820   36.2900 C.ar   58  TRP58       0.0152
     23  NE1       16.5860   20.0960   34.9380 N.ar   58  TRP58      -0.2442
     24  CE2       17.4850   19.0620   34.9430 C.ar   58  TRP58       0.0810
     25  CE3       18.5710   17.6320   36.5730 C.ar   58  TRP58       0.0012
     26  CZ2       18.1400   18.4310   33.8780 C.ar   58  TRP58       0.0191
     27  CZ3       19.2230   17.0020   35.5130 C.ar   58  TRP58       0.0001
     28  CH2       19.0030   17.4040   34.1820 C.ar   58  TRP58       0.0015
     29  N         18.9580   17.8810   43.3880 N.3    61  TYR61      -0.1227
     30  CA        17.9890   16.9490   43.9360 C.3    61  TYR61       0.1736
     31  C         18.3750   15.5090   43.6200 C.2    61  TYR61       0.2595
     32  O         17.5500   14.5920   43.6340 O.2    61  TYR61      -0.2718
     33  CB        16.5920   17.3020   43.4370 C.3    61  TYR61       0.0548
     34  CG        16.1050   18.5890   44.0700 C.ar   61  TYR61      -0.0200
     35  CD1       15.6390   18.6070   45.3870 C.ar   61  TYR61      -0.0009
     36  CD2       16.1560   19.7970   43.3720 C.ar   61  TYR61      -0.0009
     37  CE1       15.2350   19.8000   45.9940 C.ar   61  TYR61       0.0417
     38  CE2       15.7550   20.9910   43.9690 C.ar   61  TYR61       0.0417
     39  CZ        15.2960   20.9860   45.2790 C.ar   61  TYR61       0.1957
     40  OH        14.8810   22.1640   45.8630 O.3    61  TYR61      -0.2866
     41  N         19.6600   15.3360   43.3330 N.am   62  GLN62      -0.1979
     42  CA        20.2470   14.0340   43.0670 C.3    62  GLN62       0.1601
     43  C         21.4300   13.8290   44.0060 C.2    62  GLN62       0.2287
     44  O         22.5890   14.0250   43.6300 O.2    62  GLN62      -0.2864
     45  CB        20.6830   13.9310   41.5990 C.3    62  GLN62       0.0394
     46  CG        19.5010   13.9260   40.6180 C.3    62  GLN62       0.0908
     47  CD        19.8700   13.4080   39.2310 C.2    62  GLN62       0.2608
     48  OE1       20.6270   12.4510   39.0940 O.2    62  GLN62      -0.2717
     49  NE2       19.3260   14.0430   38.1970 N.am   62  GLN62      -0.0878
     50  N         15.3710    9.6590   47.9490 N.3   100  HIS100     -0.1241
     51  CA        16.1840    9.0100   46.9340 C.3   100  HIS100      0.1621
     52  C         17.5910    9.5800   46.8570 C.2   100  HIS100      0.2264
     53  O         17.9300   10.5810   47.4890 O.2   100  HIS100     -0.2867
     54  CB        15.5240    9.2570   45.5780 C.3   100  HIS100      0.0745
     55  CG        15.2800   10.7120   45.2980 C.ar  100  HIS100      0.0817
     56  ND1       14.0950   11.3450   45.6110 N.ar  100  HIS100     -0.2268
     57  CD2       16.0920   11.6710   44.7880 C.ar  100  HIS100      0.1154
     58  CE1       14.1860   12.6280   45.3060 C.ar  100  HIS100      0.1986
     59  NE2       15.3890   12.8520   44.8060 N.ar  100  HIS100     -0.2212
     60  N         19.9540    9.7540   39.8640 N.3   103  GLY103     -0.1210
     61  CA        19.3410    8.9650   38.8080 C.3   103  GLY103      0.1956
     62  C         20.1020    7.6690   38.6080 C.2   103  GLY103      0.2612
     63  O         21.3280    7.6530   38.7060 O.2   103  GLY103     -0.2717
     64  N         19.3850    6.5860   38.3160 N.am  104  ASN104     -0.1960
     65  CA        20.0130    5.2830   38.1300 C.3   104  ASN104      0.1819
     66  C         20.8340    5.2220   36.8490 C.2   104  ASN104      0.2621
     67  O         21.6940    4.3580   36.7070 O.2   104  ASN104     -0.2715
     68  CB        18.9530    4.1670   38.1390 C.3   104  ASN104      0.1195
     69  CG        18.1360    4.1100   36.8560 C.2   104  ASN104      0.2630
     70  OD1       17.2350    4.9200   36.6380 O.2   104  ASN104     -0.2716
     71  ND2       18.4420    3.1360   36.0060 N.am  104  ASN104     -0.0877
     72  N         20.5900    6.1500   35.9320 N.am  105  ALA105     -0.1963
     73  CA        21.3070    6.1700   34.6610 C.3   105  ALA105      0.1728
     74  C         22.5690    7.0350   34.7190 C.2   105  ALA105      0.2616
     75  O         23.3530    7.0480   33.7700 O.2   105  ALA105     -0.2715
     76  CB        20.3770    6.6730   33.5540 C.3   105  ALA105      0.0334
     77  N         22.7700    7.7550   35.8210 N.am  106  VAL106     -0.1977
     78  CA        23.9470    8.6150   35.9580 C.3   106  VAL106      0.1596
     79  C         25.2390    7.7940   35.9390 C.2   106  VAL106      0.2287
     80  O         25.3130    6.7350   36.5490 O.2   106  VAL106     -0.2864
     81  CB        23.8830    9.4360   37.2630 C.3   106  VAL106      0.0276
     82  CG1       25.1510   10.2650   37.4270 C.3   106  VAL106      0.0022
     83  CG2       22.6580   10.3410   37.2370 C.3   106  VAL106      0.0022
     84  N         11.1430    7.3920   41.3240 N.3   161  LEU161     -0.1231
     85  CA        10.5210    8.5780   40.7600 C.3   161  LEU161      0.1693
     86  C         11.3670    9.0580   39.5830 C.2   161  LEU161      0.2593
     87  O         12.4770    9.5460   39.7750 O.2   161  LEU161     -0.2718
     88  CB        10.4260    9.6780   41.8200 C.3   161  LEU161      0.0284
     89  CG        10.0510   11.0680   41.3030 C.3   161  LEU161      0.0019
     90  CD1        8.6710   11.0270   40.6410 C.3   161  LEU161      0.0001
     91  CD2       10.0750   12.0610   42.4560 C.3   161  LEU161      0.0001
     92  N         10.8470    8.8880   38.3710 N.am  162  THR162     -0.1939
     93  CA        11.5610    9.2480   37.1480 C.3   162  THR162      0.2028
     94  C         13.0060    8.7450   37.1720 C.2   162  THR162      0.2643
     95  O         13.9390    9.4780   36.8280 O.2   162  THR162     -0.2714
     96  CB        11.5410   10.7800   36.8770 C.3   162  THR162      0.1808
     97  OG1       12.1890   11.4820   37.9430 O.3   162  THR162     -0.2208
     98  CG2       10.1070   11.2670   36.7450 C.3   162  THR162      0.0379
     99  N         13.1800    7.4870   37.5850 N.am  163  GLY163     -0.1939
    100  CA        14.5010    6.8720   37.6260 C.3   163  GLY163      0.2014
    101  C         15.3900    7.1240   38.8380 C.2   163  GLY163      0.2638
    102  O         16.4860    6.5620   38.9360 O.2   163  GLY163     -0.2714
    103  N         14.9330    7.9580   39.7640 N.am  164  LEU164     -0.1977
    104  CA        15.7190    8.2780   40.9550 C.3   164  LEU164      0.1596
    105  C         15.8100    7.0850   41.8980 C.2   164  LEU164      0.2287
    106  O         14.7870    6.6090   42.3930 O.2   164  LEU164     -0.2864
    107  CB        15.0840    9.4570   41.6930 C.3   164  LEU164      0.0297
    108  CG        15.5180   10.8950   41.3980 C.3   164  LEU164      0.0022
    109  CD1       16.4920   10.9540   40.2350 C.3   164  LEU164      0.0001
    110  CD2       14.2780   11.7300   41.1160 C.3   164  LEU164      0.0001
    111  N         12.0800   20.9260   54.9810 N.3   194  ARG194     -0.1245
    112  CA        11.1260   20.6950   53.9280 C.3   194  ARG194      0.1563
    113  C         11.3990   19.2750   53.4500 C.2   194  ARG194      0.2260
    114  O         12.5160   18.9900   53.0150 O.2   194  ARG194     -0.2867
    115  CB        11.3430   21.6810   52.7760 C.3   194  ARG194      0.0307
    116  CG        10.4050   21.4730   51.5790 C.3   194  ARG194      0.0489
    117  CD        11.0960   21.8080   50.2580 C.3   194  ARG194      0.2205
    118  NE        10.2050   21.6390   49.1120 N.pl3 194  ARG194     -0.0865
    119  CZ        10.4780   20.8980   48.0420 C.cat 194  ARG194      0.5346
    120  NH1       11.6290   20.2390   47.9450 N.pl3 194  ARG194      0.1354
    121  NH2        9.5910   20.8190   47.0600 N.pl3 194  ARG194      0.1354
    122  N         11.3100   16.8260   50.8780 N.3   196  ASP196     -0.1225
    123  CA        11.1200   16.6680   49.4510 C.3   196  ASP196      0.1805
    124  C         10.5400   15.2980   49.1190 C.2   196  ASP196      0.2597
    125  O         10.8880   14.2970   49.7500 O.2   196  ASP196     -0.2718
    126  CB        12.4650   16.8480   48.7450 C.3   196  ASP196      0.1424
    127  CG        12.4130   16.4480   47.2860 C.2   196  ASP196      0.3668
    128  OD1       12.3870   17.3480   46.4190 O.co2 196  ASP196     -0.2456
    129  OD2       12.3940   15.2300   47.0110 O.co2 196  ASP196     -0.2456
    130  N          9.6400   15.2730   48.1380 N.am  197  ALA197     -0.1979
    131  CA         9.0150   14.0400   47.6550 C.3   197  ALA197      0.1597
    132  C          8.3850   13.2140   48.7800 C.2   197  ALA197      0.2287
    133  O          8.5300   11.9920   48.8070 O.2   197  ALA197     -0.2864
    134  CB        10.0510   13.1960   46.9070 C.3   197  ALA197      0.0319
    135  N          6.1820   10.3190   47.9520 N.3   200  HIS200     -0.1241
    136  CA         6.8970    9.1250   47.5120 C.3   200  HIS200      0.1621
    137  C          7.5150    8.3520   48.6740 C.2   200  HIS200      0.2264
    138  O          8.3270    7.4370   48.4830 O.2   200  HIS200     -0.2867
    139  CB         7.9400    9.5420   46.4780 C.3   200  HIS200      0.0745
    140  CG         7.3340   10.2020   45.2810 C.ar  200  HIS200      0.0817
    141  ND1        6.7200    9.4880   44.2730 N.ar  200  HIS200     -0.2268
    142  CD2        7.1740   11.5100   44.9660 C.ar  200  HIS200      0.1154
    143  CE1        6.2090   10.3260   43.3890 C.ar  200  HIS200      0.1986
    144  NE2        6.4690   11.5590   43.7870 N.ar  200  HIS200     -0.2212
    145  N          6.6300   17.9080   51.3770 N.3   232  GLU232     -0.1245
    146  CA         6.2450   18.2290   50.0190 C.3   232  GLU232      0.1567
    147  C          5.3790   17.1240   49.4640 C.2   232  GLU232      0.2260
    148  O          5.8630   16.0520   49.0940 O.2   232  GLU232     -0.2867
    149  CB         7.4590   18.4080   49.1000 C.3   232  GLU232      0.0388
    150  CG         7.0640   18.9360   47.7200 C.3   232  GLU232      0.1160
    151  CD         7.9630   18.4470   46.5920 C.2   232  GLU232      0.3649
    152  OE1        8.8700   17.6260   46.8390 O.co2 232  GLU232     -0.2457
    153  OE2        7.7570   18.8930   45.4470 O.co2 232  GLU232     -0.2457
    154  N          9.8720   26.6490   43.4920 N.3   298  HIS298     -0.1226
    155  CA        10.9900   26.4630   42.5730 C.3   298  HIS298      0.1752
    156  C         10.6580   25.5220   41.4260 C.2   298  HIS298      0.2596
    157  O         11.2360   25.6360   40.3470 O.2   298  HIS298     -0.2718
    158  CB        12.2220   25.9530   43.3330 C.3   298  HIS298      0.0759
    159  CG        12.1640   24.4990   43.6780 C.ar  298  HIS298      0.0818
    160  ND1       11.5780   24.0320   44.8350 N.ar  298  HIS298     -0.2268
    161  CD2       12.6400   23.4090   43.0300 C.ar  298  HIS298      0.1154
    162  CE1       11.6950   22.7150   44.8840 C.ar  298  HIS298      0.1986
    163  NE2       12.3350   22.3120   43.8010 N.ar  298  HIS298     -0.2212
    164  N          9.7250   24.6060   41.6550 N.am  299  ASP299     -0.1974
    165  CA         9.3430   23.6250   40.6470 C.3   299  ASP299      0.1709
    166  C          8.3180   24.1670   39.6450 C.2   299  ASP299      0.2293
    167  O          8.6050   24.2880   38.4470 O.2   299  ASP299     -0.2864
    168  CB         8.7340   22.3860   41.3200 C.3   299  ASP299      0.1436
    169  CG         9.7390   21.2750   41.5470 C.2   299  ASP299      0.3671
    170  OD1       10.6220   21.0640   40.6890 O.co2 299  ASP299     -0.2456
    171  OD2        9.6380   20.5990   42.5960 O.co2 299  ASP299     -0.2456
    172  N          7.7150   22.6430   36.2110 N.3   304  HIS304     -0.1241
    173  CA         8.2080   21.3510   36.6850 C.3   304  HIS304      0.1621
    174  C          7.3580   20.8030   37.8290 C.2   304  HIS304      0.2264
    175  O          7.6270   19.7130   38.3360 O.2   304  HIS304     -0.2867
    176  CB         9.6610   21.4760   37.1510 C.3   304  HIS304      0.0745
    177  CG        10.6650   21.1440   36.0920 C.ar  304  HIS304      0.0817
    178  ND1       11.5140   20.0620   36.1850 N.ar  304  HIS304     -0.2268
    179  CD2       10.9620   21.7560   34.9210 C.ar  304  HIS304      0.1154
    180  CE1       12.2930   20.0240   35.1180 C.ar  304  HIS304      0.1986
    181  NE2       11.9780   21.0400   34.3350 N.ar  304  HIS304     -0.2212
@<TRIPOS>BOND
     1    76    73    1
     2    75    74    2
     3    26    28   ar
     4    26    24   ar
     5    28    27   ar
     6   181   179   ar
     7   181   180   ar
     8    73    74    1
     9    73    72    1
    10    74    77   am
    11   179   177   ar
    12    23    24   ar
    13    23    21   ar
    14    24    22   ar
    15   180   178   ar
    16    27    25   ar
    17    77    78    1
    18    72    66   am
    19    79    78    1
    20    79    80    2
    21    78    81    1
    22    71    69   am
    23   177   178   ar
    24   177   176    1
    25   172   173    1
    26    21    20   ar
    27    22    25   ar
    28    22    20   ar
    29    70    69    2
    30   173   176    1
    31   173   174    1
    32    67    66    2
    33    98    96    1
    34    95    94    2
    35    66    65    1
    36    69    68    1
    37    96    93    1
    38    96    97    1
    39     9     7   ar
    40     9    10   ar
    41    20    19    1
    42    93    94    1
    43    93    92    1
    44    94    99   am
    45     7     6   ar
    46    83    81    1
    47    81    82    1
    48    99   100    1
    49   100   101    1
    50     1     2    1
    51   174   175    2
    52    10    12   ar
    53    10     8   ar
    54    65    68    1
    55    65    64    1
    56    12    14   ar
    57    49    47   am
    58    64    62   am
    59    92    86   am
    60   167   166    2
    61     6     8   ar
    62     6     5    1
    63    19    16    1
    64    62    63    2
    65    62    61    1
    66    61    60    1
    67   101   102    2
    68   101   103   am
    69    15    16    1
    70    15     3   am
    71     8    11   ar
    72    48    47    2
    73     2     5    1
    74     2     3    1
    75    47    46    1
    76    14    13   ar
    77    16    17    1
    78    86    87    2
    79    86    85    1
    80   166   165    1
    81     3     4    2
    82   103   104    1
    83    17    18    2
    84   109   108    1
    85    11    13   ar
    86   157   156    2
    87    46    45    1
    88    90    89    1
    89   165   168    1
    90   165   164    1
    91   170   169   ar
    92    85    84    1
    93    85    88    1
    94   104   107    1
    95   104   105    1
    96   110   108    1
    97    89    88    1
    98    89    91    1
    99   168   169    1
   100   108   107    1
   101   156   164   am
   102   156   155    1
   103   169   171   ar
   104    45    42    1
   105   105   106    2
   106   155   158    1
   107   155   154    1
   108   161   159   ar
   109   161   163   ar
   110    42    41    1
   111    42    43    1
   112   158   159    1
   113    41    31   am
   114    36    38   ar
   115    36    34   ar
   116    29    30    1
   117   143   144   ar
   118   143   141   ar
   119    33    30    1
   120    33    34    1
   121    31    32    2
   122    31    30    1
   123    44    43    2
   124   159   160   ar
   125   144   142   ar
   126   163   162   ar
   127    38    39   ar
   128    34    35   ar
   129   141   140   ar
   130    57    59   ar
   131    57    55   ar
   132    59    58   ar
   133   160   162   ar
   134   142   140   ar
   135    39    40    1
   136    39    37   ar
   137   140   139    1
   138    55    54    1
   139    55    56   ar
   140    58    56   ar
   141    35    37   ar
   142   153   151   ar
   143    54    51    1
   144   128   127   ar
   145   139   136    1
   146   151   152   ar
   147   151   150    1
   148    52    51    1
   149    52    53    2
   150   134   131    1
   151    51    50    1
   152   129   127   ar
   153   121   119    1
   154   127   126    1
   155   136   135    1
   156   136   137    1
   157   131   130    1
   158   131   132    1
   159   150   149    1
   160   120   119    1
   161   119   118    2
   162   130   124   am
   163   138   137    2
   164   126   123    1
   165   132   133    2
   166   148   147    2
   167   149   146    1
   168   118   117    1
   169   124   123    1
   170   124   125    2
   171   123   122    1
   172   147   146    1
   173   146   145    1
   174   117   116    1
   175   116   115    1
   176   115   112    1
   177   114   113    2
   178   113   112    1
   179   112   111    1
