@<TRIPOS>MOLECULE
tmp/3ij8A00.pdb
 102 96 0 0 0
SMALL
GASTEIGER

@<TRIPOS>ATOM
      1  N          0.0880    6.6560   39.0980 N.3   150  TYR150     -0.1241
      2  CA        -0.1770    7.2960   40.3800 C.3   150  TYR150      0.1605
      3  C         -1.4640    6.7860   41.0210 C.2   150  TYR150      0.2264
      4  O         -1.8090    7.1880   42.1320 O.2   150  TYR150     -0.2867
      5  CB        -0.2010    8.8160   40.2110 C.3   150  TYR150      0.0534
      6  CG         1.1940    9.4020   40.1940 C.ar  150  TYR150     -0.0201
      7  CD1        1.9780    9.3460   39.0410 C.ar  150  TYR150     -0.0009
      8  CD2        1.7530    9.9580   41.3450 C.ar  150  TYR150     -0.0009
      9  CE1        3.2870    9.8220   39.0360 C.ar  150  TYR150      0.0417
     10  CE2        3.0620   10.4370   41.3510 C.ar  150  TYR150      0.0417
     11  CZ         3.8220   10.3630   40.1940 C.ar  150  TYR150      0.1957
     12  OH         5.1200   10.8190   40.1960 O.3   150  TYR150     -0.2866
     13  N         11.1260    7.6310   41.3240 N.3   161  LEU161     -0.1245
     14  CA        10.5270    8.8170   40.7380 C.3   161  LEU161      0.1561
     15  C         11.4060    9.2690   39.5710 C.2   161  LEU161      0.2260
     16  O         12.5200    9.7400   39.7820 O.2   161  LEU161     -0.2867
     17  CB        10.4340    9.9240   41.7920 C.3   161  LEU161      0.0270
     18  CG        10.1060   11.3220   41.2680 C.3   161  LEU161      0.0019
     19  CD1        8.7140   11.3230   40.6410 C.3   161  LEU161      0.0001
     20  CD2       10.1910   12.3220   42.4070 C.3   161  LEU161      0.0001
     21  N         11.9530   21.2210   54.8990 N.3   194  ARG194     -0.1245
     22  CA        11.0140   20.9520   53.8360 C.3   194  ARG194      0.1563
     23  C         11.3280   19.5290   53.3940 C.2   194  ARG194      0.2260
     24  O         12.4740   19.2520   53.0250 O.2   194  ARG194     -0.2867
     25  CB        11.2270   21.8930   52.6440 C.3   194  ARG194      0.0307
     26  CG        10.4660   21.4550   51.3870 C.3   194  ARG194      0.0489
     27  CD        11.1070   21.9920   50.1120 C.3   194  ARG194      0.2205
     28  NE        10.2450   21.7830   48.9540 N.pl3 194  ARG194     -0.0865
     29  CZ        10.5380   20.9930   47.9290 C.cat 194  ARG194      0.5346
     30  NH1       11.6810   20.3190   47.8990 N.pl3 194  ARG194      0.1354
     31  NH2        9.6770   20.8720   46.9270 N.pl3 194  ARG194      0.1354
     32  N         11.2920   17.0470   50.8020 N.3   196  ASP196     -0.1225
     33  CA        11.1180   16.8890   49.3760 C.3   196  ASP196      0.1805
     34  C         10.5300   15.5230   49.0290 C.2   196  ASP196      0.2597
     35  O         10.8550   14.5200   49.6630 O.2   196  ASP196     -0.2718
     36  CB        12.4780   17.0610   48.7100 C.3   196  ASP196      0.1424
     37  CG        12.4430   16.7530   47.2550 C.2   196  ASP196      0.3668
     38  OD1       12.2680   17.6990   46.4640 O.co2 196  ASP196     -0.2456
     39  OD2       12.5910   15.5650   46.9050 O.co2 196  ASP196     -0.2456
     40  N          9.6470   15.5080   48.0310 N.am  197  ALA197     -0.1979
     41  CA         9.0270   14.2810   47.5200 C.3   197  ALA197      0.1597
     42  C          8.3600   13.4490   48.6170 C.2   197  ALA197      0.2287
     43  O          8.4780   12.2220   48.6310 O.2   197  ALA197     -0.2864
     44  CB        10.0870   13.4420   46.7880 C.3   197  ALA197      0.0319
     45  N          5.2720   12.6940   48.9710 N.3   199  LYS199     -0.1231
     46  CA         4.2540   11.7760   48.4580 C.3   199  LYS199      0.1693
     47  C          4.8740   10.4280   48.1040 C.2   199  LYS199      0.2592
     48  O          4.1920    9.3970   48.0830 O.2   199  LYS199     -0.2718
     49  CB         3.5830   12.3560   47.2090 C.3   199  LYS199      0.0285
     50  CG         2.5200   11.4390   46.6000 C.3   199  LYS199      0.0035
     51  CD         2.1380   11.8580   45.1850 C.3   199  LYS199      0.0206
     52  CE         1.1160   12.9730   45.2030 C.3   199  LYS199      0.1093
     53  NZ         0.7620   13.3910   43.8170 N.3   199  LYS199     -0.1314
     54  N          6.1800   10.4460   47.8440 N.am  200  HIS200     -0.1976
     55  CA         6.9100    9.2520   47.4470 C.3   200  HIS200      0.1656
     56  C          7.4760    8.4960   48.6330 C.2   200  HIS200      0.2291
     57  O          8.2450    7.5450   48.4700 O.2   200  HIS200     -0.2864
     58  CB         7.9930    9.6600   46.4600 C.3   200  HIS200      0.0771
     59  CG         7.4330   10.3190   45.2440 C.ar  200  HIS200      0.0820
     60  ND1        6.7260    9.6180   44.2910 N.ar  200  HIS200     -0.2267
     61  CD2        7.3680   11.6210   44.8810 C.ar  200  HIS200      0.1154
     62  CE1        6.2480   10.4620   43.3940 C.ar  200  HIS200      0.1986
     63  NE2        6.6230   11.6830   43.7290 N.ar  200  HIS200     -0.2212
     64  N          6.4970   18.1580   51.2160 N.3   232  GLU232     -0.1245
     65  CA         6.1210   18.4610   49.8470 C.3   232  GLU232      0.1567
     66  C          5.2560   17.3530   49.2840 C.2   232  GLU232      0.2260
     67  O          5.7480   16.2900   48.8910 O.2   232  GLU232     -0.2867
     68  CB         7.3400   18.6370   48.9360 C.3   232  GLU232      0.0388
     69  CG         6.9530   19.1620   47.5470 C.3   232  GLU232      0.1160
     70  CD         7.7010   18.4970   46.4030 C.2   232  GLU232      0.3649
     71  OE1        8.5200   17.5870   46.6470 O.co2 232  GLU232     -0.2457
     72  OE2        7.4620   18.8890   45.2410 O.co2 232  GLU232     -0.2457
     73  N          2.1550   16.9840   46.4980 N.3   234  ILE234     -0.1245
     74  CA         1.3270   17.6070   45.4820 C.3   234  ILE234      0.1561
     75  C          0.0120   16.8590   45.3610 C.2   234  ILE234      0.2260
     76  O         -0.0610   15.8020   44.7370 O.2   234  ILE234     -0.2867
     77  CB         2.0240   17.6210   44.1110 C.3   234  ILE234      0.0252
     78  CG1        3.3000   18.4590   44.1930 C.3   234  ILE234      0.0019
     79  CG2        1.0890   18.1950   43.0570 C.3   234  ILE234      0.0019
     80  CD1        4.2240   18.2550   43.0300 C.3   234  ILE234      0.0001
     81  N          9.6650   24.9170   41.5400 N.3   299  ASP299     -0.1239
     82  CA         9.2880   23.9470   40.5190 C.3   299  ASP299      0.1674
     83  C          8.2500   24.4920   39.5450 C.2   299  ASP299      0.2266
     84  O          8.4910   24.5620   38.3380 O.2   299  ASP299     -0.2867
     85  CB         8.6880   22.6990   41.1670 C.3   299  ASP299      0.1410
     86  CG         9.7050   21.6220   41.4210 C.2   299  ASP299      0.3668
     87  OD1       10.5950   21.4180   40.5710 O.co2 299  ASP299     -0.2456
     88  OD2        9.6080   20.9720   42.4800 O.co2 299  ASP299     -0.2456
     89  N          7.5380   23.1930   35.9940 N.3   304  HIS304     -0.1226
     90  CA         8.1210   21.9270   36.4190 C.3   304  HIS304      0.1752
     91  C          7.3260   21.3020   37.5630 C.2   304  HIS304      0.2596
     92  O          7.7080   20.2570   38.0890 O.2   304  HIS304     -0.2718
     93  CB         9.5700   22.1420   36.8650 C.3   304  HIS304      0.0759
     94  CG        10.5830   21.5100   35.9620 C.ar  304  HIS304      0.0818
     95  ND1       11.1720   20.2950   36.2400 N.ar  304  HIS304     -0.2268
     96  CD2       11.1160   21.9270   34.7890 C.ar  304  HIS304      0.1154
     97  CE1       12.0240   19.9910   35.2780 C.ar  304  HIS304      0.1986
     98  NE2       12.0100   20.9650   34.3850 N.ar  304  HIS304     -0.2212
     99  N          6.2230   21.9400   37.9460 N.am  305  GLY305     -0.1957
    100  CA         5.4170   21.4160   39.0340 C.3   305  GLY305      0.1869
    101  C          3.9170   21.5160   38.8250 C.2   305  GLY305      0.2309
    102  O          3.4460   21.7590   37.7140 O.2   305  GLY305     -0.2863
@<TRIPOS>BOND
     1    98    96   ar
     2    98    97   ar
     3    96    94   ar
     4    97    95   ar
     5    94    95   ar
     6    94    93    1
     7    89    90    1
     8    90    93    1
     9    90    91    1
    10    91    99   am
    11    91    92    2
    12   102   101    2
    13    99   100    1
    14    84    83    2
    15   101   100    1
    16     9     7   ar
    17     9    11   ar
    18     7     6   ar
    19     1     2    1
    20    83    82    1
    21    15    16    2
    22    15    14    1
    23     6     5    1
    24     6     8   ar
    25    11    12    1
    26    11    10   ar
    27     5     2    1
    28     2     3    1
    29    82    85    1
    30    82    81    1
    31    87    86   ar
    32    19    18    1
    33    14    13    1
    34    14    17    1
    35     3     4    2
    36    85    86    1
    37    18    17    1
    38    18    20    1
    39     8    10   ar
    40    86    88   ar
    41    80    78    1
    42    79    77    1
    43    62    63   ar
    44    62    60   ar
    45    63    61   ar
    46    53    52    1
    47    77    78    1
    48    77    74    1
    49    60    59   ar
    50    76    75    2
    51    61    59   ar
    52    51    52    1
    53    51    50    1
    54    72    70   ar
    55    59    58    1
    56    75    74    1
    57    74    73    1
    58    70    71   ar
    59    70    69    1
    60    58    55    1
    61    38    37   ar
    62    50    49    1
    63    44    41    1
    64    39    37   ar
    65    31    29    1
    66    49    46    1
    67    37    36    1
    68    55    54    1
    69    55    56    1
    70    41    40    1
    71    41    42    1
    72    69    68    1
    73    54    47   am
    74    30    29    1
    75    29    28    2
    76    40    34   am
    77    48    47    2
    78    47    46    1
    79    46    45    1
    80    57    56    2
    81    42    43    2
    82    36    33    1
    83    67    66    2
    84    68    65    1
    85    28    27    1
    86    34    33    1
    87    34    35    2
    88    66    65    1
    89    33    32    1
    90    65    64    1
    91    27    26    1
    92    26    25    1
    93    25    22    1
    94    24    23    2
    95    23    22    1
    96    22    21    1
