@<TRIPOS>MOLECULE
tmp/3ij8A03.pdb
 136 134 0 0 0
SMALL
GASTEIGER

@<TRIPOS>ATOM
      1  N         19.4430   23.6220   37.7320 N.3    57  TRP57      -0.1227
      2  CA        19.0360   23.7620   39.1160 C.3    57  TRP57       0.1737
      3  C         18.6500   22.4090   39.7070 C.2    57  TRP57       0.2595
      4  O         18.9050   22.1500   40.8840 O.2    57  TRP57      -0.2718
      5  CB        17.8470   24.7240   39.2310 C.3    57  TRP57       0.0564
      6  CG        16.6380   24.2720   38.4660 C.ar   57  TRP57       0.0003
      7  CD1       16.3300   24.5710   37.1690 C.ar   57  TRP57       0.0946
      8  CD2       15.5920   23.4100   38.9380 C.ar   57  TRP57       0.0152
      9  NE1       15.1600   23.9480   36.8030 N.ar   57  TRP57      -0.2442
     10  CE2       14.6860   23.2290   37.8690 C.ar   57  TRP57       0.0810
     11  CE3       15.3330   22.7710   40.1600 C.ar   57  TRP57       0.0012
     12  CZ2       13.5370   22.4350   37.9840 C.ar   57  TRP57       0.0191
     13  CZ3       14.1880   21.9800   40.2750 C.ar   57  TRP57       0.0001
     14  CH2       13.3060   21.8200   39.1910 C.ar   57  TRP57       0.0015
     15  N         18.0830   21.5300   38.8830 N.am   58  TRP58      -0.1976
     16  CA        17.6140   20.2460   39.3940 C.3    58  TRP58       0.1640
     17  C         18.7320   19.2680   39.7490 C.2    58  TRP58       0.2290
     18  O         18.4460   18.2000   40.2880 O.2    58  TRP58      -0.2864
     19  CB        16.5940   19.5940   38.4410 C.3    58  TRP58       0.0576
     20  CG        16.8900   19.6600   36.9760 C.ar   58  TRP58       0.0006
     21  CD1       16.3250   20.5060   36.0640 C.ar   58  TRP58       0.0946
     22  CD2       17.7450   18.7830   36.2340 C.ar   58  TRP58       0.0152
     23  NE1       16.7710   20.2080   34.7990 N.ar   58  TRP58      -0.2442
     24  CE2       17.6430   19.1540   34.8730 C.ar   58  TRP58       0.0810
     25  CE3       18.5860   17.7160   36.5850 C.ar   58  TRP58       0.0012
     26  CZ2       18.3520   18.4960   33.8600 C.ar   58  TRP58       0.0191
     27  CZ3       19.2920   17.0600   35.5760 C.ar   58  TRP58       0.0001
     28  CH2       19.1680   17.4550   34.2300 C.ar   58  TRP58       0.0015
     29  N         18.8310   18.0940   43.3620 N.3    61  TYR61      -0.1227
     30  CA        17.8540   17.1550   43.8870 C.3    61  TYR61       0.1736
     31  C         18.2640   15.7180   43.5900 C.2    61  TYR61       0.2595
     32  O         17.4620   14.7800   43.6370 O.2    61  TYR61      -0.2718
     33  CB        16.4770   17.5020   43.3350 C.3    61  TYR61       0.0548
     34  CG        15.9590   18.7770   43.9630 C.ar   61  TYR61      -0.0200
     35  CD1       15.4720   18.7780   45.2710 C.ar   61  TYR61      -0.0009
     36  CD2       16.0410   19.9980   43.2900 C.ar   61  TYR61      -0.0009
     37  CE1       15.0880   19.9610   45.8970 C.ar   61  TYR61       0.0417
     38  CE2       15.6600   21.1850   43.9060 C.ar   61  TYR61       0.0417
     39  CZ        15.1880   21.1600   45.2110 C.ar   61  TYR61       0.1957
     40  OH        14.8390   22.3400   45.8300 O.3    61  TYR61      -0.2866
     41  N         19.5500   15.5680   43.2920 N.am   62  GLN62      -0.1979
     42  CA        20.1640   14.2770   43.0260 C.3    62  GLN62       0.1601
     43  C         21.3540   14.0890   43.9580 C.2    62  GLN62       0.2287
     44  O         22.5040   14.3400   43.5940 O.2    62  GLN62      -0.2864
     45  CB        20.5950   14.2000   41.5610 C.3    62  GLN62       0.0394
     46  CG        19.4060   14.1940   40.6110 C.3    62  GLN62       0.0908
     47  CD        19.7350   13.6410   39.2430 C.2    62  GLN62       0.2608
     48  OE1       20.4180   12.6280   39.1170 O.2    62  GLN62      -0.2717
     49  NE2       19.2450   14.3090   38.2050 N.am   62  GLN62      -0.0878
     50  N         15.3630    9.8550   47.9400 N.3   100  HIS100     -0.1241
     51  CA        16.1790    9.2170   46.9250 C.3   100  HIS100      0.1621
     52  C         17.5970    9.7580   46.8670 C.2   100  HIS100      0.2264
     53  O         17.9640   10.7280   47.5280 O.2   100  HIS100     -0.2867
     54  CB        15.5220    9.5030   45.5710 C.3   100  HIS100      0.0745
     55  CG        15.2720   10.9650   45.3250 C.ar  100  HIS100      0.0817
     56  ND1       14.0590   11.5700   45.5830 N.ar  100  HIS100     -0.2268
     57  CD2       16.0870   11.9450   44.8650 C.ar  100  HIS100      0.1154
     58  CE1       14.1380   12.8570   45.2920 C.ar  100  HIS100      0.1986
     59  NE2       15.3590   13.1120   44.8550 N.ar  100  HIS100     -0.2212
     60  N         11.1260    7.6310   41.3240 N.3   161  LEU161     -0.1245
     61  CA        10.5270    8.8170   40.7380 C.3   161  LEU161      0.1561
     62  C         11.4060    9.2690   39.5710 C.2   161  LEU161      0.2260
     63  O         12.5200    9.7400   39.7820 O.2   161  LEU161     -0.2867
     64  CB        10.4340    9.9240   41.7920 C.3   161  LEU161      0.0270
     65  CG        10.1060   11.3220   41.2680 C.3   161  LEU161      0.0019
     66  CD1        8.7140   11.3230   40.6410 C.3   161  LEU161      0.0001
     67  CD2       10.1910   12.3220   42.4070 C.3   161  LEU161      0.0001
     68  N         15.0400    8.2090   39.7600 N.3   164  LEU164     -0.1245
     69  CA        15.8450    8.5280   40.9330 C.3   164  LEU164      0.1561
     70  C         15.9070    7.3300   41.8770 C.2   164  LEU164      0.2260
     71  O         14.8660    6.8090   42.2850 O.2   164  LEU164     -0.2867
     72  CB        15.2510    9.7470   41.6530 C.3   164  LEU164      0.0270
     73  CG        15.2940   11.1040   40.9270 C.3   164  LEU164      0.0019
     74  CD1       15.0430   10.9480   39.4370 C.3   164  LEU164      0.0001
     75  CD2       14.2570   12.0310   41.5400 C.3   164  LEU164      0.0001
     76  N         11.9530   21.2210   54.8990 N.3   194  ARG194     -0.1245
     77  CA        11.0140   20.9520   53.8360 C.3   194  ARG194      0.1563
     78  C         11.3280   19.5290   53.3940 C.2   194  ARG194      0.2260
     79  O         12.4740   19.2520   53.0250 O.2   194  ARG194     -0.2867
     80  CB        11.2270   21.8930   52.6440 C.3   194  ARG194      0.0307
     81  CG        10.4660   21.4550   51.3870 C.3   194  ARG194      0.0489
     82  CD        11.1070   21.9920   50.1120 C.3   194  ARG194      0.2205
     83  NE        10.2450   21.7830   48.9540 N.pl3 194  ARG194     -0.0865
     84  CZ        10.5380   20.9930   47.9290 C.cat 194  ARG194      0.5346
     85  NH1       11.6810   20.3190   47.8990 N.pl3 194  ARG194      0.1354
     86  NH2        9.6770   20.8720   46.9270 N.pl3 194  ARG194      0.1354
     87  N         11.2920   17.0470   50.8020 N.3   196  ASP196     -0.1225
     88  CA        11.1180   16.8890   49.3760 C.3   196  ASP196      0.1805
     89  C         10.5300   15.5230   49.0290 C.2   196  ASP196      0.2597
     90  O         10.8550   14.5200   49.6630 O.2   196  ASP196     -0.2718
     91  CB        12.4780   17.0610   48.7100 C.3   196  ASP196      0.1424
     92  CG        12.4430   16.7530   47.2550 C.2   196  ASP196      0.3668
     93  OD1       12.2680   17.6990   46.4640 O.co2 196  ASP196     -0.2456
     94  OD2       12.5910   15.5650   46.9050 O.co2 196  ASP196     -0.2456
     95  N          9.6470   15.5080   48.0310 N.am  197  ALA197     -0.1979
     96  CA         9.0270   14.2810   47.5200 C.3   197  ALA197      0.1597
     97  C          8.3600   13.4490   48.6170 C.2   197  ALA197      0.2287
     98  O          8.4780   12.2220   48.6310 O.2   197  ALA197     -0.2864
     99  CB        10.0870   13.4420   46.7880 C.3   197  ALA197      0.0319
    100  N          6.4970   18.1580   51.2160 N.3   232  GLU232     -0.1245
    101  CA         6.1210   18.4610   49.8470 C.3   232  GLU232      0.1567
    102  C          5.2560   17.3530   49.2840 C.2   232  GLU232      0.2260
    103  O          5.7480   16.2900   48.8910 O.2   232  GLU232     -0.2867
    104  CB         7.3400   18.6370   48.9360 C.3   232  GLU232      0.0388
    105  CG         6.9530   19.1620   47.5470 C.3   232  GLU232      0.1160
    106  CD         7.7010   18.4970   46.4030 C.2   232  GLU232      0.3649
    107  OE1        8.5200   17.5870   46.6470 O.co2 232  GLU232     -0.2457
    108  OE2        7.4620   18.8890   45.2410 O.co2 232  GLU232     -0.2457
    109  N          9.7930   26.9310   43.4060 N.3   298  HIS298     -0.1226
    110  CA        10.8900   26.8070   42.4530 C.3   298  HIS298      0.1752
    111  C         10.5640   25.8650   41.2990 C.2   298  HIS298      0.2596
    112  O         11.1050   26.0120   40.2010 O.2   298  HIS298     -0.2718
    113  CB        12.1600   26.3530   43.1710 C.3   298  HIS298      0.0759
    114  CG        12.1400   24.9150   43.5810 C.ar  298  HIS298      0.0818
    115  ND1       11.5590   24.4820   44.7530 N.ar  298  HIS298     -0.2268
    116  CD2       12.6090   23.8080   42.9590 C.ar  298  HIS298      0.1154
    117  CE1       11.6710   23.1680   44.8350 C.ar  298  HIS298      0.1986
    118  NE2       12.3030   22.7350   43.7590 N.ar  298  HIS298     -0.2212
    119  N          9.6650   24.9170   41.5400 N.am  299  ASP299     -0.1974
    120  CA         9.2880   23.9470   40.5190 C.3   299  ASP299      0.1709
    121  C          8.2500   24.4920   39.5450 C.2   299  ASP299      0.2293
    122  O          8.4910   24.5620   38.3380 O.2   299  ASP299     -0.2864
    123  CB         8.6880   22.6990   41.1670 C.3   299  ASP299      0.1436
    124  CG         9.7050   21.6220   41.4210 C.2   299  ASP299      0.3671
    125  OD1       10.5950   21.4180   40.5710 O.co2 299  ASP299     -0.2456
    126  OD2        9.6080   20.9720   42.4800 O.co2 299  ASP299     -0.2456
    127  N          7.5380   23.1930   35.9940 N.3   304  HIS304     -0.1241
    128  CA         8.1210   21.9270   36.4190 C.3   304  HIS304      0.1621
    129  C          7.3260   21.3020   37.5630 C.2   304  HIS304      0.2264
    130  O          7.7080   20.2570   38.0890 O.2   304  HIS304     -0.2867
    131  CB         9.5700   22.1420   36.8650 C.3   304  HIS304      0.0745
    132  CG        10.5830   21.5100   35.9620 C.ar  304  HIS304      0.0817
    133  ND1       11.1720   20.2950   36.2400 N.ar  304  HIS304     -0.2268
    134  CD2       11.1160   21.9270   34.7890 C.ar  304  HIS304      0.1154
    135  CE1       12.0240   19.9910   35.2780 C.ar  304  HIS304      0.1986
    136  NE2       12.0100   20.9650   34.3850 N.ar  304  HIS304     -0.2212
@<TRIPOS>BOND
     1    26    28   ar
     2    26    24   ar
     3    28    27   ar
     4   136   134   ar
     5   136   135   ar
     6   134   132   ar
     7    23    24   ar
     8    23    21   ar
     9    24    22   ar
    10   135   133   ar
    11    27    25   ar
    12   132   133   ar
    13   132   131    1
    14   127   128    1
    15    21    20   ar
    16    22    25   ar
    17    22    20   ar
    18   128   131    1
    19   128   129    1
    20     9     7   ar
    21     9    10   ar
    22    20    19    1
    23     7     6   ar
    24   129   130    2
    25     1     2    1
    26    10    12   ar
    27    10     8   ar
    28    12    14   ar
    29    49    47   am
    30   122   121    2
    31    19    16    1
    32     6     8   ar
    33     6     5    1
    34    15    16    1
    35    15     3   am
    36     8    11   ar
    37     2     5    1
    38     2     3    1
    39    48    47    2
    40    14    13   ar
    41    47    46    1
    42    16    17    1
    43    74    73    1
    44   121   120    1
    45    62    63    2
    46    62    61    1
    47     3     4    2
    48    17    18    2
    49    68    69    1
    50    11    13   ar
    51   112   111    2
    52   120   123    1
    53   120   119    1
    54   125   124   ar
    55    46    45    1
    56    66    65    1
    57    61    60    1
    58    61    64    1
    59    73    75    1
    60    73    72    1
    61    69    72    1
    62    69    70    1
    63   123   124    1
    64    65    64    1
    65    65    67    1
    66   111   119   am
    67   111   110    1
    68   124   126   ar
    69    45    42    1
    70    70    71    2
    71   110   113    1
    72   110   109    1
    73   116   114   ar
    74   116   118   ar
    75    42    41    1
    76    42    43    1
    77   113   114    1
    78    36    38   ar
    79    36    34   ar
    80    41    31   am
    81    33    30    1
    82    33    34    1
    83    29    30    1
    84   114   115   ar
    85    31    32    2
    86    31    30    1
    87    44    43    2
    88   118   117   ar
    89    38    39   ar
    90    34    35   ar
    91   115   117   ar
    92    59    57   ar
    93    59    58   ar
    94    57    55   ar
    95    39    40    1
    96    39    37   ar
    97   108   106   ar
    98    35    37   ar
    99    58    56   ar
   100    55    54    1
   101    55    56   ar
   102    54    51    1
   103   106   107   ar
   104   106   105    1
   105    93    92   ar
   106    99    96    1
   107    52    51    1
   108    52    53    2
   109    94    92   ar
   110    51    50    1
   111    86    84    1
   112    92    91    1
   113    96    95    1
   114    96    97    1
   115   105   104    1
   116    85    84    1
   117    84    83    2
   118    95    89   am
   119    97    98    2
   120    91    88    1
   121   103   102    2
   122   104   101    1
   123    83    82    1
   124    89    88    1
   125    89    90    2
   126   102   101    1
   127    88    87    1
   128   101   100    1
   129    82    81    1
   130    81    80    1
   131    80    77    1
   132    79    78    2
   133    78    77    1
   134    77    76    1
