@<TRIPOS>MOLECULE
tmp/3ijcA00.pdb
 100 98 0 0 0
SMALL
GASTEIGER

@<TRIPOS>ATOM
      1  N         12.5880   22.7370   14.2050 N.3    16  PRO16      -0.2116
      2  CA        11.5610   21.9820   14.9240 C.3    16  PRO16       0.1372
      3  C         10.7530   22.7560   15.9980 C.2    16  PRO16       0.2244
      4  O         11.2830   23.6330   16.7290 O.2    16  PRO16      -0.2868
      5  CB        12.3550   20.8520   15.5690 C.3    16  PRO16       0.0268
      6  CG        13.5660   20.6850   14.6940 C.3    16  PRO16       0.0207
      7  CD        13.9130   22.0910   14.3200 C.3    16  PRO16       0.0892
      8  N          9.5090   21.8570   19.2750 N.3    18  PHE18      -0.1241
      9  CA         9.7350   20.8000   20.2450 C.3    18  PHE18       0.1605
     10  C          8.5770   20.6440   21.2440 C.2    18  PHE18       0.2264
     11  O          8.3390   19.5470   21.7650 O.2    18  PHE18      -0.2867
     12  CB        11.0620   21.0650   20.9720 C.3    18  PHE18       0.0534
     13  CG        12.3030   20.7770   20.1290 C.ar   18  PHE18      -0.0203
     14  CD1       12.5880   19.4640   19.7030 C.ar   18  PHE18      -0.0042
     15  CD2       13.2170   21.8080   19.8330 C.ar   18  PHE18      -0.0042
     16  CE1       13.7700   19.1870   18.9460 C.ar   18  PHE18      -0.0003
     17  CE2       14.3940   21.5490   19.1160 C.ar   18  PHE18      -0.0003
     18  CZ        14.6580   20.2320   18.6540 C.ar   18  PHE18      -0.0000
     19  N         17.7700   27.9470   21.9710 N.3    63  ASN63      -0.1240
     20  CA        16.8010   27.0290   21.3960 C.3    63  ASN63       0.1653
     21  C         15.9110   26.5490   22.5270 C.2    63  ASN63       0.2266
     22  O         16.3760   25.7910   23.4110 O.2    63  ASN63      -0.2867
     23  CB        17.5140   25.8410   20.7530 C.3    63  ASN63       0.1155
     24  CG        16.6170   25.0450   19.8090 C.2    63  ASN63       0.2627
     25  OD1       15.3410   25.2130   19.7650 O.2    63  ASN63      -0.2716
     26  ND2       17.2620   24.1460   19.0400 N.am   63  ASN63      -0.0877
     27  N         13.1220   24.4480   24.2910 N.3    65  TYR65      -0.1241
     28  CA        12.6980   23.0460   24.2200 C.3    65  TYR65       0.1605
     29  C         11.3230   22.7700   24.8360 C.2    65  TYR65       0.2264
     30  O         10.6150   21.7910   24.4420 O.2    65  TYR65      -0.2867
     31  CB        13.7240   22.1830   24.9680 C.3    65  TYR65       0.0534
     32  CG        15.1450   22.1290   24.3980 C.ar   65  TYR65      -0.0201
     33  CD1       15.4370   22.5640   23.1050 C.ar   65  TYR65      -0.0009
     34  CD2       16.1990   21.6300   25.1870 C.ar   65  TYR65      -0.0009
     35  CE1       16.7260   22.4850   22.5740 C.ar   65  TYR65       0.0417
     36  CE2       17.5070   21.5650   24.6780 C.ar   65  TYR65       0.0417
     37  CZ        17.7590   22.0210   23.3700 C.ar   65  TYR65       0.1957
     38  OH        19.0300   21.9330   22.8450 O.3    65  TYR65      -0.2866
     39  N         15.8260   20.3750   29.8210 N.3   111  ASN111     -0.1240
     40  CA        15.0240   19.4630   28.9910 C.3   111  ASN111      0.1653
     41  C         13.5080   19.4050   29.3140 C.2   111  ASN111      0.2266
     42  O         12.7140   19.0140   28.4660 O.2   111  ASN111     -0.2867
     43  CB        15.6460   18.0560   29.1050 C.3   111  ASN111      0.1155
     44  CG        17.0090   17.9710   28.4170 C.2   111  ASN111      0.2627
     45  OD1       17.2690   18.6650   27.4040 O.2   111  ASN111     -0.2716
     46  ND2       17.8970   17.1160   28.9550 N.am  111  ASN111     -0.0877
     47  N         22.2360   12.9810   31.2480 N.3   155  GLU155     -0.1245
     48  CA        21.1350   13.9890   31.1080 C.3   155  GLU155      0.1567
     49  C         19.8250   13.5090   31.7070 C.2   155  GLU155      0.2260
     50  O         19.4120   12.3740   31.4550 O.2   155  GLU155     -0.2867
     51  CB        20.8270   14.3630   29.6680 C.3   155  GLU155      0.0388
     52  CG        21.9700   14.9050   28.8700 C.3   155  GLU155      0.1160
     53  CD        21.5140   15.5530   27.5600 C.2   155  GLU155      0.3649
     54  OE1       20.4210   16.1990   27.4760 O.co2 155  GLU155     -0.2457
     55  OE2       22.2960   15.4570   26.6050 O.co2 155  GLU155     -0.2457
     56  N         13.4650    7.7620   17.3200 N.3   280  ILE280     -0.1231
     57  CA        14.3020    8.9290   17.6540 C.3   280  ILE280      0.1692
     58  C         13.9680    9.3860   19.0960 C.2   280  ILE280      0.2592
     59  O         12.9030    9.0640   19.6060 O.2   280  ILE280     -0.2718
     60  CB        14.1380   10.0570   16.5990 C.3   280  ILE280      0.0266
     61  CG1       12.6850   10.5430   16.5320 C.3   280  ILE280      0.0019
     62  CG2       14.6800    9.6050   15.2230 C.3   280  ILE280      0.0020
     63  CD1       12.5290   11.9210   15.8440 C.3   280  ILE280      0.0001
     64  N         14.8750   10.0790   19.7770 N.am  281  TRP281     -0.1962
     65  CA        14.6150   10.4260   21.1690 C.3   281  TRP281      0.1771
     66  C         14.0670   11.8480   21.3190 C.2   281  TRP281      0.2619
     67  O         14.1130   12.6400   20.3690 O.2   281  TRP281     -0.2715
     68  CB        15.8100   10.1460   22.1140 C.3   281  TRP281      0.0590
     69  CG        17.0600   10.9580   21.8960 C.ar  281  TRP281      0.0006
     70  CD1       18.0260   10.7390   20.9490 C.ar  281  TRP281      0.0946
     71  CD2       17.5060   12.0980   22.6630 C.ar  281  TRP281      0.0152
     72  NE1       19.0220   11.6760   21.0640 N.ar  281  TRP281     -0.2442
     73  CE2       18.7330   12.5190   22.1080 C.ar  281  TRP281      0.0810
     74  CE3       16.9840   12.7970   23.7600 C.ar  281  TRP281      0.0012
     75  CZ2       19.4490   13.6190   22.6070 C.ar  281  TRP281      0.0191
     76  CZ3       17.7060   13.8900   24.2630 C.ar  281  TRP281      0.0001
     77  CH2       18.9170   14.2910   23.6780 C.ar  281  TRP281      0.0015
     78  N         13.5210   12.1130   22.5000 N.am  282  TYR282     -0.1974
     79  CA        12.7520   13.3480   22.8400 C.3   282  TYR282      0.1639
     80  C         11.4210   13.4210   22.0130 C.2   282  TYR282      0.2290
     81  O         11.1950   14.3330   21.1990 O.2   282  TYR282     -0.2864
     82  CB        13.6150   14.5960   22.6910 C.3   282  TYR282      0.0560
     83  CG        13.2100   15.8010   23.5590 C.ar  282  TYR282     -0.0198
     84  CD1       13.4640   15.8160   24.9410 C.ar  282  TYR282     -0.0009
     85  CD2       12.6360   16.9450   22.9790 C.ar  282  TYR282     -0.0009
     86  CE1       13.1020   16.9330   25.7460 C.ar  282  TYR282      0.0417
     87  CE2       12.3170   18.0550   23.7540 C.ar  282  TYR282      0.0417
     88  CZ        12.5370   18.0370   25.1430 C.ar  282  TYR282      0.1957
     89  OH        12.1960   19.1380   25.9020 O.3   282  TYR282     -0.2866
     90  N          6.6180   16.0290   17.8030 N.3   331  ARG331     -0.1245
     91  CA         7.4620   16.0300   19.0070 C.3   331  ARG331      0.1563
     92  C          6.6180   16.0330   20.2800 C.2   331  ARG331      0.2260
     93  O          6.9940   15.4540   21.2780 O.2   331  ARG331     -0.2867
     94  CB         8.4330   17.2450   19.1120 C.3   331  ARG331      0.0307
     95  CG         9.3850   17.6500   17.9150 C.3   331  ARG331      0.0489
     96  CD        10.3400   16.6470   17.2580 C.3   331  ARG331      0.2205
     97  NE        11.2770   15.9950   18.1340 N.pl3 331  ARG331     -0.0865
     98  CZ        12.4080   15.3590   17.8100 C.cat 331  ARG331      0.5346
     99  NH1       12.9340   15.3320   16.5870 N.pl3 331  ARG331      0.1354
    100  NH2       13.0820   14.7670   18.7900 N.pl3 331  ARG331      0.1354
@<TRIPOS>BOND
     1     1     7    1
     2     1     2    1
     3     7     6    1
     4     6     5    1
     5     2     5    1
     6     2     3    1
     7    62    60    1
     8    63    61    1
     9     3     4    2
    10    61    60    1
    11    99    98    1
    12    60    57    1
    13    96    95    1
    14    96    97    1
    15    56    57    1
    16    57    58    1
    17    90    91    1
    18    98    97    2
    19    98   100    1
    20    95    94    1
    21    18    16   ar
    22    18    17   ar
    23    16    14   ar
    24    91    94    1
    25    91    92    1
    26    26    24   am
    27    58    59    2
    28    58    64   am
    29    17    15   ar
    30     8     9    1
    31    14    13   ar
    32    25    24    2
    33    64    65    1
    34    24    23    1
    35    15    13   ar
    36    13    12    1
    37     9    12    1
    38     9    10    1
    39    92    93    2
    40    67    66    2
    41    23    20    1
    42    70    72   ar
    43    70    69   ar
    44    72    73   ar
    45    65    66    1
    46    65    68    1
    47    81    80    2
    48    10    11    2
    49    66    78   am
    50    20    19    1
    51    20    21    1
    52    69    68    1
    53    69    71   ar
    54    80    79    1
    55    73    75   ar
    56    73    71   ar
    57    78    79    1
    58    21    22    2
    59    35    33   ar
    60    35    37   ar
    61    75    77   ar
    62    71    74   ar
    63    82    79    1
    64    82    83    1
    65    38    37    1
    66    85    83   ar
    67    85    87   ar
    68    33    32   ar
    69    37    36   ar
    70    83    84   ar
    71    77    76   ar
    72    87    88   ar
    73    74    76   ar
    74    28    27    1
    75    28    29    1
    76    28    31    1
    77    32    31    1
    78    32    34   ar
    79    30    29    2
    80    36    34   ar
    81    84    86   ar
    82    88    86   ar
    83    88    89    1
    84    55    53   ar
    85    45    44    2
    86    54    53   ar
    87    53    52    1
    88    44    46   am
    89    44    43    1
    90    42    41    2
    91    52    51    1
    92    40    43    1
    93    40    41    1
    94    40    39    1
    95    51    48    1
    96    48    47    1
    97    48    49    1
    98    50    49    2
