@<TRIPOS>MOLECULE
tmp/3ijdA00.pdb
 216 206 0 0 0
SMALL
GASTEIGER

@<TRIPOS>ATOM
      1  N          8.3020    7.2740   -3.1090 N.3    19  THR19      -0.1218
      2  CA         9.6190    6.7110   -2.8390 C.3    19  THR19       0.1862
      3  C         10.4980    7.9610   -2.7110 C.2    19  THR19       0.2287
      4  O         10.3370    8.9060   -3.4850 O.2    19  THR19      -0.2866
      5  CB        10.0900    5.7060   -3.9470 C.3    19  THR19       0.1770
      6  OG1        9.1780    4.5920   -4.0280 O.3    19  THR19      -0.2211
      7  CG2       11.5320    5.1520   -3.6810 C.3    19  THR19       0.0375
      8  N          8.3190    4.4420    0.8200 N.3    52  TYR52      -0.1227
      9  CA         8.8350    3.1030    0.4610 C.3    52  TYR52       0.1736
     10  C         10.3180    3.0220    0.7440 C.2    52  TYR52       0.2595
     11  O         10.9980    4.0350    0.8330 O.2    52  TYR52      -0.2718
     12  CB         8.5770    2.8140   -1.0370 C.3    52  TYR52       0.0548
     13  CG         7.1230    2.5280   -1.3730 C.ar   52  TYR52      -0.0200
     14  CD1        6.5440    1.3120   -1.0560 C.ar   52  TYR52      -0.0009
     15  CD2        6.3360    3.4690   -1.9820 C.ar   52  TYR52      -0.0009
     16  CE1        5.2390    1.0290   -1.3330 C.ar   52  TYR52       0.0417
     17  CE2        4.9910    3.1950   -2.2960 C.ar   52  TYR52       0.0417
     18  CZ         4.4480    1.9880   -1.9570 C.ar   52  TYR52       0.1957
     19  OH         3.1220    1.7150   -2.2180 O.3    52  TYR52      -0.2866
     20  N         10.8030    1.7870    0.8340 N.am   53  ASP53      -0.1960
     21  CA        12.1760    1.4580    1.0760 C.3    53  ASP53       0.1840
     22  C         12.5350    0.4500   -0.0100 C.2    53  ASP53       0.2621
     23  O         11.7360   -0.4250   -0.3320 O.2    53  ASP53      -0.2715
     24  CB        12.3140    0.7870    2.4670 C.3    53  ASP53       0.1450
     25  CG        13.7830    0.7730    3.0050 C.2    53  ASP53       0.3671
     26  OD1       14.5550    1.6760    2.6770 O.co2  53  ASP53      -0.2456
     27  OD2       14.1410   -0.1140    3.8070 O.co2  53  ASP53      -0.2456
     28  N         13.7320    0.5660   -0.5660 N.am   54  LEU54      -0.1977
     29  CA        14.1830   -0.2860   -1.6800 C.3    54  LEU54       0.1596
     30  C         15.4220   -1.0340   -1.2320 C.2    54  LEU54       0.2287
     31  O         16.1650   -0.5540   -0.3610 O.2    54  LEU54      -0.2864
     32  CB        14.5120    0.5650   -2.9210 C.3    54  LEU54       0.0297
     33  CG        13.3970    1.4970   -3.4010 C.3    54  LEU54       0.0022
     34  CD1       13.8490    2.2990   -4.6270 C.3    54  LEU54       0.0001
     35  CD2       12.1280    0.6960   -3.7180 C.3    54  LEU54       0.0001
     36  N          8.3010    2.0430    5.3090 N.3    80  TYR80      -0.1241
     37  CA         8.5910    0.7050    4.8380 C.3    80  TYR80       0.1605
     38  C         10.0120    0.3330    5.2750 C.2    80  TYR80       0.2264
     39  O         10.8820    1.2000    5.3880 O.2    80  TYR80      -0.2867
     40  CB         8.4430    0.6130    3.3140 C.3    80  TYR80       0.0534
     41  CG         7.0810    0.1570    2.8260 C.ar   80  TYR80      -0.0201
     42  CD1        6.9300   -0.9950    2.0610 C.ar   80  TYR80      -0.0009
     43  CD2        5.9210    0.8850    3.1420 C.ar   80  TYR80      -0.0009
     44  CE1        5.6810   -1.4020    1.6100 C.ar   80  TYR80       0.0417
     45  CE2        4.6850    0.4590    2.7410 C.ar   80  TYR80       0.0417
     46  CZ         4.5540   -0.6410    1.9670 C.ar   80  TYR80       0.1957
     47  OH         3.3070   -0.9970    1.5620 O.3    80  TYR80      -0.2866
     48  N         12.8330   -2.6850    4.2670 N.3    82  CYS82      -0.1235
     49  CA        13.3570   -3.8900    3.6590 C.3    82  CYS82       0.1677
     50  C         14.3740   -4.4280    4.6560 C.2    82  CYS82       0.2270
     51  O         15.5570   -4.0750    4.6110 O.2    82  CYS82      -0.2867
     52  CB        14.0100   -3.5860    2.3230 C.3    82  CYS82       0.0956
     53  SG        12.8350   -3.0360    1.0730 S.3    82  CYS82      -0.0801
     54  N          7.0370   -4.0660    7.2460 N.3   107  PHE107     -0.1227
     55  CA         8.2710   -4.8800    7.1210 C.3   107  PHE107      0.1736
     56  C          8.1460   -5.6880    5.8510 C.2   107  PHE107      0.2595
     57  O          7.1840   -6.4330    5.6470 O.2   107  PHE107     -0.2718
     58  CB         8.4280   -5.8420    8.3020 C.3   107  PHE107      0.0547
     59  CG         8.7240   -5.1760    9.6480 C.ar  107  PHE107     -0.0202
     60  CD1        8.6400   -3.7790    9.8350 C.ar  107  PHE107     -0.0042
     61  CD2        9.0700   -5.9680   10.7340 C.ar  107  PHE107     -0.0042
     62  CE1        8.8970   -3.1970   11.0690 C.ar  107  PHE107     -0.0003
     63  CE2        9.3330   -5.3940   11.9940 C.ar  107  PHE107     -0.0003
     64  CZ         9.2380   -4.0000   12.1630 C.ar  107  PHE107     -0.0000
     65  N          9.1520   -5.5700    5.0040 N.am  108  VAL108     -0.1966
     66  CA         9.1480   -6.2020    3.7120 C.3   108  VAL108      0.1727
     67  C         10.3090   -7.1970    3.6900 C.2   108  VAL108      0.2617
     68  O         11.4290   -6.8140    3.9810 O.2   108  VAL108     -0.2715
     69  CB         9.3620   -5.1670    2.6390 C.3   108  VAL108      0.0290
     70  CG1        9.1740   -5.8040    1.2700 C.3   108  VAL108      0.0023
     71  CG2        8.4020   -3.9250    2.8550 C.3   108  VAL108      0.0023
     72  N         10.0280   -8.4550    3.3500 N.am  109  GLY109     -0.1940
     73  CA        11.0500   -9.5020    3.2810 C.3   109  GLY109      0.2014
     74  C         11.7930   -9.4800    1.9610 C.2   109  GLY109      0.2639
     75  O         11.6390   -8.5510    1.1780 O.2   109  GLY109     -0.2714
     76  N         12.5950  -10.5070    1.6980 N.am  110  ALA110     -0.1963
     77  CA        13.4370  -10.5230    0.4840 C.3   110  ALA110      0.1728
     78  C         12.6210  -10.9130   -0.7510 C.2   110  ALA110      0.2616
     79  O         11.8690  -11.8840   -0.7230 O.2   110  ALA110     -0.2715
     80  CB        14.6260  -11.4680    0.6660 C.3   110  ALA110      0.0334
     81  N         12.7620  -10.1390   -1.8260 N.am  111  ALA111     -0.1977
     82  CA        12.0730  -10.4210   -3.0910 C.3   111  ALA111      0.1597
     83  C         12.4800  -11.7840   -3.6670 C.2   111  ALA111      0.2287
     84  O         11.6450  -12.4710   -4.2490 O.2   111  ALA111     -0.2864
     85  CB        12.3370   -9.3030   -4.1130 C.3   111  ALA111      0.0319
     86  N         13.0860  -12.0780    7.7410 N.3   117  LEU117     -0.1245
     87  CA        11.8090  -11.4640    8.0560 C.3   117  LEU117      0.1561
     88  C         11.1710  -12.0140    9.3310 C.2   117  LEU117      0.2260
     89  O         10.6460  -11.2380   10.1340 O.2   117  LEU117     -0.2867
     90  CB        10.8330  -11.6040    6.8730 C.3   117  LEU117      0.0270
     91  CG         9.4790  -10.8990    7.0500 C.3   117  LEU117      0.0019
     92  CD1        9.6810   -9.4250    7.3370 C.3   117  LEU117      0.0001
     93  CD2        8.5520  -11.1110    5.8130 C.3   117  LEU117      0.0001
     94  N          3.0400   -6.7970    3.4320 N.3   136  VAL136     -0.1245
     95  CA         2.8530   -6.7140    1.9770 C.3   136  VAL136      0.1561
     96  C          2.0470   -7.9640    1.5920 C.2   136  VAL136      0.2260
     97  O          2.3160   -9.0710    2.0830 O.2   136  VAL136     -0.2867
     98  CB         4.2390   -6.6600    1.2240 C.3   136  VAL136      0.0252
     99  CG1        4.1100   -6.8970   -0.2580 C.3   136  VAL136      0.0019
    100  CG2        4.9580   -5.3680    1.4790 C.3   136  VAL136      0.0019
    101  N          0.4280   -9.9710   -1.9710 N.3   138  ILE138     -0.1245
    102  CA         0.6670  -10.0200   -3.4150 C.3   138  ILE138      0.1561
    103  C         -0.3510  -10.9670   -4.0300 C.2   138  ILE138      0.2260
    104  O         -0.1340  -12.1870   -4.0830 O.2   138  ILE138     -0.2867
    105  CB         2.1050  -10.4090   -3.7570 C.3   138  ILE138      0.0252
    106  CG1        3.0880   -9.5020   -3.0030 C.3   138  ILE138      0.0019
    107  CG2        2.3460  -10.2660   -5.2570 C.3   138  ILE138      0.0019
    108  CD1        4.5660   -9.8750   -3.2040 C.3   138  ILE138      0.0001
    109  N          0.4450  -13.6360   -6.6230 N.3   141  ARG141     -0.1245
    110  CA         1.1180  -14.8230   -6.0830 C.3   141  ARG141      0.1563
    111  C          0.1300  -15.9080   -5.6280 C.2   141  ARG141      0.2260
    112  O          0.4750  -17.0930   -5.5730 O.2   141  ARG141     -0.2867
    113  CB         2.0170  -14.3880   -4.9200 C.3   141  ARG141      0.0307
    114  CG         2.9750  -15.4330   -4.4060 C.3   141  ARG141      0.0489
    115  CD         4.1310  -14.7770   -3.6580 C.3   141  ARG141      0.2205
    116  NE         3.6520  -13.8310   -2.6530 N.pl3 141  ARG141     -0.0865
    117  CZ         4.4400  -13.0790   -1.8830 C.cat 141  ARG141      0.5346
    118  NH1        5.7600  -13.1630   -1.9680 N.pl3 141  ARG141      0.1354
    119  NH2        3.8940  -12.2390   -1.0100 N.pl3 141  ARG141      0.1354
    120  N         -0.7340  -16.8190    3.8120 N.3   151  ARG151     -0.1245
    121  CA         0.5000  -16.0970    4.0570 C.3   151  ARG151      0.1563
    122  C          0.1990  -14.8490    4.8930 C.2   151  ARG151      0.2260
    123  O          0.9460  -14.5210    5.8170 O.2   151  ARG151     -0.2867
    124  CB         1.1820  -15.7380    2.7320 C.3   151  ARG151      0.0307
    125  CG         2.6450  -15.3790    2.8480 C.3   151  ARG151      0.0489
    126  CD         3.2230  -14.9240    1.4920 C.3   151  ARG151      0.2205
    127  NE         3.3930  -16.0310    0.5410 N.pl3 151  ARG151     -0.0865
    128  CZ         4.5630  -16.5070    0.0910 C.cat 151  ARG151      0.5346
    129  NH1        5.7290  -15.9940    0.4880 N.pl3 151  ARG151      0.1354
    130  NH2        4.5680  -17.5160   -0.7770 N.pl3 151  ARG151      0.1354
    131  N          1.0760  -13.7080    8.8080 N.3   155  LYS155     -0.1245
    132  CA         1.5660  -12.3690    9.1340 C.3   155  LYS155      0.1561
    133  C          0.7080  -11.7070   10.2210 C.2   155  LYS155      0.2260
    134  O          1.2440  -11.0550   11.1010 O.2   155  LYS155     -0.2867
    135  CB         1.6390  -11.4730    7.8920 C.3   155  LYS155      0.0271
    136  CG         2.7920  -11.7950    6.9620 C.3   155  LYS155      0.0035
    137  CD         2.8350  -10.8060    5.8190 C.3   155  LYS155      0.0206
    138  CE         3.8150  -11.2280    4.7710 C.3   155  LYS155      0.1093
    139  NZ         5.2110  -10.9320    5.1740 N.3   155  LYS155     -0.1314
    140  N         -1.2190   -3.8930   -0.4940 N.3   165  THR165     -0.1203
    141  CA        -0.8200   -4.6950   -1.6640 C.3   165  THR165      0.1994
    142  C          0.1930   -3.9450   -2.5250 C.2   165  THR165      0.2617
    143  O          0.2930   -2.7210   -2.4630 O.2   165  THR165     -0.2717
    144  CB        -2.0580   -5.1770   -2.5050 C.3   165  THR165      0.1784
    145  OG1       -2.5470   -4.1190   -3.3200 O.3   165  THR165     -0.2211
    146  CG2       -3.1960   -5.6580   -1.6010 C.3   165  THR165      0.0376
    147  N          1.0380   -4.6740   -3.2770 N.am  166  GLN166     -0.1979
    148  CA         1.6600   -4.0430   -4.4340 C.3   166  GLN166      0.1601
    149  C          0.5770   -3.6390   -5.4150 C.2   166  GLN166      0.2287
    150  O         -0.5880   -4.0520   -5.2750 O.2   166  GLN166     -0.2864
    151  CB         2.6710   -4.9360   -5.1430 C.3   166  GLN166      0.0394
    152  CG         3.9230   -5.1370   -4.3440 C.3   166  GLN166      0.0908
    153  CD         5.0390   -5.7210   -5.1770 C.2   166  GLN166      0.2608
    154  OE1        4.9500   -6.8650   -5.5780 O.2   166  GLN166     -0.2717
    155  NE2        6.0980   -4.9410   -5.4130 N.am  166  GLN166     -0.0878
    156  N         10.8430    0.4620  -13.9830 N.3   210  PHE210     -0.1241
    157  CA        10.9690    0.6020  -12.5160 C.3   210  PHE210      0.1605
    158  C          9.9530   -0.3240  -11.8340 C.2   210  PHE210      0.2264
    159  O         10.2860   -1.1000  -10.9240 O.2   210  PHE210     -0.2867
    160  CB        10.7460    2.0640  -12.0720 C.3   210  PHE210      0.0534
    161  CG        11.1960    2.3590  -10.6560 C.ar  210  PHE210     -0.0203
    162  CD1       12.5520    2.4360  -10.3420 C.ar  210  PHE210     -0.0042
    163  CD2       10.2670    2.6000   -9.6520 C.ar  210  PHE210     -0.0042
    164  CE1       12.9750    2.7300   -9.0380 C.ar  210  PHE210     -0.0003
    165  CE2       10.6710    2.8850   -8.3540 C.ar  210  PHE210     -0.0003
    166  CZ        12.0230    2.9570   -8.0420 C.ar  210  PHE210     -0.0000
    167  N         11.0710   -3.9140  -12.0780 N.3   213  TRP213     -0.1227
    168  CA        12.0930   -4.0740  -11.0610 C.3   213  TRP213      0.1737
    169  C         11.4970   -4.2240   -9.6360 C.2   213  TRP213      0.2595
    170  O         11.9840   -5.0100   -8.8380 O.2   213  TRP213     -0.2718
    171  CB        13.1050   -2.9190  -11.1670 C.3   213  TRP213      0.0564
    172  CG        14.1980   -3.0080  -10.1600 C.ar  213  TRP213      0.0003
    173  CD1       15.2370   -3.9160  -10.1390 C.ar  213  TRP213      0.0946
    174  CD2       14.3650   -2.1780   -9.0060 C.ar  213  TRP213      0.0152
    175  NE1       16.0410   -3.6850   -9.0430 N.ar  213  TRP213     -0.2442
    176  CE2       15.5310   -2.6230   -8.3340 C.ar  213  TRP213      0.0810
    177  CE3       13.6490   -1.0870   -8.4770 C.ar  213  TRP213      0.0012
    178  CZ2       15.9900   -2.0230   -7.1560 C.ar  213  TRP213      0.0191
    179  CZ3       14.1120   -0.4880   -7.3030 C.ar  213  TRP213      0.0001
    180  CH2       15.2700   -0.9590   -6.6590 C.ar  213  TRP213      0.0015
    181  N         10.4040   -3.5230   -9.3410 N.am  214  LEU214     -0.1966
    182  CA         9.6970   -3.7040   -8.0580 C.3   214  LEU214      0.1728
    183  C          8.9260   -5.0370   -7.9560 C.2   214  LEU214      0.2617
    184  O          8.5130   -5.4280   -6.8620 O.2   214  LEU214     -0.2715
    185  CB         8.7340   -2.5280   -7.8270 C.3   214  LEU214      0.0311
    186  CG         9.3520   -1.1260   -7.7020 C.3   214  LEU214      0.0022
    187  CD1        8.2750   -0.0330   -7.6270 C.3   214  LEU214      0.0001
    188  CD2       10.2330   -1.0590   -6.4590 C.3   214  LEU214      0.0001
    189  N          8.7390   -5.7240   -9.0890 N.am  215  GLY215     -0.1940
    190  CA         7.9680   -6.9620   -9.1720 C.3   215  GLY215      0.2014
    191  C          6.5220   -6.7380   -9.6200 C.2   215  GLY215      0.2638
    192  O          5.6570   -7.6060   -9.4640 O.2   215  GLY215     -0.2714
    193  N          6.2390   -5.5660  -10.1630 N.am  216  ILE216     -0.1977
    194  CA         4.9110   -5.2910  -10.6490 C.3   216  ILE216      0.1596
    195  C          4.8890   -5.4770  -12.1480 C.2   216  ILE216      0.2287
    196  O          5.7350   -4.9570  -12.8400 O.2   216  ILE216     -0.2864
    197  CB         4.4990   -3.8750  -10.2850 C.3   216  ILE216      0.0276
    198  CG1        4.5440   -3.7130   -8.7500 C.3   216  ILE216      0.0022
    199  CG2        3.1160   -3.5800  -10.8370 C.3   216  ILE216      0.0022
    200  CD1        4.9500   -2.3210   -8.2680 C.3   216  ILE216      0.0001
    201  N         -0.1050    5.0320   -5.2250 N.3   263  GLU263     -0.1245
    202  CA         1.3360    5.1000   -5.3390 C.3   263  GLU263      0.1567
    203  C          1.8450    5.9050   -6.5270 C.2   263  GLU263      0.2260
    204  O          1.4620    5.6650   -7.6790 O.2   263  GLU263     -0.2867
    205  CB         1.9200    3.6780   -5.4510 C.3   263  GLU263      0.0388
    206  CG         3.4030    3.7190   -5.6340 C.3   263  GLU263      0.1160
    207  CD         4.0430    2.3420   -5.7350 C.2   263  GLU263      0.3649
    208  OE1        3.3360    1.3410   -6.0380 O.co2 263  GLU263     -0.2457
    209  OE2        5.2630    2.2930   -5.5190 O.co2 263  GLU263     -0.2457
    210  N          5.1630    6.5810   -8.5650 N.3   265  VAL265     -0.1245
    211  CA         6.4300    5.8990   -8.7280 C.3   265  VAL265      0.1561
    212  C          7.2880    6.5240   -9.8340 C.2   265  VAL265      0.2260
    213  O          8.4070    6.0520  -10.0760 O.2   265  VAL265     -0.2867
    214  CB         6.1670    4.4130   -9.0110 C.3   265  VAL265      0.0252
    215  CG1        5.8030    4.2000  -10.4810 C.3   265  VAL265      0.0019
    216  CG2        7.3450    3.5640   -8.5680 C.3   265  VAL265      0.0019
@<TRIPOS>BOND
     1   156   157    1
     2   196   195    2
     3   157   160    1
     4   157   158    1
     5   195   194    1
     6   167   168    1
     7   160   161    1
     8   158   159    2
     9   171   168    1
    10   171   172    1
    11   168   169    1
    12   199   197    1
    13   161   162   ar
    14   161   163   ar
    15   194   197    1
    16   194   193    1
    17   215   214    1
    18   162   164   ar
    19   197   198    1
    20   193   191   am
    21   172   173   ar
    22   172   174   ar
    23   173   175   ar
    24   213   212    2
    25   212   211    1
    26   163   165   ar
    27   169   181   am
    28   169   170    2
    29   191   192    2
    30   191   190    1
    31   181   182    1
    32   190   189    1
    33   189   183   am
    34   175   176   ar
    35   164   166   ar
    36   214   211    1
    37   214   216    1
    38   174   177   ar
    39   174   176   ar
    40   198   200    1
    41   211   210    1
    42   177   179   ar
    43   165   166   ar
    44   176   178   ar
    45   182   183    1
    46   182   185    1
    47   183   184    2
    48   185   186    1
    49   186   187    1
    50   186   188    1
    51   204   203    2
    52   179   180   ar
    53   178   180   ar
    54   109   110    1
    55   203   202    1
    56   110   111    1
    57   110   113    1
    58   208   207   ar
    59   207   206    1
    60   207   209   ar
    61   206   205    1
    62   111   112    2
    63   154   153    2
    64   205   202    1
    65   149   150    2
    66   149   148    1
    67   155   153   am
    68   202   201    1
    69   107   105    1
    70   153   152    1
    71   151   148    1
    72   151   152    1
    73   113   114    1
    74    34    33    1
    75   148   147    1
    76   114   115    1
    77    84    83    2
    78    85    82    1
    79   104   103    2
    80   103   102    1
    81     6     5    1
    82     5     7    1
    83     5     2    1
    84   105   102    1
    85   105   106    1
    86    35    33    1
    87    83    82    1
    88   115   116    1
    89     4     3    2
    90   102   101    1
    91    33    32    1
    92   145   144    1
    93   147   142   am
    94   108   106    1
    95     1     2    1
    96    82    81    1
    97    32    29    1
    98     2     3    1
    99   116   117    2
   100   142   143    2
   101   142   141    1
   102   144   141    1
   103   144   146    1
   104    17    15   ar
   105    17    18   ar
   106    19    18    1
   107    15    13   ar
   108   118   117    1
   109    18    16   ar
   110   117   119    1
   111    81    78   am
   112    29    30    1
   113    29    28    1
   114   141   140    1
   115    13    14   ar
   116    13    12    1
   117    16    14   ar
   118    30    31    2
   119    12     9    1
   120   130   128    1
   121    78    79    2
   122    78    77    1
   123    28    22   am
   124    23    22    2
   125    99    98    1
   126    22    21    1
   127   128   129    1
   128   128   127    2
   129     9    10    1
   130     9     8    1
   131    77    80    1
   132    77    76    1
   133   127   126    1
   134    10    11    2
   135    10    20   am
   136    20    21    1
   137    53    52    1
   138    21    24    1
   139    75    74    2
   140    98   100    1
   141    98    95    1
   142    70    69    1
   143   126   125    1
   144    47    46    1
   145    96    95    1
   146    96    97    2
   147    44    46   ar
   148    44    42   ar
   149    76    74   am
   150    74    73    1
   151    46    45   ar
   152    95    94    1
   153    42    41   ar
   154    52    49    1
   155    24    25    1
   156    69    71    1
   157    69    66    1
   158    26    25   ar
   159   124   125    1
   160   124   121    1
   161    45    43   ar
   162    41    43   ar
   163    41    40    1
   164    25    27   ar
   165    73    72    1
   166    40    37    1
   167    72    67   am
   168    49    48    1
   169    49    50    1
   170    67    66    1
   171    67    68    2
   172    66    65    1
   173   120   121    1
   174   121   122    1
   175    51    50    2
   176   138   139    1
   177   138   137    1
   178    37    38    1
   179    37    36    1
   180   122   123    2
   181    65    56   am
   182    38    39    2
   183    57    56    2
   184    93    91    1
   185   137   136    1
   186    56    55    1
   187    90    91    1
   188    90    87    1
   189   136   135    1
   190    91    92    1
   191    55    54    1
   192    55    58    1
   193    86    87    1
   194   135   132    1
   195    87    88    1
   196    58    59    1
   197   131   132    1
   198   132   133    1
   199    88    89    2
   200    59    60   ar
   201    59    61   ar
   202    60    62   ar
   203   133   134    2
   204    61    63   ar
   205    62    64   ar
   206    63    64   ar
