@<TRIPOS>MOLECULE
tmp/3ijdA01.pdb
 190 182 0 0 0
SMALL
GASTEIGER

@<TRIPOS>ATOM
      1  N          8.3020    7.2740   -3.1090 N.3    19  THR19      -0.1204
      2  CA         9.6190    6.7110   -2.8390 C.3    19  THR19       0.1979
      3  C         10.4980    7.9610   -2.7110 C.2    19  THR19       0.2460
      4  O         10.3370    8.9060   -3.4850 O.2    19  THR19      -0.2732
      5  CB        10.0900    5.7060   -3.9470 C.3    19  THR19       0.1783
      6  OG1        9.1780    4.5920   -4.0280 O.3    19  THR19      -0.2211
      7  CG2       11.5320    5.1520   -3.6810 C.3    19  THR19       0.0376
      8  N         11.3670    8.0070   -1.6850 N.am   20  PRO20      -0.2718
      9  CA        12.3130    9.1290   -1.5300 C.3    20  PRO20       0.1520
     10  C         13.2870    9.2310   -2.6870 C.2    20  PRO20       0.2440
     11  O         13.6110    8.2000   -3.2770 O.2    20  PRO20      -0.2731
     12  CB        13.0960    8.7740   -0.2610 C.3    20  PRO20       0.0310
     13  CG        12.2530    7.8240    0.4660 C.3    20  PRO20       0.0237
     14  CD        11.4230    7.0750   -0.5540 C.3    20  PRO20       0.0939
     15  N         13.8250   10.4330   -2.9570 N.am   21  PRO21      -0.2716
     16  CA        14.7860   10.5340   -4.0620 C.3    21  PRO21       0.1536
     17  C         16.0950    9.7770   -3.8240 C.2    21  PRO21       0.2598
     18  O         16.3520    9.3210   -2.7160 O.2    21  PRO21      -0.2715
     19  CB        15.0580   12.0340   -4.1770 C.3    21  PRO21       0.0310
     20  CG        14.4930   12.6590   -2.9260 C.3    21  PRO21       0.0237
     21  CD        13.4460   11.7530   -2.4150 C.3    21  PRO21       0.0939
     22  N         16.8960    9.6710   -4.8790 N.am   22  LYS22      -0.1978
     23  CA        18.2710    9.1990   -4.7830 C.3    22  LYS22       0.1596
     24  C         19.0890   10.0020   -3.7540 C.2    22  LYS22       0.2287
     25  O         18.8780   11.2170   -3.5840 O.2    22  LYS22      -0.2864
     26  CB        18.9700    9.3250   -6.1400 C.3    22  LYS22       0.0298
     27  CG        18.5810    8.2910   -7.1980 C.3    22  LYS22       0.0038
     28  CD        19.5130    8.4330   -8.4220 C.3    22  LYS22       0.0206
     29  CE        18.8800    7.9680   -9.7250 C.3    22  LYS22       0.1093
     30  NZ        17.8080    8.9050  -10.1710 N.3    22  LYS22      -0.1314
     31  N         21.7730   12.8640   -5.4500 N.3    25  ASN25      -0.1240
     32  CA        21.4120   14.2730   -5.7530 C.3    25  ASN25       0.1653
     33  C         21.9990   15.3070   -4.7870 C.2    25  ASN25       0.2266
     34  O         22.1550   15.0430   -3.5870 O.2    25  ASN25      -0.2867
     35  CB        19.8900   14.4680   -5.7620 C.3    25  ASN25       0.1155
     36  CG        19.1850   13.5760   -6.7600 C.2    25  ASN25       0.2627
     37  OD1       19.5120   13.5710   -7.9440 O.2    25  ASN25      -0.2716
     38  ND2       18.1990   12.8190   -6.2850 N.am   25  ASN25      -0.0877
     39  N         18.6370   19.8990   -4.7150 N.3    29  LYS29      -0.1245
     40  CA        17.6660   19.1500   -5.5230 C.3    29  LYS29       0.1561
     41  C         16.6390   18.4630   -4.6030 C.2    29  LYS29       0.2260
     42  O         15.4280   18.5300   -4.8290 O.2    29  LYS29      -0.2867
     43  CB        18.3900   18.0870   -6.3800 C.3    29  LYS29       0.0271
     44  CG        18.0420   18.0400   -7.8710 C.3    29  LYS29       0.0035
     45  CD        16.6330   18.5350   -8.1950 C.3    29  LYS29       0.0206
     46  CE        16.1900   18.0870   -9.5690 C.3    29  LYS29       0.1093
     47  NZ        15.5800   16.7290   -9.5330 N.3    29  LYS29      -0.1314
     48  N         14.0300   20.7540   -3.1360 N.3    32  GLU32      -0.1231
     49  CA        13.0670   21.0970   -4.1920 C.3    32  GLU32       0.1699
     50  C         12.0940   19.9290   -4.4350 C.2    32  GLU32       0.2592
     51  O         10.8690   20.0940   -4.3690 O.2    32  GLU32      -0.2718
     52  CB        13.7820   21.4340   -5.5140 C.3    32  GLU32       0.0402
     53  CG        13.1330   22.5380   -6.3710 C.3    32  GLU32       0.1161
     54  CD        11.6670   22.2980   -6.7380 C.2    32  GLU32       0.3649
     55  OE1       11.3820   21.9610   -7.9210 O.co2  32  GLU32      -0.2457
     56  OE2       10.7870   22.4870   -5.8560 O.co2  32  GLU32      -0.2457
     57  N         12.6420   18.7530   -4.7370 N.am   33  ILE33      -0.1980
     58  CA        11.8110   17.5570   -4.9370 C.3    33  ILE33       0.1595
     59  C         10.8500   17.4640   -3.7670 C.2    33  ILE33       0.2287
     60  O          9.6290   17.3690   -3.9310 O.2    33  ILE33      -0.2864
     61  CB        12.6590   16.2690   -4.9630 C.3    33  ILE33       0.0276
     62  CG1       13.5950   16.2520   -6.1690 C.3    33  ILE33       0.0022
     63  CG2       11.7610   15.0210   -4.9690 C.3    33  ILE33       0.0022
     64  CD1       14.7700   15.2880   -5.9910 C.3    33  ILE33       0.0001
     65  N          8.0940   20.0610   -3.5900 N.3    36  LYS36      -0.1231
     66  CA         7.0690   19.6440   -4.5630 C.3    36  LYS36       0.1693
     67  C          6.1700   18.5220   -4.0360 C.2    36  LYS36       0.2592
     68  O          4.9470   18.6140   -4.1450 O.2    36  LYS36      -0.2718
     69  CB         7.7020   19.2190   -5.8950 C.3    36  LYS36       0.0285
     70  CG         8.3240   20.3550   -6.6160 C.3    36  LYS36       0.0035
     71  CD         7.2760   21.1690   -7.2500 C.3    36  LYS36       0.0206
     72  CE         7.7860   22.1440   -8.2710 C.3    36  LYS36       0.1093
     73  NZ         6.6950   22.9600   -8.8380 N.3    36  LYS36      -0.1314
     74  N          6.7540   17.4660   -3.4560 N.am   37  HIS37      -0.1976
     75  CA         5.9250   16.4410   -2.8010 C.3    37  HIS37       0.1656
     76  C          5.0100   17.1000   -1.7740 C.2    37  HIS37       0.2291
     77  O          3.8300   16.7660   -1.7010 O.2    37  HIS37      -0.2864
     78  CB         6.7520   15.3520   -2.1000 C.3    37  HIS37       0.0771
     79  CG         7.4610   14.4200   -3.0320 C.ar   37  HIS37       0.0820
     80  ND1        6.8280   13.7800   -4.0740 N.ar   37  HIS37      -0.2267
     81  CD2        8.7480   13.9910   -3.0550 C.ar   37  HIS37       0.1154
     82  CE1        7.6990   13.0180   -4.7150 C.ar   37  HIS37       0.1986
     83  NE2        8.8720   13.1270   -4.1160 N.ar   37  HIS37      -0.2212
     84  N          1.9250   19.3050   -3.4170 N.3    40  ARG40      -0.1245
     85  CA         0.8580   18.4800   -4.0220 C.3    40  ARG40       0.1563
     86  C          0.1410   17.6090   -3.0050 C.2    40  ARG40       0.2260
     87  O         -1.0820   17.5330   -3.0030 O.2    40  ARG40      -0.2867
     88  CB         1.3960   17.6010   -5.1400 C.3    40  ARG40       0.0307
     89  CG         2.2200   18.3460   -6.1700 C.3    40  ARG40       0.0489
     90  CD         2.2070   17.6550   -7.5150 C.3    40  ARG40       0.2205
     91  NE         3.5630   17.4270   -8.0130 N.pl3  40  ARG40      -0.0865
     92  CZ         4.1520   18.0750   -9.0080 C.cat  40  ARG40       0.5346
     93  NH1        3.5380   19.0490   -9.6790 N.pl3  40  ARG40       0.1354
     94  NH2        5.3850   17.7290   -9.3430 N.pl3  40  ARG40       0.1354
     95  N         20.0200    2.3800   -7.7270 N.3    57  ILE57      -0.1245
     96  CA        19.0740    3.2230   -6.9920 C.3    57  ILE57       0.1561
     97  C         19.2220    2.9620   -5.5050 C.2    57  ILE57       0.2260
     98  O         18.7920    1.9180   -5.0090 O.2    57  ILE57      -0.2867
     99  CB        17.5990    2.9340   -7.4080 C.3    57  ILE57       0.0252
    100  CG1       17.3810    3.2110   -8.8920 C.3    57  ILE57       0.0019
    101  CG2       16.6170    3.7940   -6.6010 C.3    57  ILE57       0.0019
    102  CD1       16.8720    4.6010   -9.1750 C.3    57  ILE57       0.0001
    103  N         18.0350    5.1090   -2.2770 N.3    59  THR59      -0.1218
    104  CA        17.2220    6.2840   -1.9650 C.3    59  THR59       0.1862
    105  C         17.4780    6.7350   -0.5280 C.2    59  THR59       0.2287
    106  O         18.0750    5.9990    0.2670 O.2    59  THR59      -0.2866
    107  CB        15.7200    6.0160   -2.2260 C.3    59  THR59       0.1770
    108  OG1       15.3010    4.8020   -1.5890 O.3    59  THR59      -0.2211
    109  CG2       15.4530    5.9040   -3.7350 C.3    59  THR59       0.0375
    110  N          9.9520    4.0660  -19.0220 N.3   206  LYS206     -0.1231
    111  CA        10.7510    4.3760  -17.8430 C.3   206  LYS206      0.1693
    112  C         10.0000    3.9630  -16.5490 C.2   206  LYS206      0.2592
    113  O         10.4750    3.1220  -15.7970 O.2   206  LYS206     -0.2718
    114  CB        11.0670    5.8920  -17.8530 C.3   206  LYS206      0.0285
    115  CG        12.0780    6.3870  -16.8080 C.3   206  LYS206      0.0035
    116  CD        13.5500    6.1850  -17.2820 C.3   206  LYS206      0.0206
    117  CE        14.5490    7.0050  -16.4530 C.3   206  LYS206      0.1093
    118  NZ        14.5110    8.4910  -16.7280 N.3   206  LYS206     -0.1314
    119  N          8.8480    4.5770  -16.2760 N.am  207  THR207     -0.1953
    120  CA         7.9910    4.0930  -15.1750 C.3   207  THR207      0.1897
    121  C          7.8780    2.5260  -15.1680 C.2   207  THR207      0.2313
    122  O          8.0270    1.8710  -14.1140 O.2   207  THR207     -0.2863
    123  CB         6.5900    4.7210  -15.2440 C.3   207  THR207      0.1794
    124  OG1        6.6920    6.1500  -15.3330 O.3   207  THR207     -0.2208
    125  CG2        5.7540    4.3390  -14.0010 C.3   207  THR207      0.0378
    126  N         10.8430    0.4620  -13.9830 N.3   210  PHE210     -0.1241
    127  CA        10.9690    0.6020  -12.5160 C.3   210  PHE210      0.1605
    128  C          9.9530   -0.3240  -11.8340 C.2   210  PHE210      0.2264
    129  O         10.2860   -1.1000  -10.9240 O.2   210  PHE210     -0.2867
    130  CB        10.7460    2.0640  -12.0720 C.3   210  PHE210      0.0534
    131  CG        11.1960    2.3590  -10.6560 C.ar  210  PHE210     -0.0203
    132  CD1       12.5520    2.4360  -10.3420 C.ar  210  PHE210     -0.0042
    133  CD2       10.2670    2.6000   -9.6520 C.ar  210  PHE210     -0.0042
    134  CE1       12.9750    2.7300   -9.0380 C.ar  210  PHE210     -0.0003
    135  CE2       10.6710    2.8850   -8.3540 C.ar  210  PHE210     -0.0003
    136  CZ        12.0230    2.9570   -8.0420 C.ar  210  PHE210     -0.0000
    137  N          2.7440    6.8440   -6.2500 N.3   264  SER264     -0.1202
    138  CA         3.3980    7.6130   -7.3010 C.3   264  SER264      0.2020
    139  C          4.8190    7.1220   -7.4160 C.2   264  SER264      0.2619
    140  O          5.5870    7.2250   -6.4770 O.2   264  SER264     -0.2717
    141  CB         3.4060    9.1000   -6.9730 C.3   264  SER264      0.2103
    142  OG         4.2950    9.7830   -7.8520 O.3   264  SER264     -0.2182
    143  N          5.1630    6.5810   -8.5650 N.am  265  VAL265     -0.1965
    144  CA         6.4300    5.8990   -8.7280 C.3   265  VAL265      0.1727
    145  C          7.2880    6.5240   -9.8340 C.2   265  VAL265      0.2617
    146  O          8.4070    6.0520  -10.0760 O.2   265  VAL265     -0.2715
    147  CB         6.1670    4.4130   -9.0110 C.3   265  VAL265      0.0290
    148  CG1        5.8030    4.2000  -10.4810 C.3   265  VAL265      0.0023
    149  CG2        7.3450    3.5640   -8.5680 C.3   265  VAL265      0.0023
    150  N          6.7810    7.5770  -10.4980 N.am  266  SER266     -0.1936
    151  CA         7.4730    8.1390  -11.6700 C.3   266  SER266      0.2055
    152  C          8.2130    9.4070  -11.3160 C.2   266  SER266      0.2643
    153  O          7.8330   10.1060  -10.3960 O.2   266  SER266     -0.2714
    154  CB         6.4870    8.4630  -12.8000 C.3   266  SER266      0.2130
    155  OG         7.1890    8.9480  -13.9400 O.3   266  SER266     -0.2179
    156  N          9.2310    9.7310  -12.0980 N.am  267  VAL267     -0.1963
    157  CA         9.8640   11.0570  -12.0090 C.3   267  VAL267      0.1727
    158  C          9.2400   12.1380  -12.9460 C.2   267  VAL267      0.2616
    159  O          9.7510   13.2580  -13.0000 O.2   267  VAL267     -0.2715
    160  CB        11.3730   10.9590  -12.2740 C.3   267  VAL267      0.0290
    161  CG1       12.0210    9.8780  -11.3380 C.3   267  VAL267      0.0023
    162  CG2       11.6200   10.6450  -13.7240 C.3   267  VAL267      0.0023
    163  N          8.1390   11.8140  -13.6390 N.am  268  ARG268     -0.1963
    164  CA         7.5600   12.6770  -14.6640 C.3   268  ARG268      0.1729
    165  C          6.3620   13.4790  -14.1240 C.2   268  ARG268      0.2616
    166  O          5.4320   12.9230  -13.5360 O.2   268  ARG268     -0.2715
    167  CB         7.1130   11.8470  -15.8770 C.3   268  ARG268      0.0348
    168  CG         8.2750   11.1250  -16.5800 C.3   268  ARG268      0.0492
    169  CD         7.9390   10.5670  -17.9800 C.3   268  ARG268      0.2205
    170  NE         7.3020   11.5490  -18.8590 N.pl3 268  ARG268     -0.0865
    171  CZ         6.0610   11.4710  -19.3510 C.cat 268  ARG268      0.5346
    172  NH1        5.2600   10.4430  -19.0740 N.pl3 268  ARG268      0.1354
    173  NH2        5.6090   12.4500  -20.1340 N.pl3 268  ARG268      0.1354
    174  N          6.3860   14.7840  -14.3570 N.am  269  LYS269     -0.1977
    175  CA         5.3450   15.6780  -13.8590 C.3   269  LYS269      0.1596
    176  C          3.9850   15.1120  -14.1820 C.2   269  LYS269      0.2287
    177  O          3.1670   14.9320  -13.2940 O.2   269  LYS269     -0.2864
    178  CB         5.4770   17.0790  -14.4650 C.3   269  LYS269      0.0298
    179  CG         4.4910   18.1170  -13.8700 C.3   269  LYS269      0.0038
    180  CD         4.9740   19.5590  -14.1140 C.3   269  LYS269      0.0206
    181  CE         4.0880   20.6120  -13.4010 C.3   269  LYS269      0.1093
    182  NZ         4.7200   21.9970  -13.3740 N.3   269  LYS269     -0.1314
    183  N          3.0420   12.0880  -12.1930 N.3   272  ILE272     -0.1245
    184  CA         2.8640   12.4550  -10.7910 C.3   272  ILE272      0.1561
    185  C          1.5570   13.2110  -10.6290 C.2   272  ILE272      0.2260
    186  O          0.8410   13.0340   -9.6470 O.2   272  ILE272     -0.2867
    187  CB         4.0000   13.3610  -10.2960 C.3   272  ILE272      0.0252
    188  CG1        5.3240   12.5940  -10.2270 C.3   272  ILE272      0.0019
    189  CG2        3.6610   14.0030   -8.9390 C.3   272  ILE272      0.0019
    190  CD1        6.4950   13.5250  -10.1060 C.3   272  ILE272      0.0001
@<TRIPOS>BOND
     1   173   171    1
     2   171   172    1
     3   171   170    2
     4   110   111    1
     5   170   169    1
     6   169   168    1
     7   114   111    1
     8   114   115    1
     9   111   112    1
    10   116   115    1
    11   116   117    1
    12   118   117    1
    13   168   167    1
    14   112   119   am
    15   112   113    2
    16   119   120    1
    17   167   164    1
    18   124   123    1
    19   123   120    1
    20   123   125    1
    21   120   121    1
    22   121   122    2
    23   164   165    1
    24   164   163    1
    25   178   179    1
    26   178   175    1
    27   174   165   am
    28   174   175    1
    29   176   175    1
    30   176   177    2
    31   165   166    2
    32   180   179    1
    33   180   181    1
    34   126   127    1
    35   155   154    1
    36   162   160    1
    37   163   158   am
    38   181   182    1
    39   159   158    2
    40   158   157    1
    41   154   151    1
    42   127   130    1
    43   127   128    1
    44   160   157    1
    45   160   161    1
    46   183   184    1
    47   156   157    1
    48   156   152   am
    49   130   131    1
    50   128   129    2
    51   151   152    1
    52   151   150    1
    53   152   153    2
    54   184   185    1
    55   184   187    1
    56   131   132   ar
    57   131   133   ar
    58   185   186    2
    59   150   145   am
    60   148   147    1
    61   132   134   ar
    62   187   188    1
    63   187   189    1
    64   188   190    1
    65    30    29    1
    66   146   145    2
    67   145   144    1
    68    29    28    1
    69    93    92    1
    70   133   135   ar
    71    46    47    1
    72    46    45    1
    73    94    92    1
    74   102   100    1
    75   134   136   ar
    76   147   144    1
    77   147   149    1
    78    92    91    2
    79   100    99    1
    80    73    72    1
    81   144   143    1
    82   143   139   am
    83    28    27    1
    84   135   136   ar
    85    72    71    1
    86    45    44    1
    87    91    90    1
    88    37    36    2
    89    55    54   ar
    90    44    43    1
    91   142   141    1
    92    95    96    1
    93    90    89    1
    94   139   138    1
    95   139   140    2
    96    99    96    1
    97    99   101    1
    98   138   141    1
    99   138   137    1
   100    71    70    1
   101    27    26    1
   102    96    97    1
   103    36    38   am
   104    36    35    1
   105    54    53    1
   106    54    56   ar
   107    70    69    1
   108    43    40    1
   109    53    52    1
   110    89    88    1
   111    62    64    1
   112    62    61    1
   113    26    23    1
   114    69    66    1
   115    35    32    1
   116    32    31    1
   117    32    33    1
   118    40    39    1
   119    40    41    1
   120    52    49    1
   121    97    98    2
   122    88    85    1
   123    63    61    1
   124    61    58    1
   125    58    57    1
   126    58    59    1
   127    22    23    1
   128    22    17   am
   129    42    41    2
   130    33    34    2
   131    23    24    1
   132    57    50   am
   133    82    83   ar
   134    82    80   ar
   135    66    67    1
   136    66    65    1
   137    50    51    2
   138    50    49    1
   139    49    48    1
   140    19    16    1
   141    19    20    1
   142    68    67    2
   143    83    81   ar
   144    80    79   ar
   145    16    17    1
   146    16    15    1
   147    67    74   am
   148     6     5    1
   149    85    84    1
   150    85    86    1
   151     5     7    1
   152     5     2    1
   153    60    59    2
   154    17    18    2
   155    24    25    2
   156   109   107    1
   157     4     3    2
   158    74    75    1
   159    11    10    2
   160     1     2    1
   161    81    79   ar
   162    79    78    1
   163    86    87    2
   164    15    10   am
   165    15    21    1
   166    20    21    1
   167     2     3    1
   168    75    78    1
   169    75    76    1
   170     3     8   am
   171    10     9    1
   172   103   104    1
   173   107   104    1
   174   107   108    1
   175   104   105    1
   176    76    77    2
   177     8     9    1
   178     8    14    1
   179     9    12    1
   180    14    13    1
   181   105   106    2
   182    12    13    1
