@<TRIPOS>MOLECULE
tmp/3ijjA00.pdb
 86 83 0 0 0
SMALL
GASTEIGER

@<TRIPOS>ATOM
      1  N         30.9610   15.1350   31.4690 N.3     1  PRO1       -0.2102
      2  CA        29.7770   15.7810   32.0370 C.3     1  PRO1        0.1504
      3  C         30.1490   17.0460   32.7890 C.2     1  PRO1        0.2575
      4  O         31.3370   17.3230   32.9790 O.2     1  PRO1       -0.2718
      5  CB        29.2380   14.7360   33.0160 C.3     1  PRO1        0.0282
      6  CG        29.7650   13.4420   32.5120 C.3     1  PRO1        0.0208
      7  CD        31.1150   13.7520   31.9500 C.3     1  PRO1        0.0893
      8  N         29.1380   17.7850   33.2320 N.am    2  MET2       -0.1980
      9  CA        29.3420   19.0980   33.8270 C.3     2  MET2        0.1605
     10  C         28.3710   19.3190   34.9660 C.2     2  MET2        0.2287
     11  O         27.1590   19.1920   34.7730 O.2     2  MET2       -0.2864
     12  CB        29.1520   20.1690   32.7460 C.3     2  MET2        0.0413
     13  CG        29.3220   21.6130   33.1700 C.3     2  MET2        0.0598
     14  SD        28.8260   22.7450   31.8420 S.3     2  MET2       -0.1393
     15  CE        29.4860   21.9190   30.3990 C.3     2  MET2        0.0692
     16  N         31.2100    7.7370   34.0630 N.3    32  LYS32      -0.1245
     17  CA        32.0610    8.4400   33.1090 C.3    32  LYS32       0.1561
     18  C         33.4580    8.6110   33.6960 C.2    32  LYS32       0.2260
     19  O         33.6020    8.6930   34.9120 O.2    32  LYS32      -0.2867
     20  CB        31.4670    9.8170   32.8050 C.3    32  LYS32       0.0271
     21  CG        30.0520    9.7830   32.2530 C.3    32  LYS32       0.0035
     22  CD        30.0480    9.8520   30.7500 C.3    32  LYS32       0.0206
     23  CE        28.6250    9.9220   30.2270 C.3    32  LYS32       0.1093
     24  NZ        28.6290   10.0280   28.7520 N.3    32  LYS32      -0.1314
     25  N         36.8530   13.4790   32.2270 N.3    36  TYR36      -0.1241
     26  CA        35.8220   14.1690   31.4510 C.3    36  TYR36       0.1605
     27  C         34.8960   15.0370   32.2970 C.2    36  TYR36       0.2264
     28  O         34.0880   15.7750   31.7480 O.2    36  TYR36      -0.2867
     29  CB        34.9750   13.1550   30.6770 C.3    36  TYR36       0.0534
     30  CG        35.6410   12.5670   29.4590 C.ar   36  TYR36      -0.0201
     31  CD1       35.3180   13.0170   28.1800 C.ar   36  TYR36      -0.0009
     32  CD2       36.5770   11.5450   29.5810 C.ar   36  TYR36      -0.0009
     33  CE1       35.9140   12.4670   27.0510 C.ar   36  TYR36       0.0417
     34  CE2       37.1850   10.9880   28.4620 C.ar   36  TYR36       0.0417
     35  CZ        36.8490   11.4520   27.2010 C.ar   36  TYR36       0.1957
     36  OH        37.4540   10.8940   26.0990 O.3    36  TYR36      -0.2866
     37  N         24.7430   18.2540   33.4510 N.3    62  HIS62      -0.1226
     38  CA        24.6500   17.9620   32.0210 C.3    62  HIS62       0.1752
     39  C         25.4710   16.7250   31.7590 C.2    62  HIS62       0.2597
     40  O         26.6020   16.6270   32.2290 O.2    62  HIS62      -0.2718
     41  CB        25.2560   19.0950   31.1920 C.3    62  HIS62       0.0759
     42  CG        24.5180   20.3950   31.2690 C.ar   62  HIS62       0.0818
     43  ND1       24.6120   21.2520   32.3430 N.ar   62  HIS62      -0.2268
     44  CD2       23.7170   21.0100   30.3680 C.ar   62  HIS62       0.1154
     45  CE1       23.8780   22.3280   32.1110 C.ar   62  HIS62       0.1986
     46  NE2       23.3240   22.2050   30.9170 N.ar   62  HIS62      -0.2212
     47  N         24.9150   15.7890   31.0030 N.am   63  SER63      -0.1938
     48  CA        25.6370   14.5730   30.6550 C.3    63  SER63       0.2055
     49  C         25.1660   14.0950   29.2980 C.2    63  SER63       0.2642
     50  O         24.0030   14.2830   28.9480 O.2    63  SER63      -0.2714
     51  CB        25.3900   13.4930   31.7110 C.3    63  SER63       0.2130
     52  OG        26.1230   12.3100   31.4380 O.3    63  SER63      -0.2179
     53  N         26.0660   13.4900   28.5290 N.am   64  ILE64      -0.1977
     54  CA        25.6880   12.8430   27.2780 C.3    64  ILE64       0.1596
     55  C         25.2220   11.4450   27.6620 C.2    64  ILE64       0.2287
     56  O         26.0350   10.5500   27.9070 O.2    64  ILE64      -0.2864
     57  CB        26.8500   12.8100   26.2570 C.3    64  ILE64       0.0276
     58  CG1       27.2550   14.2350   25.8670 C.3    64  ILE64       0.0022
     59  CG2       26.4470   12.0250   25.0140 C.3    64  ILE64       0.0022
     60  CD1       28.5880   14.3300   25.1280 C.3    64  ILE64       0.0001
     61  N         22.3470   15.6920   27.1450 N.3   101  MET101     -0.1245
     62  CA        22.8590   16.4040   25.9720 C.3   101  MET101      0.1570
     63  C         23.1090   15.4650   24.8100 C.2   101  MET101      0.2261
     64  O         23.6810   14.3860   24.9870 O.2   101  MET101     -0.2867
     65  CB        24.1680   17.1150   26.3100 C.3   101  MET101      0.0387
     66  CG        24.0520   18.1500   27.4140 C.3   101  MET101      0.0595
     67  SD        22.9020   19.5100   27.0870 S.3   101  MET101     -0.1393
     68  CE        23.7270   20.3550   25.7410 C.3   101  MET101      0.0692
     69  N         27.5780   19.2590   22.2470 N.3   106  VAL106     -0.1245
     70  CA        28.6240   19.4980   23.2360 C.3   106  VAL106      0.1561
     71  C         29.9580   19.7040   22.5300 C.2   106  VAL106      0.2260
     72  O         30.5140   18.7750   21.9200 O.2   106  VAL106     -0.2867
     73  CB        28.7340   18.3510   24.2650 C.3   106  VAL106      0.0252
     74  CG1       29.8060   18.6740   25.2920 C.3   106  VAL106      0.0019
     75  CG2       27.3990   18.1050   24.9540 C.3   106  VAL106      0.0019
     76  N         31.5130   16.3120   20.4090 N.3   113  PHE113     -0.1241
     77  CA        31.5680   14.8860   20.7020 C.3   113  PHE113      0.1605
     78  C         30.8200   14.0140   19.6940 C.2   113  PHE113      0.2264
     79  O         30.8720   12.7920   19.8000 O.2   113  PHE113     -0.2867
     80  CB        31.0550   14.6190   22.1160 C.3   113  PHE113      0.0534
     81  CG        32.0440   14.9740   23.1870 C.ar  113  PHE113     -0.0203
     82  CD1       33.2040   14.2210   23.3520 C.ar  113  PHE113     -0.0042
     83  CD2       31.8340   16.0660   24.0200 C.ar  113  PHE113     -0.0042
     84  CE1       34.1340   14.5440   24.3370 C.ar  113  PHE113     -0.0003
     85  CE2       32.7570   16.3910   25.0080 C.ar  113  PHE113     -0.0003
     86  CZ        33.9070   15.6340   25.1660 C.ar  113  PHE113     -0.0000
@<TRIPOS>BOND
     1    78    79    2
     2    78    77    1
     3    76    77    1
     4    77    80    1
     5    72    71    2
     6    80    81    1
     7    69    70    1
     8    71    70    1
     9    81    82   ar
    10    81    83   ar
    11    70    73    1
    12    82    84   ar
    13    83    85   ar
    14    73    75    1
    15    73    74    1
    16    84    86   ar
    17    63    64    2
    18    63    62    1
    19    85    86   ar
    20    59    57    1
    21    60    58    1
    22    68    67    1
    23    58    57    1
    24    62    65    1
    25    62    61    1
    26    36    35    1
    27    57    54    1
    28    65    66    1
    29    33    35   ar
    30    33    31   ar
    31    67    66    1
    32    35    34   ar
    33    54    55    1
    34    54    53    1
    35    55    56    2
    36    31    30   ar
    37    34    32   ar
    38    53    49   am
    39    24    23    1
    40    50    49    2
    41    49    48    1
    42    30    32   ar
    43    30    29    1
    44    23    22    1
    45    44    46   ar
    46    44    42   ar
    47    15    14    1
    48    48    47    1
    49    48    51    1
    50    29    26    1
    51    22    21    1
    52    46    45   ar
    53    47    39   am
    54    41    42    1
    55    41    38    1
    56    42    43   ar
    57    52    51    1
    58    26    25    1
    59    26    27    1
    60     1     7    1
    61     1     2    1
    62    28    27    2
    63    39    38    1
    64    39    40    2
    65    14    13    1
    66     7     6    1
    67    38    37    1
    68     2     3    1
    69     2     5    1
    70    45    43   ar
    71    21    20    1
    72     6     5    1
    73    12    13    1
    74    12     9    1
    75     3     4    2
    76     3     8   am
    77    20    17    1
    78    17    18    1
    79    17    16    1
    80     8     9    1
    81    18    19    2
    82     9    10    1
    83    11    10    2
