@<TRIPOS>MOLECULE
tmp/3ijlA00.pdb
 85 78 0 0 0
SMALL
GASTEIGER

@<TRIPOS>ATOM
      1  N         25.1630   26.3090    3.0140 N.3    15  PHE15      -0.1241
      2  CA        26.4810   25.7100    3.1910 C.3    15  PHE15       0.1605
      3  C         26.9850   25.2260    1.8380 C.2    15  PHE15       0.2264
      4  O         26.2770   24.5120    1.1290 O.2    15  PHE15      -0.2867
      5  CB        26.3930   24.5370    4.1710 C.3    15  PHE15       0.0534
      6  CG        27.7210   23.9210    4.5010 C.ar   15  PHE15      -0.0203
      7  CD1       28.7050   24.6590    5.1490 C.ar   15  PHE15      -0.0042
      8  CD2       27.9900   22.6000    4.1590 C.ar   15  PHE15      -0.0042
      9  CE1       29.9410   24.0890    5.4520 C.ar   15  PHE15      -0.0003
     10  CE2       29.2210   22.0210    4.4570 C.ar   15  PHE15      -0.0003
     11  CZ        30.1990   22.7660    5.1040 C.ar   15  PHE15      -0.0000
     12  N         34.7360   27.3550   10.0030 N.3   128  THR128     -0.1218
     13  CA        34.9340   27.8640    8.6520 C.3   128  THR128      0.1862
     14  C         34.4840   29.2900    8.3640 C.2   128  THR128      0.2287
     15  O         33.4360   29.7350    8.8280 O.2   128  THR128     -0.2866
     16  CB        34.2480   26.9360    7.6270 C.3   128  THR128      0.1770
     17  OG1       34.8870   25.6540    7.6490 O.3   128  THR128     -0.2211
     18  CG2       34.3350   27.5180    6.2160 C.3   128  THR128      0.0375
     19  N         39.2820   27.7540    9.5960 N.3   152  LYS152     -0.1245
     20  CA        39.3940   26.9420    8.3950 C.3   152  LYS152      0.1561
     21  C         38.8970   27.7310    7.1940 C.2   152  LYS152      0.2260
     22  O         37.9190   28.4760    7.2890 O.2   152  LYS152     -0.2867
     23  CB        38.5620   25.6680    8.5380 C.3   152  LYS152      0.0271
     24  CG        38.4370   24.8490    7.2640 C.3   152  LYS152      0.0035
     25  CD        37.6310   23.5870    7.5320 C.3   152  LYS152      0.0206
     26  CE        37.4100   22.7710    6.2750 C.3   152  LYS152      0.1093
     27  NZ        36.6800   21.5090    6.5930 N.3   152  LYS152     -0.1314
     28  N         38.2870   27.1490    2.8800 N.3   154  LYS154     -0.1245
     29  CA        38.2810   26.2210    1.7620 C.3   154  LYS154      0.1561
     30  C         38.8140   26.9320    0.5270 C.2   154  LYS154      0.2260
     31  O         38.1800   27.8460   -0.0030 O.2   154  LYS154     -0.2867
     32  CB        36.8620   25.6950    1.5270 C.3   154  LYS154      0.0271
     33  CG        36.4020   24.7400    2.6280 C.3   154  LYS154      0.0035
     34  CD        34.9340   24.3570    2.5170 C.3   154  LYS154      0.0206
     35  CE        34.0280   25.5360    2.8340 C.3   154  LYS154      0.1093
     36  NZ        32.6120   25.1150    3.0110 N.3   154  LYS154     -0.1314
     37  N         34.2560   16.0940   10.0820 N.3   280  CYS280     -0.1221
     38  CA        32.8590   15.7290   10.2580 C.3   280  CYS280      0.1808
     39  C         31.9960   16.3400    9.1710 C.2   280  CYS280      0.2601
     40  O         32.4460   17.1930    8.4090 O.2   280  CYS280     -0.2717
     41  CB        32.3550   16.2500   11.6050 C.3   280  CYS280      0.0970
     42  SG        32.2750   18.0750   11.7000 S.3   280  CYS280     -0.0800
     43  N         30.7510   15.8830    9.1080 N.am  281  MET281     -0.1965
     44  CA        29.7820   16.4300    8.1660 C.3   281  MET281      0.1736
     45  C         28.8880   17.2710    9.0660 C.2   281  MET281      0.2617
     46  O         29.1050   17.3290   10.2770 O.2   281  MET281     -0.2715
     47  CB        28.9160   15.3270    7.5530 C.3   281  MET281      0.0427
     48  CG        29.6630   14.1110    7.0560 C.3   281  MET281      0.0599
     49  SD        30.8780   14.5390    5.8210 S.3   281  MET281     -0.1393
     50  CE        31.7410   12.9820    5.6690 C.3   281  MET281      0.0692
     51  N         27.9000   17.9420    8.4850 N.am  282  THR282     -0.1951
     52  CA        26.9510   18.6780    9.3080 C.3   282  THR282      0.1897
     53  C         26.2620   17.5040   10.0090 C.2   282  THR282      0.2313
     54  O         25.7020   16.6280    9.3470 O.2   282  THR282     -0.2863
     55  CB        25.9400   19.4460    8.4450 C.3   282  THR282      0.1794
     56  OG1       25.3390   18.5470    7.5040 O.3   282  THR282     -0.2208
     57  CG2       26.6360   20.5780    7.6910 C.3   282  THR282      0.0378
     58  N         38.2590   19.2900   12.9160 N.3   302  ASP302     -0.1239
     59  CA        37.2050   20.1280   12.3580 C.3   302  ASP302      0.1674
     60  C         35.9840   19.3950   12.9110 C.2   302  ASP302      0.2266
     61  O         35.4190   18.5150   12.2600 O.2   302  ASP302     -0.2867
     62  CB        37.2170   20.0950   10.8240 C.3   302  ASP302      0.1410
     63  CG        36.3200   21.1620   10.2100 C.2   302  ASP302      0.3668
     64  OD1       36.4050   22.3310   10.6410 O.co2 302  ASP302     -0.2456
     65  OD2       35.5360   20.8420    9.2900 O.co2 302  ASP302     -0.2456
     66  N         32.9620   20.8540   14.2770 N.3   304  ASP304     -0.1225
     67  CA        31.9910   21.9230   14.4920 C.3   304  ASP304      0.1805
     68  C         30.6850   21.6800   13.7370 C.2   304  ASP304      0.2598
     69  O         29.8590   22.5850   13.6210 O.2   304  ASP304     -0.2718
     70  CB        32.6020   23.2330   14.0010 C.3   304  ASP304      0.1424
     71  CG        32.9070   23.1970   12.5140 C.2   304  ASP304      0.3668
     72  OD1       33.0760   22.0800   11.9760 O.co2 304  ASP304     -0.2456
     73  OD2       32.9900   24.2710   11.8830 O.co2 304  ASP304     -0.2456
     74  N         30.4950   20.4630   13.2400 N.am  305  GLY305     -0.1957
     75  CA        29.3070   20.1470   12.4630 C.3   305  GLY305      0.1869
     76  C         27.9540   20.4880   13.0550 C.2   305  GLY305      0.2309
     77  O         27.0390   20.9030   12.3330 O.2   305  GLY305     -0.2863
     78  N         26.4640   24.2020   12.8660 N.3   308  LEU308     -0.1245
     79  CA        25.8240   24.6940   11.6530 C.3   308  LEU308      0.1561
     80  C         24.3690   24.2700   11.4870 C.2   308  LEU308      0.2260
     81  O         23.7180   24.6700   10.5230 O.2   308  LEU308     -0.2867
     82  CB        26.6210   24.2760   10.4130 C.3   308  LEU308      0.0270
     83  CG        27.8760   25.1050   10.1250 C.3   308  LEU308      0.0019
     84  CD1       28.9360   24.8310   11.1770 C.3   308  LEU308      0.0001
     85  CD2       28.4010   24.7690    8.7420 C.3   308  LEU308      0.0001
@<TRIPOS>BOND
     1    31    30    2
     2    30    29    1
     3     4     3    2
     4    32    29    1
     5    32    33    1
     6    29    28    1
     7     3     2    1
     8    34    33    1
     9    34    35    1
    10    35    36    1
    11     1     2    1
    12     2     5    1
    13     8    10   ar
    14     8     6   ar
    15     5     6    1
    16    10    11   ar
    17     6     7   ar
    18    11     9   ar
    19     7     9   ar
    20    50    49    1
    21    49    48    1
    22    18    16    1
    23    26    27    1
    24    26    25    1
    25    48    47    1
    26    21    22    2
    27    21    20    1
    28    24    25    1
    29    24    23    1
    30    56    55    1
    31    47    44    1
    32    16    17    1
    33    16    13    1
    34    57    55    1
    35    44    45    1
    36    44    43    1
    37    14    13    1
    38    14    15    2
    39    20    23    1
    40    20    19    1
    41    40    39    2
    42    55    52    1
    43    51    45   am
    44    51    52    1
    45    13    12    1
    46    85    83    1
    47    45    46    2
    48    43    39   am
    49    39    38    1
    50    65    63   ar
    51    52    53    1
    52    54    53    2
    53    37    38    1
    54    83    82    1
    55    83    84    1
    56    63    64   ar
    57    63    62    1
    58    38    41    1
    59    82    79    1
    60    81    80    2
    61    62    59    1
    62    80    79    1
    63    41    42    1
    64    79    78    1
    65    73    71   ar
    66    72    71   ar
    67    61    60    2
    68    77    76    2
    69    59    60    1
    70    59    58    1
    71    75    76    1
    72    75    74    1
    73    71    70    1
    74    74    68   am
    75    69    68    2
    76    68    67    1
    77    70    67    1
    78    66    67    1
