@<TRIPOS>MOLECULE
tmp/3ijoB02.pdb
 108 105 0 0 0
SMALL
GASTEIGER

@<TRIPOS>ATOM
      1  N         -6.5370   64.1260  -11.5610 N.3    32  TYR32      -0.1241
      2  CA        -6.0810   62.8530  -12.1040 C.3    32  TYR32       0.1605
      3  C         -4.5630   62.8090  -12.2680 C.2    32  TYR32       0.2264
      4  O         -3.9050   61.8840  -11.7890 O.2    32  TYR32      -0.2867
      5  CB        -6.7590   62.5680  -13.4440 C.3    32  TYR32       0.0534
      6  CG        -6.2840   61.2940  -14.1040 C.ar   32  TYR32      -0.0201
      7  CD1       -7.0470   60.1380  -14.0590 C.ar   32  TYR32      -0.0009
      8  CD2       -5.0600   61.2480  -14.7670 C.ar   32  TYR32      -0.0009
      9  CE1       -6.6130   58.9730  -14.6670 C.ar   32  TYR32       0.0417
     10  CE2       -4.6070   60.0890  -15.3650 C.ar   32  TYR32       0.0417
     11  CZ        -5.3940   58.9570  -15.3150 C.ar   32  TYR32       0.1957
     12  OH        -4.9550   57.8070  -15.9100 O.3    32  TYR32      -0.2866
     13  N          3.8690   54.4240  -22.9690 N.3   101  LYS101     -0.1231
     14  CA         2.6290   53.8760  -23.4720 C.3   101  LYS101      0.1678
     15  C          1.5070   54.7810  -22.9740 C.2   101  LYS101      0.2434
     16  O          1.6480   55.4260  -21.9440 O.2   101  LYS101     -0.2733
     17  CB         2.4400   52.4520  -22.9600 C.3   101  LYS101      0.0284
     18  CG         3.3970   51.4380  -23.5860 C.3   101  LYS101      0.0035
     19  CD         3.2090   51.3350  -25.0900 C.3   101  LYS101      0.0206
     20  CE         4.0760   50.2210  -25.6840 C.3   101  LYS101      0.1093
     21  NZ         5.5490   50.4220  -25.4220 N.3   101  LYS101     -0.1314
     22  N          0.3870   54.8360  -23.7030 N.am  102  PRO102     -0.2718
     23  CA        -0.7110   55.7240  -23.3040 C.3   102  PRO102      0.1535
     24  C         -1.3200   55.3510  -21.9520 C.2   102  PRO102      0.2599
     25  O         -1.4800   54.1670  -21.6480 O.2   102  PRO102     -0.2715
     26  CB        -1.7400   55.5160  -24.4230 C.3   102  PRO102      0.0310
     27  CG        -1.3940   54.1450  -24.9930 C.3   102  PRO102      0.0237
     28  CD         0.1050   54.1740  -24.9860 C.3   102  PRO102      0.0939
     29  N         -1.6480   56.3530  -21.1400 N.am  103  PHE103     -0.1960
     30  CA        -2.2760   56.0940  -19.8510 C.3   103  PHE103      0.1771
     31  C         -3.7890   56.3290  -19.8820 C.2   103  PHE103      0.2619
     32  O         -4.5010   55.9490  -18.9480 O.2   103  PHE103     -0.2715
     33  CB        -1.5950   56.8970  -18.7310 C.3   103  PHE103      0.0574
     34  CG        -1.6930   58.3860  -18.8920 C.ar  103  PHE103     -0.0200
     35  CD1       -2.8260   59.0660  -18.4790 C.ar  103  PHE103     -0.0042
     36  CD2       -0.6400   59.1120  -19.4270 C.ar  103  PHE103     -0.0042
     37  CE1       -2.9130   60.4510  -18.6130 C.ar  103  PHE103     -0.0003
     38  CE2       -0.7210   60.4940  -19.5650 C.ar  103  PHE103     -0.0003
     39  CZ        -1.8630   61.1570  -19.1610 C.ar  103  PHE103     -0.0000
     40  N         -4.2680   56.9470  -20.9630 N.am  104  MET104     -0.1963
     41  CA        -5.6970   57.2220  -21.1620 C.3   104  MET104      0.1736
     42  C         -6.0010   57.3540  -22.6510 C.2   104  MET104      0.2617
     43  O         -5.1950   57.8930  -23.4180 O.2   104  MET104     -0.2715
     44  CB        -6.1270   58.4990  -20.4220 C.3   104  MET104      0.0427
     45  CG        -7.6500   58.7190  -20.3350 C.3   104  MET104      0.0599
     46  SD        -8.1110   60.2030  -19.3950 S.3   104  MET104     -0.1393
     47  CE        -7.1810   59.9600  -17.8800 C.3   104  MET104      0.0692
     48  N         -7.1700   56.8730  -23.0580 N.am  105  SER105     -0.1950
     49  CA        -7.5840   56.9620  -24.4550 C.3   105  SER105      0.1924
     50  C         -8.5050   58.1480  -24.6850 C.2   105  SER105      0.2314
     51  O         -9.2390   58.5610  -23.7840 O.2   105  SER105     -0.2863
     52  CB        -8.3100   55.6870  -24.8790 C.3   105  SER105      0.2116
     53  OG        -7.4520   54.5660  -24.7930 O.3   105  SER105     -0.2180
     54  N          3.8060   52.9630  -15.7630 N.3   235  VAL235     -0.1231
     55  CA         2.4790   53.1260  -16.3620 C.3   235  VAL235      0.1692
     56  C          1.8370   51.7750  -16.6110 C.2   235  VAL235      0.2591
     57  O          0.6770   51.5590  -16.2740 O.2   235  VAL235     -0.2718
     58  CB         2.5250   53.8990  -17.7120 C.3   235  VAL235      0.0266
     59  CG1        1.1940   53.7260  -18.4870 C.3   235  VAL235      0.0020
     60  CG2        2.8270   55.3660  -17.4730 C.3   235  VAL235      0.0020
     61  N          2.6000   50.8540  -17.1880 N.am  236  LEU236     -0.1980
     62  CA         2.1000   49.5020  -17.4020 C.3   236  LEU236      0.1596
     63  C          1.6200   48.8640  -16.0870 C.2   236  LEU236      0.2287
     64  O          0.5300   48.3000  -16.0210 O.2   236  LEU236     -0.2864
     65  CB         3.1790   48.6340  -18.0380 C.3   236  LEU236      0.0297
     66  CG         3.6420   49.1360  -19.4030 C.3   236  LEU236      0.0022
     67  CD1        4.5310   48.1100  -20.0620 C.3   236  LEU236      0.0001
     68  CD2        2.4440   49.4460  -20.2820 C.3   236  LEU236      0.0001
     69  N         -1.5150   50.3960  -14.8280 N.3   239  SER239     -0.1202
     70  CA        -2.6230   49.9770  -15.6620 C.3   239  SER239      0.2020
     71  C         -3.1070   48.5970  -15.2310 C.2   239  SER239      0.2618
     72  O         -4.2960   48.3870  -15.0070 O.2   239  SER239     -0.2717
     73  CB        -2.2030   49.9550  -17.1270 C.3   239  SER239      0.2103
     74  OG        -3.3190   49.6940  -17.9530 O.3   239  SER239     -0.2182
     75  N         -2.1720   47.6600  -15.1030 N.am  240  GLU240     -0.1979
     76  CA        -2.5310   46.2790  -14.7940 C.3   240  GLU240      0.1602
     77  C         -3.1360   46.0800  -13.3970 C.2   240  GLU240      0.2287
     78  O         -3.9670   45.1910  -13.2000 O.2   240  GLU240     -0.2864
     79  CB        -1.3400   45.3480  -15.0610 C.3   240  GLU240      0.0415
     80  CG        -0.9480   45.3720  -16.5430 C.3   240  GLU240      0.1163
     81  CD         0.1500   44.4070  -16.8900 C.2   240  GLU240      0.3649
     82  OE1        0.7400   43.8140  -15.9590 O.co2 240  GLU240     -0.2457
     83  OE2        0.4210   44.2350  -18.1020 O.co2 240  GLU240     -0.2457
     84  N         -5.2090   53.0470  -12.8100 N.3   244  LEU244     -0.1231
     85  CA        -5.6290   53.9850  -13.8420 C.3   244  LEU244      0.1693
     86  C         -7.1460   54.0220  -13.9640 C.2   244  LEU244      0.2592
     87  O         -7.7330   55.0910  -14.1070 O.2   244  LEU244     -0.2718
     88  CB        -4.9940   53.6520  -15.1880 C.3   244  LEU244      0.0284
     89  CG        -3.4690   53.7680  -15.2580 C.3   244  LEU244      0.0019
     90  CD1       -3.0070   53.6140  -16.6970 C.3   244  LEU244      0.0001
     91  CD2       -2.9840   55.0940  -14.6760 C.3   244  LEU244      0.0001
     92  N         -7.7850   52.8570  -13.9130 N.am  245  ASP245     -0.1974
     93  CA        -9.2460   52.8010  -13.9970 C.3   245  ASP245      0.1709
     94  C         -9.8300   53.4180  -12.7390 C.2   245  ASP245      0.2293
     95  O        -10.8260   54.1400  -12.7930 O.2   245  ASP245     -0.2864
     96  CB        -9.7400   51.3600  -14.1750 C.3   245  ASP245      0.1436
     97  CG       -11.1680   51.2480  -14.6570 C.2   245  ASP245      0.3671
     98  OD1      -11.8300   52.2310  -14.9490 O.co2 245  ASP245     -0.2456
     99  OD2      -11.6250   50.1250  -14.8810 O.co2 245  ASP245     -0.2456
    100  N         -9.5850   57.2270  -13.0920 N.3   248  LYS248     -0.1245
    101  CA       -10.5310   57.7440  -14.0760 C.3   248  LYS248      0.1561
    102  C        -11.9250   57.8860  -13.4670 C.2   248  LYS248      0.2260
    103  O        -12.5960   58.9090  -13.6270 O.2   248  LYS248     -0.2867
    104  CB       -10.5710   56.8310  -15.3090 C.3   248  LYS248      0.0271
    105  CG       -11.5340   57.2900  -16.4070 C.3   248  LYS248      0.0035
    106  CD       -10.9070   58.3700  -17.2630 C.3   248  LYS248      0.0206
    107  CE       -11.9500   59.1260  -18.0780 C.3   248  LYS248      0.1093
    108  NZ       -12.1960   58.5310  -19.4130 N.3   248  LYS248     -0.1314
@<TRIPOS>BOND
     1    20    21    1
     2    20    19    1
     3    19    18    1
     4    27    28    1
     5    27    26    1
     6    28    22    1
     7    52    53    1
     8    52    49    1
     9    50    49    1
    10    50    51    2
    11    49    48    1
    12    26    23    1
    13    22    23    1
    14    22    15   am
    15    18    17    1
    16    14    15    1
    17    14    13    1
    18    14    17    1
    19    43    42    2
    20    23    24    1
    21    48    42   am
    22    15    16    2
    23    42    41    1
    24    24    25    2
    25    24    29   am
    26    41    40    1
    27    41    44    1
    28    29    30    1
    29    40    31   am
    30    44    45    1
    31    45    46    1
    32    68    66    1
    33    67    66    1
    34    31    30    1
    35    31    32    2
    36    30    33    1
    37    38    36   ar
    38    38    39   ar
    39    36    34   ar
    40   108   107    1
    41    66    65    1
    42    46    47    1
    43    39    37   ar
    44    34    33    1
    45    34    35   ar
    46    37    35   ar
    47    59    58    1
    48    83    81   ar
    49   107   106    1
    50    65    62    1
    51    74    73    1
    52    58    60    1
    53    58    55    1
    54    62    61    1
    55    62    63    1
    56   106   105    1
    57    61    56   am
    58    73    70    1
    59    81    80    1
    60    81    82   ar
    61    90    89    1
    62    56    55    1
    63    56    57    2
    64    80    79    1
    65   105   104    1
    66    55    54    1
    67    63    64    2
    68    12    11    1
    69    70    71    1
    70    70    69    1
    71    10    11   ar
    72    10     8   ar
    73    11     9   ar
    74   104   101    1
    75    89    88    1
    76    89    91    1
    77    71    75   am
    78    71    72    2
    79    88    85    1
    80    75    76    1
    81    79    76    1
    82    98    97   ar
    83    99    97   ar
    84    76    77    1
    85     8     6   ar
    86     9     7   ar
    87    97    96    1
    88    96    93    1
    89    87    86    2
    90     6     7   ar
    91     6     5    1
    92   101   102    1
    93   101   100    1
    94    93    92    1
    95    93    94    1
    96    86    92   am
    97    86    85    1
    98    85    84    1
    99   103   102    2
   100     5     2    1
   101    77    78    2
   102    95    94    2
   103     3     2    1
   104     3     4    2
   105     2     1    1
