@<TRIPOS>MOLECULE
tmp/3ijqB00.pdb
 158 146 0 0 0
SMALL
GASTEIGER

@<TRIPOS>ATOM
      1  N          6.6380   23.2790   29.8660 N.3    16  PHE16      -0.1241
      2  CA         7.2560   24.0200   30.9550 C.3    16  PHE16       0.1605
      3  C          6.1360   24.4530   31.9110 C.2    16  PHE16       0.2264
      4  O          5.1820   25.1280   31.5010 O.2    16  PHE16      -0.2867
      5  CB         7.9830   25.2390   30.3880 C.3    16  PHE16       0.0534
      6  CG         8.8020   25.9820   31.3970 C.ar   16  PHE16      -0.0203
      7  CD1       10.0680   25.5340   31.7470 C.ar   16  PHE16      -0.0042
      8  CD2        8.3030   27.1260   32.0080 C.ar   16  PHE16      -0.0042
      9  CE1       10.8300   26.2140   32.6930 C.ar   16  PHE16      -0.0003
     10  CE2        9.0540   27.8110   32.9530 C.ar   16  PHE16      -0.0003
     11  CZ        10.3220   27.3530   33.2960 C.ar   16  PHE16      -0.0000
     12  N          4.7490   26.2980   35.6000 N.3    18  VAL18      -0.1245
     13  CA         4.9650   27.2870   36.6560 C.3    18  VAL18       0.1561
     14  C          3.6690   27.3990   37.4480 C.2    18  VAL18       0.2260
     15  O          2.6760   27.9300   36.9460 O.2    18  VAL18      -0.2867
     16  CB         5.2910   28.6770   36.0810 C.3    18  VAL18       0.0252
     17  CG1        5.5000   29.6680   37.2120 C.3    18  VAL18       0.0019
     18  CG2        6.5160   28.6070   35.1930 C.3    18  VAL18       0.0019
     19  N          3.2370   25.6520   29.3570 N.3    23  ARG23      -0.1245
     20  CA         3.3590   26.1260   27.9910 C.3    23  ARG23       0.1563
     21  C          4.5170   25.4400   27.2830 C.2    23  ARG23       0.2260
     22  O          5.3810   24.8380   27.9250 O.2    23  ARG23      -0.2867
     23  CB         3.5520   27.6470   27.9790 C.3    23  ARG23       0.0307
     24  CG         4.7980   28.1420   28.7020 C.3    23  ARG23       0.0489
     25  CD         4.9060   29.6510   28.5910 C.3    23  ARG23       0.2205
     26  NE         6.2790   30.1300   28.7570 N.pl3  23  ARG23      -0.0865
     27  CZ         6.8830   30.3330   29.9260 C.cat  23  ARG23       0.5346
     28  NH1        6.2440   30.0990   31.0660 N.pl3  23  ARG23       0.1354
     29  NH2        8.1280   30.7980   29.9550 N.pl3  23  ARG23       0.1354
     30  N          6.9660   35.5390   29.8210 N.3    47  PRO47      -0.2116
     31  CA         6.1040   34.4210   30.2090 C.3    47  PRO47       0.1372
     32  C          4.6880   35.0400   30.2090 C.2    47  PRO47       0.2244
     33  O          4.4760   36.1110   30.7780 O.2    47  PRO47      -0.2868
     34  CB         6.6090   34.0850   31.6070 C.3    47  PRO47       0.0268
     35  CG         8.1030   34.3470   31.4730 C.3    47  PRO47       0.0207
     36  CD         8.1390   35.6520   30.7100 C.3    47  PRO47       0.0892
     37  N          1.8890   34.6890   31.8840 N.3    49  TYR49      -0.1241
     38  CA         1.3840   35.1020   33.1820 C.3    49  TYR49       0.1605
     39  C          2.0030   36.3500   33.8060 C.2    49  TYR49       0.2264
     40  O          1.4750   36.8610   34.7910 O.2    49  TYR49      -0.2867
     41  CB         1.4920   33.9350   34.1680 C.3    49  TYR49       0.0534
     42  CG         2.9070   33.5130   34.4910 C.ar   49  TYR49      -0.0201
     43  CD1        3.6400   34.1620   35.4850 C.ar   49  TYR49      -0.0009
     44  CD2        3.5140   32.4550   33.8160 C.ar   49  TYR49      -0.0009
     45  CE1        4.9480   33.7640   35.8020 C.ar   49  TYR49       0.0417
     46  CE2        4.8210   32.0490   34.1250 C.ar   49  TYR49       0.0417
     47  CZ         5.5270   32.7130   35.1200 C.ar   49  TYR49       0.1957
     48  OH         6.8170   32.3330   35.4290 O.3    49  TYR49      -0.2866
     49  N         17.0060   21.8410   40.4250 N.3   153  LYS153     -0.1245
     50  CA        15.9080   22.6790   40.8690 C.3   153  LYS153      0.1561
     51  C         14.5730   21.9600   40.7030 C.2   153  LYS153      0.2260
     52  O         14.2900   21.3960   39.6430 O.2   153  LYS153     -0.2867
     53  CB        15.8860   23.9870   40.0790 C.3   153  LYS153      0.0271
     54  CG        14.7360   24.9050   40.4590 C.3   153  LYS153      0.0035
     55  CD        14.7660   26.1720   39.6460 C.3   153  LYS153      0.0206
     56  CE        13.5770   27.0550   39.9630 C.3   153  LYS153      0.1093
     57  NZ        13.6760   28.3370   39.2190 N.3   153  LYS153     -0.1314
     58  N         10.3650   22.4580   41.1840 N.3   155  LYS155     -0.1245
     59  CA         9.2760   23.4190   41.3500 C.3   155  LYS155      0.1561
     60  C          8.1290   22.8560   42.1790 C.2   155  LYS155      0.2260
     61  O          7.1280   22.3960   41.6310 O.2   155  LYS155     -0.2867
     62  CB         8.7440   23.8540   39.9840 C.3   155  LYS155      0.0271
     63  CG         9.7480   24.6100   39.1430 C.3   155  LYS155      0.0035
     64  CD         9.0990   25.1300   37.8800 C.3   155  LYS155      0.0206
     65  CE        10.0780   25.9230   37.0390 C.3   155  LYS155      0.1093
     66  NZ         9.3800   26.6690   35.9560 N.3   155  LYS155     -0.1314
     67  N         11.5930   25.6190   44.5620 N.3   179  ASP179     -0.1239
     68  CA        10.8910   26.8620   44.3160 C.3   179  ASP179      0.1674
     69  C          9.3890   26.6210   44.4530 C.2   179  ASP179      0.2266
     70  O          8.7390   26.1390   43.5220 O.2   179  ASP179     -0.2867
     71  CB        11.2180   27.3910   42.9180 C.3   179  ASP179      0.1410
     72  CG        10.5930   28.7410   42.6540 C.2   179  ASP179      0.3668
     73  OD1       10.2480   29.4270   43.6390 O.co2 179  ASP179     -0.2456
     74  OD2       10.4610   29.1240   41.4720 O.co2 179  ASP179     -0.2456
     75  N          7.1860   28.6920   44.4510 N.3   181  ASN181     -0.1240
     76  CA         6.5280   29.5620   43.4920 C.3   181  ASN181      0.1653
     77  C          5.1850   30.0820   44.0100 C.2   181  ASN181      0.2266
     78  O          4.2180   30.1800   43.2510 O.2   181  ASN181     -0.2867
     79  CB         6.3200   28.8040   42.1850 C.3   181  ASN181      0.1155
     80  CG         6.1340   29.7230   41.0080 C.2   181  ASN181      0.2627
     81  OD1        5.2930   30.6240   41.0350 O.2   181  ASN181     -0.2716
     82  ND2        6.9180   29.5020   39.9580 N.am  181  ASN181     -0.0877
     83  N         12.7740   28.8900   47.6770 N.3   206  GLU206     -0.1245
     84  CA        12.4170   30.1300   47.0030 C.3   206  GLU206      0.1567
     85  C         10.9080   30.3840   46.8830 C.2   206  GLU206      0.2260
     86  O         10.1440   29.4930   46.5190 O.2   206  GLU206     -0.2867
     87  CB        13.0630   30.1270   45.6110 C.3   206  GLU206      0.0388
     88  CG        12.5790   31.1930   44.6410 C.3   206  GLU206      0.1160
     89  CD        13.1130   30.9710   43.2330 C.2   206  GLU206      0.3649
     90  OE1       12.6420   31.6550   42.2990 O.co2 206  GLU206     -0.2457
     91  OE2       14.0080   30.1130   43.0610 O.co2 206  GLU206     -0.2457
     92  N         11.3560   36.0930   45.1980 N.3   231  ASP231     -0.1225
     93  CA        11.2590   36.0940   43.7370 C.3   231  ASP231      0.1805
     94  C         10.0410   36.9400   43.3480 C.2   231  ASP231      0.2597
     95  O         10.1640   38.1460   43.1180 O.2   231  ASP231     -0.2718
     96  CB        11.1050   34.6660   43.1950 C.3   231  ASP231      0.1424
     97  CG        11.1850   34.6010   41.6680 C.2   231  ASP231      0.3668
     98  OD1       11.1960   35.6600   41.0080 O.co2 231  ASP231     -0.2456
     99  OD2       11.2320   33.4850   41.1190 O.co2 231  ASP231     -0.2456
    100  N          8.8680   36.3120   43.2880 N.am  232  GLU232     -0.1979
    101  CA         7.6370   37.0280   42.9430 C.3   232  GLU232      0.1602
    102  C          7.4190   38.2410   43.8470 C.2   232  GLU232      0.2287
    103  O          6.7500   39.1980   43.4520 O.2   232  GLU232     -0.2864
    104  CB         6.4100   36.1040   43.0470 C.3   232  GLU232      0.0415
    105  CG         6.1090   35.2510   41.8090 C.3   232  GLU232      0.1163
    106  CD         7.1550   34.1760   41.5530 C.2   232  GLU232      0.3649
    107  OE1        7.7830   33.7090   42.5330 O.co2 232  GLU232     -0.2457
    108  OE2        7.3320   33.7870   40.3730 O.co2 232  GLU232     -0.2457
    109  N         16.1610   37.2200   44.6880 N.3   251  ASN251     -0.1240
    110  CA        16.4190   36.5920   43.4010 C.3   251  ASN251      0.1653
    111  C         16.2250   37.6910   42.3590 C.2   251  ASN251      0.2266
    112  O         15.1350   38.2400   42.2160 O.2   251  ASN251     -0.2867
    113  CB        15.4260   35.4420   43.1630 C.3   251  ASN251      0.1155
    114  CG        15.7050   34.6700   41.8730 C.2   251  ASN251      0.2627
    115  OD1       16.6900   34.9250   41.1810 O.2   251  ASN251     -0.2716
    116  ND2       14.8330   33.7180   41.5510 N.am  251  ASN251     -0.0877
    117  N         16.2020   39.0480   38.4180 N.3   253  LYS253     -0.1245
    118  CA        15.9540   38.6000   37.0470 C.3   253  LYS253      0.1561
    119  C         15.8700   39.8490   36.1780 C.2   253  LYS253      0.2260
    120  O         15.0970   40.7610   36.4690 O.2   253  LYS253     -0.2867
    121  CB        14.6410   37.8130   36.9430 C.3   253  LYS253      0.0271
    122  CG        14.6280   36.4870   37.6840 C.3   253  LYS253      0.0035
    123  CD        13.2260   35.8570   37.6770 C.3   253  LYS253      0.0206
    124  CE        13.1880   34.5940   38.5040 C.3   253  LYS253      0.1093
    125  NZ        11.8070   34.0710   38.7290 N.3   253  LYS253     -0.1314
    126  N         18.1590   34.6530   38.6260 N.3   280  GLY280     -0.1210
    127  CA        17.2990   33.6940   37.9610 C.3   280  GLY280      0.1956
    128  C         17.0680   34.0990   36.5240 C.2   280  GLY280      0.2612
    129  O         17.7600   34.9680   36.0050 O.2   280  GLY280     -0.2717
    130  N         16.0830   33.4880   35.8820 N.am  281  CYS281     -0.1956
    131  CA        15.7860   33.7980   34.4880 C.3   281  CYS281      0.1843
    132  C         14.4400   33.2200   34.0800 C.2   281  CYS281      0.2625
    133  O         13.8450   32.4360   34.8160 O.2   281  CYS281     -0.2714
    134  CB        16.8510   33.1760   33.5860 C.3   281  CYS281      0.0997
    135  SG        16.8400   31.3550   33.6090 S.3   281  CYS281     -0.0797
    136  N         13.9690   33.6230   32.9070 N.am  282  MET282     -0.1963
    137  CA        12.7380   33.0860   32.3470 C.3   282  MET282      0.1736
    138  C         13.3280   32.1960   31.2620 C.2   282  MET282      0.2617
    139  O         14.5410   32.0330   31.1840 O.2   282  MET282     -0.2715
    140  CB        11.8960   34.1680   31.6480 C.3   282  MET282      0.0427
    141  CG        11.6620   35.4300   32.4340 C.3   282  MET282      0.0599
    142  SD        10.9530   35.0930   34.0320 S.3   282  MET282     -0.1393
    143  CE        10.9310   36.7310   34.7030 C.3   282  MET282      0.0692
    144  N         12.4810   31.6090   30.4320 N.am  283  THR283     -0.1951
    145  CA        12.9770   30.8110   29.3220 C.3   283  THR283      0.1897
    146  C         13.4560   31.9240   28.4030 C.2   283  THR283      0.2313
    147  O         12.6570   32.7460   27.9650 O.2   283  THR283     -0.2863
    148  CB        11.8320   30.0510   28.6500 C.3   283  THR283      0.1794
    149  OG1       10.7570   30.9640   28.4040 O.3   283  THR283     -0.2208
    150  CG2       11.3390   28.9220   29.5530 C.3   283  THR283      0.0378
    151  N         20.1580   30.2680   38.7380 N.3   303  ASP303     -0.1239
    152  CA        19.2450   29.4260   38.0010 C.3   303  ASP303      0.1674
    153  C         19.3160   30.0850   36.6260 C.2   303  ASP303      0.2266
    154  O         18.4620   30.9070   36.2640 O.2   303  ASP303     -0.2867
    155  CB        17.8310   29.5130   38.5690 C.3   303  ASP303      0.1410
    156  CG        16.8590   28.6140   37.8270 C.2   303  ASP303      0.3668
    157  OD1       17.2240   27.4550   37.5390 O.co2 303  ASP303     -0.2456
    158  OD2       15.7320   29.0550   37.5380 O.co2 303  ASP303     -0.2456
@<TRIPOS>BOND
     1    21    22    2
     2    21    20    1
     3   147   146    2
     4    23    20    1
     5    23    24    1
     6    20    19    1
     7   146   145    1
     8   149   148    1
     9    25    24    1
    10    25    26    1
    11   148   145    1
    12   148   150    1
    13    26    27    2
    14   145   144    1
    15    30    31    1
    16    30    36    1
    17     1     2    1
    18    27    29    1
    19    27    28    1
    20    32    31    1
    21    32    33    2
    22    31    34    1
    23     5     2    1
    24     5     6    1
    25   144   138   am
    26    36    35    1
    27     2     3    1
    28   139   138    2
    29   138   137    1
    30     6     7   ar
    31     6     8   ar
    32    35    34    1
    33     4     3    2
    34   140   137    1
    35   140   141    1
    36     7     9   ar
    37    37    38    1
    38     8    10   ar
    39   137   136    1
    40   141   142    1
    41     9    11   ar
    42   136   132   am
    43    10    11   ar
    44    38    39    1
    45    38    41    1
    46   134   135    1
    47   134   131    1
    48    39    40    2
    49    44    46   ar
    50    44    42   ar
    51   142   143    1
    52   132   131    1
    53   132   133    2
    54    46    47   ar
    55    41    42    1
    56   131   130    1
    57    42    43   ar
    58    47    48    1
    59    47    45   ar
    60    18    16    1
    61    43    45   ar
    62    12    13    1
    63   130   128   am
    64    66    65    1
    65   129   128    2
    66    16    13    1
    67    16    17    1
    68   119   120    2
    69   119   118    1
    70   154   153    2
    71   128   127    1
    72   153   152    1
    73    13    14    1
    74   121   118    1
    75   121   122    1
    76    15    14    2
    77    65    64    1
    78   118   117    1
    79   158   156   ar
    80   157   156   ar
    81   123   122    1
    82   123   124    1
    83   156   155    1
    84    64    63    1
    85   127   126    1
    86   152   155    1
    87   152   151    1
    88   124   125    1
    89    63    62    1
    90    57    56    1
    91    52    51    2
    92    55    56    1
    93    55    54    1
    94    82    80   am
    95    62    59    1
    96    53    54    1
    97    53    50    1
    98   108   106   ar
    99    49    50    1
   100    51    50    1
   101    98    97   ar
   102    80    81    2
   103    80    79    1
   104    99    97   ar
   105   115   114    2
   106    58    59    1
   107    59    60    1
   108    74    72   ar
   109   116   114   am
   110   106   105    1
   111   106   107   ar
   112    61    60    2
   113    97    96    1
   114   105   104    1
   115   114   113    1
   116    79    76    1
   117   112   111    2
   118    90    89   ar
   119   111   110    1
   120    72    71    1
   121    72    73   ar
   122    71    68    1
   123   101   104    1
   124   101   100    1
   125   101   102    1
   126    91    89   ar
   127    95    94    2
   128   113   110    1
   129    96    93    1
   130    89    88    1
   131    78    77    2
   132   100    94   am
   133    94    93    1
   134   110   109    1
   135   103   102    2
   136    76    77    1
   137    76    75    1
   138    70    69    2
   139    93    92    1
   140    68    69    1
   141    68    67    1
   142    88    87    1
   143    87    84    1
   144    86    85    2
   145    85    84    1
   146    84    83    1
