@<TRIPOS>MOLECULE
tmp/3ijsD00.pdb
 93 89 0 0 0
SMALL
GASTEIGER

@<TRIPOS>ATOM
      1  N        -21.6260   52.1220   63.1260 N.3    33  TYR33      -0.1241
      2  CA       -20.2720   52.0090   63.6410 C.3    33  TYR33       0.1605
      3  C        -19.5890   50.9740   62.7620 C.2    33  TYR33       0.2264
      4  O        -20.2480   50.0880   62.2210 O.2    33  TYR33      -0.2867
      5  CB       -20.2790   51.4690   65.0690 C.3    33  TYR33       0.0534
      6  CG       -20.7870   52.4000   66.1460 C.ar   33  TYR33      -0.0201
      7  CD1      -21.8410   53.2750   65.9130 C.ar   33  TYR33      -0.0009
      8  CD2      -20.2340   52.3660   67.4180 C.ar   33  TYR33      -0.0009
      9  CE1      -22.3060   54.1100   66.9140 C.ar   33  TYR33       0.0417
     10  CE2      -20.6930   53.1910   68.4220 C.ar   33  TYR33       0.0417
     11  CZ       -21.7270   54.0610   68.1670 C.ar   33  TYR33       0.1957
     12  OH       -22.1790   54.8820   69.1760 O.3    33  TYR33      -0.2866
     13  N        -12.8970   50.7020   66.8310 N.3    50  PHE50      -0.1241
     14  CA       -13.9950   51.0880   65.9590 C.3    50  PHE50       0.1605
     15  C        -14.0700   52.5920   65.7380 C.2    50  PHE50       0.2264
     16  O        -13.4360   53.3770   66.4520 O.2    50  PHE50      -0.2867
     17  CB       -15.3420   50.5420   66.4660 C.3    50  PHE50       0.0534
     18  CG       -15.8300   51.1670   67.7540 C.ar   50  PHE50      -0.0203
     19  CD1      -15.8060   52.5430   67.9440 C.ar   50  PHE50      -0.0042
     20  CD2      -16.3540   50.3720   68.7600 C.ar   50  PHE50      -0.0042
     21  CE1      -16.2640   53.1090   69.1200 C.ar   50  PHE50      -0.0003
     22  CE2      -16.8180   50.9320   69.9400 C.ar   50  PHE50      -0.0003
     23  CZ       -16.7720   52.3040   70.1200 C.ar   50  PHE50      -0.0000
     24  N        -17.2600   55.4870   65.1550 N.3    52  ARG52      -0.1245
     25  CA       -18.7030   55.6020   65.3500 C.3    52  ARG52       0.1563
     26  C        -19.4290   56.1300   64.1160 C.2    52  ARG52       0.2260
     27  O        -18.8030   56.4950   63.1230 O.2    52  ARG52      -0.2867
     28  CB       -19.0100   56.4740   66.5680 C.3    52  ARG52       0.0307
     29  CG       -18.4750   55.9020   67.8720 C.3    52  ARG52       0.0489
     30  CD       -18.9690   56.6800   69.0780 C.3    52  ARG52       0.2205
     31  NE       -18.5860   56.0330   70.3300 N.pl3  52  ARG52      -0.0865
     32  CZ       -17.4180   56.2120   70.9390 C.cat  52  ARG52       0.5346
     33  NH1      -16.5080   57.0190   70.4100 N.pl3  52  ARG52       0.1354
     34  NH2      -17.1570   55.5820   72.0760 N.pl3  52  ARG52       0.1354
     35  N        -22.7820   60.4010   65.9510 N.3    56  LYS56      -0.1245
     36  CA       -21.8430   60.4340   67.0670 C.3    56  LYS56       0.1561
     37  C        -20.5420   61.1320   66.6840 C.2    56  LYS56       0.2260
     38  O        -19.6280   61.2500   67.4970 O.2    56  LYS56      -0.2867
     39  CB       -21.5490   59.0200   67.5670 C.3    56  LYS56       0.0271
     40  CG       -22.7840   58.2290   67.9710 C.3    56  LYS56       0.0035
     41  CD       -23.3060   58.6400   69.3340 C.3    56  LYS56       0.0206
     42  CE       -24.3930   57.6820   69.7990 C.3    56  LYS56       0.1093
     43  NZ       -24.8210   57.9610   71.1960 N.3    56  LYS56      -0.1314
     44  N        -20.5980   47.3310   62.7510 N.3   101  ASP101     -0.1225
     45  CA       -20.9530   47.3700   64.1620 C.3   101  ASP101      0.1805
     46  C        -22.4030   47.8250   64.2990 C.2   101  ASP101      0.2597
     47  O        -23.2080   47.6240   63.3920 O.2   101  ASP101     -0.2718
     48  CB       -20.0000   48.3040   64.9150 C.3   101  ASP101      0.1424
     49  CG       -19.7940   47.8980   66.3650 C.2   101  ASP101      0.3668
     50  OD1      -18.6260   47.8650   66.8060 O.co2 101  ASP101     -0.2456
     51  OD2      -20.7900   47.6140   67.0630 O.co2 101  ASP101     -0.2456
     52  N        -22.7300   48.4480   65.4240 N.am  102  ILE102     -0.1980
     53  CA       -24.1100   48.8210   65.7140 C.3   102  ILE102      0.1595
     54  C        -24.5490   50.0990   65.0050 C.2   102  ILE102      0.2287
     55  O        -23.7210   50.8820   64.5350 O.2   102  ILE102     -0.2864
     56  CB       -24.3260   49.0020   67.2250 C.3   102  ILE102      0.0276
     57  CG1      -23.4630   50.1530   67.7460 C.3   102  ILE102      0.0022
     58  CG2      -24.0110   47.7130   67.9660 C.3   102  ILE102      0.0022
     59  CD1      -23.6230   50.4140   69.2250 C.3   102  ILE102      0.0001
     60  N        -27.1770   52.6840   66.4580 N.3   104  PRO104     -0.2102
     61  CA       -28.0630   53.0310   67.5740 C.3   104  PRO104      0.1504
     62  C        -28.8330   54.3350   67.3780 C.2   104  PRO104      0.2576
     63  O        -29.6940   54.6530   68.1990 O.2   104  PRO104     -0.2718
     64  CB       -27.0890   53.2000   68.7520 C.3   104  PRO104      0.0282
     65  CG       -25.6910   52.9740   68.1860 C.3   104  PRO104      0.0208
     66  CD       -25.7990   53.1250   66.7110 C.3   104  PRO104      0.0893
     67  N        -28.5260   55.0820   66.3220 N.am  105  SER105     -0.1953
     68  CA       -29.1230   56.4020   66.1360 C.3   105  SER105      0.1924
     69  C        -30.2630   56.4160   65.1200 C.2   105  SER105      0.2314
     70  O        -31.0660   57.3490   65.0940 O.2   105  SER105     -0.2863
     71  CB       -28.0530   57.4290   65.7480 C.3   105  SER105      0.2116
     72  OG       -27.1610   57.6690   66.8230 O.3   105  SER105     -0.2180
     73  N        -31.6580   48.6650   65.7140 N.3   109  TYR109     -0.1241
     74  CA       -30.4860   48.6570   66.5810 C.3   109  TYR109      0.1605
     75  C        -30.4370   47.4620   67.5240 C.2   109  TYR109      0.2264
     76  O        -31.3470   47.2450   68.3260 O.2   109  TYR109     -0.2867
     77  CB       -30.3810   49.9580   67.3820 C.3   109  TYR109      0.0534
     78  CG       -29.4270   49.8640   68.5550 C.ar  109  TYR109     -0.0201
     79  CD1      -28.1020   49.4870   68.3710 C.ar  109  TYR109     -0.0009
     80  CD2      -29.8510   50.1550   69.8440 C.ar  109  TYR109     -0.0009
     81  CE1      -27.2280   49.3970   69.4390 C.ar  109  TYR109      0.0417
     82  CE2      -28.9840   50.0690   70.9190 C.ar  109  TYR109      0.0417
     83  CZ       -27.6750   49.6890   70.7100 C.ar  109  TYR109      0.1957
     84  OH       -26.8100   49.6040   71.7780 O.3   109  TYR109     -0.2866
     85  N        -27.0920   44.9570   69.6370 N.3   111  GLU111     -0.1245
     86  CA       -25.6620   44.8460   69.9100 C.3   111  GLU111      0.1567
     87  C        -25.0280   43.6130   69.2830 C.2   111  GLU111      0.2260
     88  O        -25.0090   42.5410   69.8840 O.2   111  GLU111     -0.2867
     89  CB       -25.4020   44.8540   71.4160 C.3   111  GLU111      0.0388
     90  CG       -25.4760   46.2300   72.0410 C.3   111  GLU111      0.1160
     91  CD       -24.3270   47.1200   71.6180 C.2   111  GLU111      0.3649
     92  OE1      -23.2420   46.5870   71.3030 O.co2 111  GLU111     -0.2457
     93  OE2      -24.5070   48.3560   71.6050 O.co2 111  GLU111     -0.2457
@<TRIPOS>BOND
     1     4     3    2
     2    44    45    1
     3     3     2    1
     4    27    26    2
     5     1     2    1
     6    47    46    2
     7     2     5    1
     8    26    25    1
     9    45    46    1
    10    45    48    1
    11    46    52   am
    12    55    54    2
    13    48    49    1
    14    54    53    1
    15     5     6    1
    16    70    69    2
    17    69    68    1
    18    24    25    1
    19    25    28    1
    20    52    53    1
    21    53    56    1
    22    73    74    1
    23    15    14    1
    24    15    16    2
    25    71    68    1
    26    71    72    1
    27     7     6   ar
    28     7     9   ar
    29    35    36    1
    30    14    17    1
    31    14    13    1
    32    68    67    1
    33     6     8   ar
    34    67    62   am
    35    49    50   ar
    36    49    51   ar
    37    60    66    1
    38    60    61    1
    39    17    18    1
    40    28    29    1
    41    74    77    1
    42    74    75    1
    43    37    36    1
    44    37    38    2
    45    66    65    1
    46     9    11   ar
    47    36    39    1
    48    56    57    1
    49    56    58    1
    50    62    61    1
    51    62    63    2
    52    77    78    1
    53     8    10   ar
    54    75    76    2
    55    39    40    1
    56    61    64    1
    57    57    59    1
    58    18    19   ar
    59    18    20   ar
    60    29    30    1
    61    19    21   ar
    62    40    41    1
    63    11    10   ar
    64    11    12    1
    65    65    64    1
    66    79    78   ar
    67    79    81   ar
    68    78    80   ar
    69    20    22   ar
    70    30    31    1
    71    21    23   ar
    72    87    88    2
    73    87    86    1
    74    41    42    1
    75    81    83   ar
    76    85    86    1
    77    42    43    1
    78    80    82   ar
    79    86    89    1
    80    22    23   ar
    81    31    32    2
    82    33    32    1
    83    83    82   ar
    84    83    84    1
    85    32    34    1
    86    92    91   ar
    87    89    90    1
    88    93    91   ar
    89    91    90    1
