@<TRIPOS>MOLECULE
tmp/3ijxC01.pdb
 92 89 0 0 0
SMALL
GASTEIGER

@<TRIPOS>ATOM
      1  N        -13.7180  -53.3610  -81.6130 N.3   101  LYS101     -0.1231
      2  CA       -12.4860  -54.0530  -81.9250 C.3   101  LYS101      0.1678
      3  C        -11.3180  -53.2360  -81.3780 C.2   101  LYS101      0.2434
      4  O        -11.4060  -52.0260  -81.2800 O.2   101  LYS101     -0.2733
      5  CB       -12.3640  -54.2690  -83.4330 C.3   101  LYS101      0.0284
      6  CG       -13.4810  -55.0960  -84.0190 C.3   101  LYS101      0.0035
      7  CD       -13.2760  -56.5860  -83.7240 C.3   101  LYS101      0.0206
      8  CE       -14.2380  -57.4790  -84.5340 C.3   101  LYS101      0.1093
      9  NZ       -15.6930  -57.1220  -84.3450 N.3   101  LYS101     -0.1314
     10  N        -10.2220  -53.9130  -81.0150 N.am  102  PRO102     -0.2718
     11  CA        -9.0040  -53.3110  -80.4770 C.3   102  PRO102      0.1535
     12  C         -8.5340  -52.1640  -81.3490 C.2   102  PRO102      0.2599
     13  O         -8.3360  -52.3550  -82.5550 O.2   102  PRO102     -0.2715
     14  CB        -7.9930  -54.4470  -80.5790 C.3   102  PRO102      0.0310
     15  CG        -8.7880  -55.6740  -80.5640 C.3   102  PRO102      0.0237
     16  CD       -10.0540  -55.3550  -81.2560 C.3   102  PRO102      0.0939
     17  N         -8.3630  -50.9840  -80.7660 N.am  103  PHE103     -0.1960
     18  CA        -7.8280  -49.8840  -81.5530 C.3   103  PHE103      0.1771
     19  C         -6.3050  -49.8830  -81.4280 C.2   103  PHE103      0.2619
     20  O         -5.5940  -49.3850  -82.3060 O.2   103  PHE103     -0.2715
     21  CB        -8.4530  -48.5260  -81.1790 C.3   103  PHE103      0.0574
     22  CG        -8.2070  -48.0940  -79.7610 C.ar  103  PHE103     -0.0200
     23  CD1       -6.9720  -47.6210  -79.3700 C.ar  103  PHE103     -0.0042
     24  CD2       -9.2220  -48.1140  -78.8350 C.ar  103  PHE103     -0.0042
     25  CE1       -6.7440  -47.1990  -78.0660 C.ar  103  PHE103     -0.0003
     26  CE2       -9.0060  -47.6970  -77.5300 C.ar  103  PHE103     -0.0003
     27  CZ        -7.7660  -47.2360  -77.1460 C.ar  103  PHE103     -0.0000
     28  N         -5.8200  -50.4930  -80.3500 N.am  104  MET104     -0.1963
     29  CA        -4.4030  -50.5720  -80.0760 C.3   104  MET104      0.1736
     30  C         -4.0970  -51.8740  -79.3440 C.2   104  MET104      0.2617
     31  O         -4.9010  -52.3610  -78.5740 O.2   104  MET104     -0.2715
     32  CB        -3.9860  -49.3560  -79.2340 C.3   104  MET104      0.0427
     33  CG        -2.5040  -49.3360  -78.7750 C.3   104  MET104      0.0599
     34  SD        -2.1100  -47.9220  -77.7070 S.3   104  MET104     -0.1393
     35  CE        -1.7380  -46.6410  -78.9000 C.3   104  MET104      0.0692
     36  N         -2.9180  -52.4290  -79.5710 N.am  105  SER105     -0.1950
     37  CA        -2.5170  -53.6580  -78.8920 C.3   105  SER105      0.1924
     38  C         -1.4740  -53.4420  -77.7910 C.2   105  SER105      0.2314
     39  O         -0.6450  -52.5430  -77.8730 O.2   105  SER105     -0.2863
     40  CB        -1.9900  -54.6710  -79.9050 C.3   105  SER105      0.2116
     41  OG        -1.0130  -55.4890  -79.3070 O.3   105  SER105     -0.2180
     42  N         -3.1030  -58.5240  -75.5180 N.3   215  LYS215     -0.1231
     43  CA        -4.4440  -57.9740  -75.5130 C.3   215  LYS215      0.1693
     44  C         -4.5360  -56.6230  -76.1830 C.2   215  LYS215      0.2592
     45  O         -3.6120  -56.1760  -76.8550 O.2   215  LYS215     -0.2718
     46  CB        -5.0300  -57.9260  -74.1020 C.3   215  LYS215      0.0285
     47  CG        -4.0980  -57.4680  -73.0360 C.3   215  LYS215      0.0035
     48  CD        -4.5100  -58.1200  -71.7380 C.3   215  LYS215      0.0206
     49  CE        -3.7110  -57.5990  -70.5620 C.3   215  LYS215      0.1093
     50  NZ        -4.3160  -58.1170  -69.3030 N.3   215  LYS215     -0.1314
     51  N         -5.6820  -55.9860  -76.0110 N.am  216  GLY216     -0.1957
     52  CA        -5.9650  -54.7760  -76.7350 C.3   216  GLY216      0.1869
     53  C         -6.8280  -53.8180  -75.9660 C.2   216  GLY216      0.2309
     54  O         -7.5360  -54.1830  -75.0230 O.2   216  GLY216     -0.2863
     55  N        -13.9110  -47.5500  -85.8090 N.3   235  VAL235     -0.1231
     56  CA       -12.5960  -48.0200  -85.4210 C.3   235  VAL235      0.1692
     57  C        -11.9150  -48.8000  -86.5540 C.2   235  VAL235      0.2591
     58  O        -10.7410  -48.5560  -86.8630 O.2   235  VAL235     -0.2718
     59  CB       -12.6160  -48.7970  -84.0800 C.3   235  VAL235      0.0266
     60  CG1      -11.2660  -49.4200  -83.8070 C.3   235  VAL235      0.0020
     61  CG2      -12.9530  -47.8490  -82.9410 C.3   235  VAL235      0.0020
     62  N        -12.6480  -49.7100  -87.1910 N.am  236  LEU236     -0.1980
     63  CA       -12.0990  -50.4240  -88.3370 C.3   236  LEU236      0.1596
     64  C        -11.6650  -49.4470  -89.4290 C.2   236  LEU236      0.2287
     65  O        -10.5810  -49.5880  -89.9870 O.2   236  LEU236     -0.2864
     66  CB       -13.1150  -51.4100  -88.9150 C.3   236  LEU236      0.0297
     67  CG       -13.2960  -52.8110  -88.3100 C.3   236  LEU236      0.0022
     68  CD1      -11.9630  -53.3810  -87.9770 C.3   236  LEU236      0.0001
     69  CD2      -14.1560  -52.7620  -87.0820 C.3   236  LEU236      0.0001
     70  N         -8.3930  -47.5750  -88.3180 N.3   239  SER239     -0.1202
     71  CA        -7.3050  -48.5310  -88.3720 C.3   239  SER239      0.2020
     72  C         -6.7530  -48.7160  -89.7870 C.2   239  SER239      0.2618
     73  O         -5.5480  -48.6060  -90.0000 O.2   239  SER239     -0.2717
     74  CB        -7.7720  -49.8660  -87.8020 C.3   239  SER239      0.2103
     75  OG        -7.1240  -50.9580  -88.4370 O.3   239  SER239     -0.2182
     76  N         -7.6330  -48.9950  -90.7450 N.am  240  GLU240     -0.1979
     77  CA        -7.2210  -49.2250  -92.1260 C.3   240  GLU240      0.1602
     78  C         -6.7400  -47.9510  -92.8270 C.2   240  GLU240      0.2287
     79  O         -5.9660  -48.0340  -93.7860 O.2   240  GLU240     -0.2864
     80  CB        -8.3600  -49.8710  -92.9260 C.3   240  GLU240      0.0415
     81  CG        -8.5870  -51.3640  -92.6270 C.3   240  GLU240      0.1163
     82  CD        -9.8650  -51.9390  -93.2730 C.2   240  GLU240      0.3649
     83  OE1      -10.2450  -51.5100  -94.3960 O.co2 240  GLU240     -0.2457
     84  OE2      -10.4850  -52.8320  -92.6440 O.co2 240  GLU240     -0.2457
     85  N         -4.2740  -44.7950  -87.0690 N.3   244  LEU244     -0.1245
     86  CA        -3.9660  -45.3060  -85.7330 C.3   244  LEU244      0.1561
     87  C         -2.4700  -45.5030  -85.5280 C.2   244  LEU244      0.2260
     88  O         -1.9730  -45.3640  -84.4130 O.2   244  LEU244     -0.2867
     89  CB        -4.7140  -46.6080  -85.4270 C.3   244  LEU244      0.0270
     90  CG        -6.1880  -46.5620  -85.0150 C.3   244  LEU244      0.0019
     91  CD1       -6.6610  -47.9570  -84.6040 C.3   244  LEU244      0.0001
     92  CD2       -6.4380  -45.5580  -83.8960 C.3   244  LEU244      0.0001
@<TRIPOS>BOND
     1    83    82   ar
     2    79    78    2
     3    82    84   ar
     4    82    81    1
     5    80    81    1
     6    80    77    1
     7    78    77    1
     8    77    76    1
     9    76    72   am
    10    73    72    2
    11    65    64    2
    12    72    71    1
    13    64    63    1
    14    66    63    1
    15    66    67    1
    16    75    74    1
    17    71    70    1
    18    71    74    1
    19    63    62    1
    20    67    68    1
    21    67    69    1
    22    62    57   am
    23    85    86    1
    24    58    57    2
    25    57    56    1
    26    55    56    1
    27    86    87    1
    28    86    89    1
    29    87    88    2
    30    89    90    1
    31    56    59    1
    32    90    91    1
    33    90    92    1
    34     8     9    1
    35     8     7    1
    36    59    60    1
    37    59    61    1
    38     6     7    1
    39     6     5    1
    40     5     2    1
    41    13    12    2
    42    20    19    2
    43     2     1    1
    44     2     3    1
    45    18    19    1
    46    18    21    1
    47    18    17    1
    48    19    28   am
    49     3     4    2
    50     3    10   am
    51    12    17   am
    52    12    11    1
    53    16    10    1
    54    16    15    1
    55    21    22    1
    56    10    11    1
    57    14    15    1
    58    14    11    1
    59    28    29    1
    60    29    30    1
    61    29    32    1
    62    40    41    1
    63    40    37    1
    64    22    23   ar
    65    22    24   ar
    66    36    30   am
    67    36    37    1
    68    23    25   ar
    69    30    31    2
    70    32    33    1
    71    35    34    1
    72    37    38    1
    73    24    26   ar
    74    33    34    1
    75    25    27   ar
    76    39    38    2
    77    26    27   ar
    78    45    44    2
    79    52    51    1
    80    52    53    1
    81    44    51   am
    82    44    43    1
    83    53    54    2
    84    42    43    1
    85    43    46    1
    86    46    47    1
    87    47    48    1
    88    48    49    1
    89    49    50    1
