@<TRIPOS>MOLECULE
tmp/3ijzA00.pdb
 136 133 0 0 0
SMALL
GASTEIGER

@<TRIPOS>ATOM
      1  N         26.4350   -1.5240   14.1540 N.3    23  ARG23      -0.1245
      2  CA        25.2770   -1.1290   14.9880 C.3    23  ARG23       0.1563
      3  C         25.7880   -0.7070   16.3950 C.2    23  ARG23       0.2260
      4  O         26.9690   -0.9450   16.7310 O.2    23  ARG23      -0.2867
      5  CB        24.3010   -2.3000   15.1300 C.3    23  ARG23       0.0307
      6  CG        23.1210   -2.0270   16.0720 C.3    23  ARG23       0.0489
      7  CD        22.9270   -3.1520   17.0910 C.3    23  ARG23       0.2205
      8  NE        21.8890   -4.0930   16.6700 N.pl3  23  ARG23      -0.0865
      9  CZ        21.4170   -5.1030   17.4070 C.cat  23  ARG23       0.5346
     10  NH1       21.8840   -5.3370   18.6360 N.pl3  23  ARG23       0.1354
     11  NH2       20.4640   -5.8850   16.9070 N.pl3  23  ARG23       0.1354
     12  N         28.8410  -14.4990   38.4990 N.3    60  GLU60      -0.1245
     13  CA        28.5100  -15.0200   37.1520 C.3    60  GLU60       0.1567
     14  C         29.1510  -16.4040   36.9220 C.2    60  GLU60       0.2260
     15  O         28.5290  -17.3030   36.4140 O.2    60  GLU60      -0.2867
     16  CB        28.9140  -14.0440   36.0280 C.3    60  GLU60       0.0388
     17  CG        28.4020  -14.4980   34.6710 C.3    60  GLU60       0.1160
     18  CD        29.2200  -13.9470   33.4770 C.2    60  GLU60       0.3649
     19  OE1       30.4750  -14.0070   33.5160 O.co2  60  GLU60      -0.2457
     20  OE2       28.5730  -13.4770   32.5160 O.co2  60  GLU60      -0.2457
     21  N         24.3600   -7.8910   35.4550 N.3    81  ILE81      -0.1231
     22  CA        24.9490   -7.8820   34.0990 C.3    81  ILE81       0.1692
     23  C         24.1610   -8.7010   33.0800 C.2    81  ILE81       0.2592
     24  O         24.2970   -8.4900   31.8700 O.2    81  ILE81      -0.2718
     25  CB        26.4510   -8.3040   34.0840 C.3    81  ILE81       0.0266
     26  CG1       26.5990   -9.8000   34.4010 C.3    81  ILE81       0.0019
     27  CG2       27.2670   -7.3610   34.9910 C.3    81  ILE81       0.0020
     28  CD1       27.9780  -10.2080   34.9510 C.3    81  ILE81       0.0001
     29  N         23.3160   -9.6150   33.5460 N.am   82  TRP82      -0.1976
     30  CA        22.5050  -10.3490   32.5730 C.3    82  TRP82       0.1640
     31  C         21.0590   -9.8250   32.4310 C.2    82  TRP82       0.2290
     32  O         20.3150  -10.3130   31.5780 O.2    82  TRP82      -0.2864
     33  CB        22.6010  -11.8710   32.7810 C.3    82  TRP82       0.0576
     34  CG        23.9180  -12.5320   32.2560 C.ar   82  TRP82       0.0006
     35  CD1       25.0580  -12.7660   32.9600 C.ar   82  TRP82       0.0946
     36  CD2       24.1620  -13.0460   30.9370 C.ar   82  TRP82       0.0152
     37  NE1       26.0170  -13.3720   32.1540 N.ar   82  TRP82      -0.2442
     38  CE2       25.4860  -13.5550   30.9130 C.ar   82  TRP82       0.0810
     39  CE3       23.3920  -13.1180   29.7720 C.ar   82  TRP82       0.0012
     40  CZ2       26.0420  -14.1540   29.7850 C.ar   82  TRP82       0.0191
     41  CZ3       23.9410  -13.6980   28.6530 C.ar   82  TRP82       0.0001
     42  CH2       25.2750  -14.2040   28.6620 C.ar   82  TRP82       0.0015
     43  N         18.8110   -8.7490   28.7870 N.3    85  TRP85      -0.1241
     44  CA        18.3190   -9.8250   27.9150 C.3    85  TRP85       0.1605
     45  C         17.1010  -10.5440   28.4870 C.2    85  TRP85       0.2264
     46  O         16.2870  -11.0920   27.7280 O.2    85  TRP85      -0.2867
     47  CB        19.4300  -10.8380   27.5720 C.3    85  TRP85       0.0550
     48  CG        20.5300  -10.2030   26.8040 C.ar   85  TRP85       0.0003
     49  CD1       20.6150  -10.0660   25.4370 C.ar   85  TRP85       0.0946
     50  CD2       21.6850   -9.5530   27.3480 C.ar   85  TRP85       0.0152
     51  NE1       21.7630   -9.3780   25.1060 N.ar   85  TRP85      -0.2442
     52  CE2       22.4320   -9.0420   26.2580 C.ar   85  TRP85       0.0810
     53  CE3       22.1490   -9.3290   28.6510 C.ar   85  TRP85       0.0012
     54  CZ2       23.6390   -8.3470   26.4350 C.ar   85  TRP85       0.0191
     55  CZ3       23.3510   -8.6400   28.8290 C.ar   85  TRP85       0.0001
     56  CH2       24.0790   -8.1560   27.7230 C.ar   85  TRP85       0.0015
     57  N         19.0270  -15.9140   20.5830 N.3   194  ALA194     -0.1231
     58  CA        19.2570  -14.4790   20.8240 C.3   194  ALA194      0.1694
     59  C         20.7380  -14.1170   20.8590 C.2   194  ALA194      0.2591
     60  O         21.1360  -13.0730   20.3580 O.2   194  ALA194     -0.2718
     61  CB        18.5560  -14.0190   22.1330 C.3   194  ALA194      0.0304
     62  N         21.5560  -14.9770   21.4610 N.am  195  LEU195     -0.1980
     63  CA        22.9720  -14.6450   21.6370 C.3   195  LEU195      0.1596
     64  C         23.9310  -15.8210   21.3320 C.2   195  LEU195      0.2287
     65  O         24.3180  -16.5680   22.2310 O.2   195  LEU195     -0.2864
     66  CB        23.2210  -14.0910   23.0570 C.3   195  LEU195      0.0297
     67  CG        22.3530  -12.9110   23.5060 C.3   195  LEU195      0.0022
     68  CD1       22.0810  -12.9120   25.0330 C.3   195  LEU195      0.0001
     69  CD2       23.0210  -11.6430   23.0670 C.3   195  LEU195      0.0001
     70  N         29.8830  -15.9110   22.3860 N.3   198  CYS198     -0.1221
     71  CA        31.1610  -15.2830   22.0870 C.3   198  CYS198      0.1808
     72  C         32.2920  -16.1500   22.5870 C.2   198  CYS198      0.2601
     73  O         33.3580  -16.1460   22.0030 O.2   198  CYS198     -0.2717
     74  CB        31.2440  -13.8900   22.7400 C.3   198  CYS198      0.0970
     75  SG        29.9820  -12.7420   22.0380 S.3   198  CYS198     -0.0800
     76  N         32.0560  -16.8720   23.6830 N.am  199  HIS199     -0.1975
     77  CA        33.0720  -17.7250   24.2750 C.3   199  HIS199      0.1656
     78  C         32.8360  -19.1190   23.7870 C.2   199  HIS199      0.2291
     79  O         32.3000  -19.9850   24.5040 O.2   199  HIS199     -0.2864
     80  CB        33.0850  -17.6570   25.7870 C.3   199  HIS199      0.0771
     81  CG        33.0100  -16.2640   26.3030 C.ar  199  HIS199      0.0820
     82  ND1       32.2390  -15.9140   27.3930 N.ar  199  HIS199     -0.2267
     83  CD2       33.5500  -15.1160   25.8440 C.ar  199  HIS199      0.1154
     84  CE1       32.3160  -14.6080   27.5880 C.ar  199  HIS199      0.1986
     85  NE2       33.1080  -14.1010   26.6640 N.ar  199  HIS199     -0.2212
     86  N         34.6590   -7.4210   22.6920 N.3   221  ASP221     -0.1239
     87  CA        34.6430   -5.9260   22.9220 C.3   221  ASP221      0.1674
     88  C         35.8350   -5.7150   23.7840 C.2   221  ASP221      0.2266
     89  O         35.8310   -6.0780   24.9750 O.2   221  ASP221     -0.2867
     90  CB        33.3730   -5.4960   23.6920 C.3   221  ASP221      0.1410
     91  CG        33.1990   -3.9230   23.8490 C.2   221  ASP221      0.3668
     92  OD1       34.1440   -3.0910   23.6490 O.co2 221  ASP221     -0.2456
     93  OD2       32.0330   -3.5250   24.1940 O.co2 221  ASP221     -0.2456
     94  N         35.0010   -2.9870   26.9620 N.3   224  LEU224     -0.1231
     95  CA        34.0370   -3.4610   27.9490 C.3   224  LEU224      0.1693
     96  C         34.1830   -4.9160   28.3690 C.2   224  LEU224      0.2592
     97  O         34.1850   -5.2100   29.5680 O.2   224  LEU224     -0.2718
     98  CB        32.6030   -3.1530   27.5280 C.3   224  LEU224      0.0284
     99  CG        32.2810   -1.7090   27.1220 C.3   224  LEU224      0.0019
    100  CD1       30.8630   -1.6270   26.6120 C.3   224  LEU224      0.0001
    101  CD2       32.5000   -0.6830   28.2780 C.3   224  LEU224      0.0001
    102  N         34.3090   -5.8430   27.4140 N.am  225  GLY225     -0.1957
    103  CA        34.1490   -7.2480   27.7570 C.3   225  GLY225      0.1869
    104  C         35.4370   -7.9460   28.0980 C.2   225  GLY225      0.2309
    105  O         35.4900   -8.7640   29.0490 O.2   225  GLY225     -0.2863
    106  N         36.6740   -8.3970   31.8140 N.3   228  PHE228     -0.1227
    107  CA        35.8450   -9.3950   32.5310 C.3   228  PHE228      0.1736
    108  C         36.1610  -10.7940   32.0440 C.2   228  PHE228      0.2595
    109  O         36.3060  -11.7070   32.8470 O.2   228  PHE228     -0.2718
    110  CB        34.3360   -9.2330   32.2420 C.3   228  PHE228      0.0547
    111  CG        33.6200   -8.2470   33.1190 C.ar  228  PHE228     -0.0202
    112  CD1       33.7510   -6.8590   32.8860 C.ar  228  PHE228     -0.0042
    113  CD2       32.7680   -8.6960   34.1390 C.ar  228  PHE228     -0.0042
    114  CE1       33.0640   -5.9140   33.6750 C.ar  228  PHE228     -0.0003
    115  CE2       32.0740   -7.7830   34.9430 C.ar  228  PHE228     -0.0003
    116  CZ        32.2200   -6.3820   34.7160 C.ar  228  PHE228     -0.0000
    117  N         36.2000  -10.9680   30.7170 N.am  229  ASN229     -0.1974
    118  CA        36.4520  -12.3290   30.1120 C.3   229  ASN229      0.1688
    119  C         37.7580  -12.9170   30.5900 C.2   229  ASN229      0.2292
    120  O         37.8240  -14.0630   31.0020 O.2   229  ASN229     -0.2864
    121  CB        36.4640  -12.2510   28.6010 C.3   229  ASN229      0.1181
    122  CG        35.1840  -11.6690   28.0330 C.2   229  ASN229      0.2629
    123  OD1       34.1210  -11.7180   28.6770 O.2   229  ASN229     -0.2716
    124  ND2       35.2800  -11.0720   26.8440 N.am  229  ASN229     -0.0877
    125  N         34.9760   -0.2020   19.7530 N.3   261  TYR261     -0.1241
    126  CA        33.9010    0.5860   19.1870 C.3   261  TYR261      0.1605
    127  C         34.3970    2.0120   18.9450 C.2   261  TYR261      0.2264
    128  O         35.1820    2.5400   19.7230 O.2   261  TYR261     -0.2867
    129  CB        32.6870    0.5770   20.0980 C.3   261  TYR261      0.0534
    130  CG        31.8800   -0.6490   19.9200 C.ar  261  TYR261     -0.0201
    131  CD1       31.0130   -0.7840   18.8210 C.ar  261  TYR261     -0.0009
    132  CD2       32.0140   -1.7150   20.8010 C.ar  261  TYR261     -0.0009
    133  CE1       30.2850   -1.9410   18.6280 C.ar  261  TYR261      0.0417
    134  CE2       31.2750   -2.8780   20.6280 C.ar  261  TYR261      0.0417
    135  CZ        30.4140   -2.9870   19.5430 C.ar  261  TYR261      0.1957
    136  OH        29.6870   -4.1470   19.3820 O.3   261  TYR261     -0.2866
@<TRIPOS>BOND
     1     1     2    1
     2     2     5    1
     3     2     3    1
     4     5     6    1
     5     6     7    1
     6     3     4    2
     7     8     7    1
     8     8     9    2
     9    11     9    1
    10     9    10    1
    11   133   131   ar
    12   133   135   ar
    13   131   130   ar
    14   127   126    1
    15   127   128    2
    16   126   125    1
    17   126   129    1
    18   136   135    1
    19   135   134   ar
    20   130   129    1
    21   130   132   ar
    22    60    59    2
    23    57    58    1
    24   134   132   ar
    25    58    59    1
    26    58    61    1
    27    59    62   am
    28    64    63    1
    29    64    65    2
    30    62    63    1
    31    63    66    1
    32    73    72    2
    33    75    74    1
    34    71    70    1
    35    71    72    1
    36    71    74    1
    37    72    76   am
    38    86    87    1
    39    87    90    1
    40    87    88    1
    41    66    67    1
    42    69    67    1
    43    67    68    1
    44    92    91   ar
    45    76    77    1
    46    90    91    1
    47    88    89    2
    48    78    77    1
    49    78    79    2
    50    91    93   ar
    51    77    80    1
    52    51    49   ar
    53    51    52   ar
    54    49    48   ar
    55    80    81    1
    56    83    81   ar
    57    83    85   ar
    58    52    54   ar
    59    52    50   ar
    60    81    82   ar
    61    54    56   ar
    62   100    99    1
    63    85    84   ar
    64    48    50   ar
    65    48    47    1
    66   124   122   am
    67    94    95    1
    68    99    98    1
    69    99   101    1
    70    50    53   ar
    71    82    84   ar
    72   102   103    1
    73   102    96   am
    74    98    95    1
    75    47    44    1
    76    56    55   ar
    77    46    45    2
    78   103   104    1
    79    44    45    1
    80    44    43    1
    81    95    96    1
    82   122   121    1
    83   122   123    2
    84   104   105    2
    85    96    97    2
    86   121   118    1
    87    53    55   ar
    88    41    42   ar
    89    41    39   ar
    90    42    40   ar
    91    39    36   ar
    92    40    38   ar
    93   118   119    1
    94   118   117    1
    95   119   120    2
    96   117   108   am
    97    38    36   ar
    98    38    37   ar
    99    36    34   ar
   100    32    31    2
   101   106   107    1
   102    24    23    2
   103   108   107    1
   104   108   109    2
   105    37    35   ar
   106   110   107    1
   107   110   111    1
   108    34    33    1
   109    34    35   ar
   110    31    30    1
   111    20    18   ar
   112    30    33    1
   113    30    29    1
   114   112   111   ar
   115   112   114   ar
   116    23    29   am
   117    23    22    1
   118   111   113   ar
   119    18    19   ar
   120    18    17    1
   121   114   116   ar
   122    25    22    1
   123    25    26    1
   124    25    27    1
   125    22    21    1
   126   113   115   ar
   127    26    28    1
   128    17    16    1
   129   116   115   ar
   130    16    13    1
   131    15    14    2
   132    14    13    1
   133    13    12    1
