@<TRIPOS>MOLECULE
tmp/3ik1A00.pdb
 121 118 0 0 0
SMALL
GASTEIGER

@<TRIPOS>ATOM
      1  N        -28.8850   14.6440   38.4360 N.3    60  GLU60      -0.1245
      2  CA       -28.5600   15.1610   37.0930 C.3    60  GLU60       0.1567
      3  C        -29.2030   16.5470   36.8630 C.2    60  GLU60       0.2260
      4  O        -28.5650   17.4730   36.3700 O.2    60  GLU60      -0.2867
      5  CB       -29.0090   14.1920   36.0230 C.3    60  GLU60       0.0388
      6  CG       -28.3610   14.3980   34.7170 C.3    60  GLU60       0.1160
      7  CD       -29.2570   13.9400   33.5300 C.2    60  GLU60       0.3649
      8  OE1      -30.5110   14.0650   33.6490 O.co2  60  GLU60      -0.2457
      9  OE2      -28.6970   13.4700   32.5050 O.co2  60  GLU60      -0.2457
     10  N        -24.4630    8.1530   35.5120 N.3    81  ILE81      -0.1231
     11  CA       -25.0960    8.2050   34.1610 C.3    81  ILE81       0.1692
     12  C        -24.3480    8.9990   33.0900 C.2    81  ILE81       0.2592
     13  O        -24.5670    8.7980   31.8660 O.2    81  ILE81      -0.2718
     14  CB       -26.5890    8.5730   34.1920 C.3    81  ILE81       0.0266
     15  CG1      -26.7990   10.0680   34.4500 C.3    81  ILE81       0.0019
     16  CG2      -27.3140    7.7020   35.2120 C.3    81  ILE81       0.0020
     17  CD1      -28.2280   10.4300   34.9420 C.3    81  ILE81       0.0001
     18  N        -23.4410    9.8780   33.5170 N.am   82  TRP82      -0.1976
     19  CA       -22.6110   10.5860   32.5300 C.3    82  TRP82       0.1640
     20  C        -21.1810   10.0600   32.4040 C.2    82  TRP82       0.2290
     21  O        -20.4490   10.5110   31.5210 O.2    82  TRP82      -0.2864
     22  CB       -22.6420   12.0860   32.7660 C.3    82  TRP82       0.0576
     23  CG       -23.9580   12.7080   32.3790 C.ar   82  TRP82       0.0006
     24  CD1      -25.0470   12.8700   33.1650 C.ar   82  TRP82       0.0946
     25  CD2      -24.3010   13.2400   31.0970 C.ar   82  TRP82       0.0152
     26  NE1      -26.0670   13.4820   32.4550 N.ar   82  TRP82      -0.2442
     27  CE2      -25.6340   13.7150   31.1810 C.ar   82  TRP82       0.0810
     28  CE3      -23.6130   13.3550   29.8810 C.ar   82  TRP82       0.0012
     29  CZ2      -26.2800   14.3270   30.1180 C.ar   82  TRP82       0.0191
     30  CZ3      -24.2580   13.9730   28.8080 C.ar   82  TRP82       0.0001
     31  CH2      -25.5880   14.4360   28.9320 C.ar   82  TRP82       0.0015
     32  N        -18.9140    9.0770   28.7100 N.3    85  TRP85      -0.1241
     33  CA       -18.3820   10.0850   27.7660 C.3    85  TRP85       0.1605
     34  C        -17.1310   10.8040   28.2640 C.2    85  TRP85       0.2264
     35  O        -16.3830   11.3900   27.4630 O.2    85  TRP85      -0.2867
     36  CB       -19.4630   11.1070   27.3780 C.3    85  TRP85       0.0550
     37  CG       -20.5330   10.4910   26.5310 C.ar   85  TRP85       0.0003
     38  CD1      -20.5850   10.4620   25.1640 C.ar   85  TRP85       0.0946
     39  CD2      -21.6860    9.7750   26.9930 C.ar   85  TRP85       0.0152
     40  NE1      -21.7040    9.7820   24.7510 N.ar   85  TRP85      -0.2442
     41  CE2      -22.3970    9.3490   25.8510 C.ar   85  TRP85       0.0810
     42  CE3      -22.1880    9.4520   28.2640 C.ar   85  TRP85       0.0012
     43  CZ2      -23.6010    8.6150   25.9410 C.ar   85  TRP85       0.0191
     44  CZ3      -23.3790    8.7210   28.3570 C.ar   85  TRP85       0.0001
     45  CH2      -24.0690    8.3090   27.2020 C.ar   85  TRP85       0.0015
     46  N        -19.2230   16.0520   20.6400 N.3   194  ALA194     -0.1231
     47  CA       -19.4780   14.6210   20.8780 C.3   194  ALA194      0.1694
     48  C        -20.9670   14.2800   20.8750 C.2   194  ALA194      0.2592
     49  O        -21.3690   13.2430   20.3680 O.2   194  ALA194     -0.2718
     50  CB       -18.8580   14.2070   22.2200 C.3   194  ALA194      0.0304
     51  N        -21.7820   15.1530   21.4500 N.am  195  LEU195     -0.1966
     52  CA       -23.1870   14.8490   21.5980 C.3   195  LEU195      0.1713
     53  C        -24.1440   16.0270   21.2800 C.2   195  LEU195      0.2458
     54  O        -24.5390   16.7710   22.1700 O.2   195  LEU195     -0.2730
     55  CB       -23.4390   14.3030   23.0120 C.3   195  LEU195      0.0310
     56  CG       -22.4080   13.3030   23.5540 C.3   195  LEU195      0.0022
     57  CD1      -22.2900   13.3810   25.1200 C.3   195  LEU195      0.0001
     58  CD2      -22.7440   11.9170   23.0400 C.3   195  LEU195      0.0001
     59  N        -24.4820   16.2180   19.9910 N.am  196  PRO196     -0.2727
     60  CA       -25.4960   17.2660   19.6750 C.3   196  PRO196      0.1402
     61  C        -26.7530   17.0100   20.5560 C.2   196  PRO196      0.2269
     62  O        -27.2390   15.8990   20.6180 O.2   196  PRO196     -0.2865
     63  CB       -25.7920   17.0480   18.1710 C.3   196  PRO196      0.0296
     64  CG       -24.5840   16.3870   17.6380 C.3   196  PRO196      0.0237
     65  CD       -24.0070   15.5210   18.7830 C.3   196  PRO196      0.0939
     66  N        -29.9990   16.1370   22.4740 N.3   198  CYS198     -0.1235
     67  CA       -31.1920   15.4150   22.1220 C.3   198  CYS198      0.1677
     68  C        -32.3510   16.2300   22.6350 C.2   198  CYS198      0.2270
     69  O        -33.4150   16.1880   22.0510 O.2   198  CYS198     -0.2867
     70  CB       -31.1790   14.0050   22.7650 C.3   198  CYS198      0.0956
     71  SG       -29.9980   12.8810   21.8900 S.3   198  CYS198     -0.0801
     72  N        -35.3520   16.0270   19.6770 N.3   218  ARG218     -0.1245
     73  CA       -35.1210   15.7110   18.2840 C.3   218  ARG218      0.1563
     74  C        -34.9720   14.2110   18.0690 C.2   218  ARG218      0.2260
     75  O        -35.1310   13.7350   16.9510 O.2   218  ARG218     -0.2867
     76  CB       -33.8570   16.4260   17.7440 C.3   218  ARG218      0.0307
     77  CG       -32.5070   15.8690   18.3420 C.3   218  ARG218      0.0489
     78  CD       -31.2010   16.2590   17.5930 C.3   218  ARG218      0.2205
     79  NE       -30.0410   15.7350   18.3170 N.pl3 218  ARG218     -0.0865
     80  CZ       -29.5660   14.5030   18.2040 C.cat 218  ARG218      0.5346
     81  NH1      -30.0920   13.6470   17.3190 N.pl3 218  ARG218      0.1354
     82  NH2      -28.5210   14.1220   18.9580 N.pl3 218  ARG218      0.1354
     83  N        -34.7140    7.5540   22.6860 N.3   221  ASP221     -0.1239
     84  CA       -34.6790    6.0870   22.9800 C.3   221  ASP221      0.1674
     85  C        -35.8750    5.8720   23.8450 C.2   221  ASP221      0.2266
     86  O        -35.8850    6.2110   25.0340 O.2   221  ASP221     -0.2867
     87  CB       -33.4020    5.6740   23.7460 C.3   221  ASP221      0.1410
     88  CG       -33.2170    4.0950   23.9040 C.2   221  ASP221      0.3668
     89  OD1      -32.0550    3.7820   24.3260 O.co2 221  ASP221     -0.2456
     90  OD2      -34.0830    3.1700   23.5840 O.co2 221  ASP221     -0.2456
     91  N        -35.1000    3.0930   27.0160 N.3   224  LEU224     -0.1231
     92  CA       -34.1140    3.5810   27.9690 C.3   224  LEU224      0.1693
     93  C        -34.2360    5.0680   28.3370 C.2   224  LEU224      0.2592
     94  O        -34.2100    5.3870   29.5470 O.2   224  LEU224     -0.2718
     95  CB       -32.6900    3.2450   27.5270 C.3   224  LEU224      0.0284
     96  CG       -32.3140    1.7980   27.2010 C.3   224  LEU224      0.0019
     97  CD1      -30.9170    1.7560   26.5700 C.3   224  LEU224      0.0001
     98  CD2      -32.3500    0.8480   28.4520 C.3   224  LEU224      0.0001
     99  N        -34.3670    6.0000   27.3570 N.am  225  GLY225     -0.1957
    100  CA       -34.2080    7.4280   27.6900 C.3   225  GLY225      0.1869
    101  C        -35.4770    8.1180   28.0590 C.2   225  GLY225      0.2309
    102  O        -35.5220    8.9520   29.0120 O.2   225  GLY225     -0.2863
    103  N        -36.7180    8.5240   31.7610 N.3   228  PHE228     -0.1227
    104  CA       -35.9100    9.5340   32.4940 C.3   228  PHE228      0.1736
    105  C        -36.2500   10.9600   32.0490 C.2   228  PHE228      0.2595
    106  O        -36.4920   11.8490   32.8830 O.2   228  PHE228     -0.2718
    107  CB       -34.4180    9.3570   32.1930 C.3   228  PHE228      0.0547
    108  CG       -33.7240    8.3690   33.0730 C.ar  228  PHE228     -0.0202
    109  CD1      -33.9460    6.9870   32.9170 C.ar  228  PHE228     -0.0042
    110  CD2      -32.8170    8.8080   34.0420 C.ar  228  PHE228     -0.0042
    111  CE1      -33.2730    6.0270   33.7290 C.ar  228  PHE228     -0.0003
    112  CE2      -32.1460    7.8930   34.8680 C.ar  228  PHE228     -0.0003
    113  CZ       -32.3700    6.4940   34.7100 C.ar  228  PHE228     -0.0000
    114  N        -36.2880   11.1430   30.7160 N.am  229  ASN229     -0.1974
    115  CA       -36.4860   12.4710   30.0660 C.3   229  ASN229      0.1688
    116  C        -37.8010   13.0300   30.5840 C.2   229  ASN229      0.2292
    117  O        -37.8640   14.1610   31.0080 O.2   229  ASN229     -0.2864
    118  CB       -36.5750   12.3220   28.5540 C.3   229  ASN229      0.1181
    119  CG       -35.3110   11.7060   27.9180 C.2   229  ASN229      0.2629
    120  OD1      -35.3680   11.1130   26.8100 O.2   229  ASN229     -0.2716
    121  ND2      -34.1880   11.8030   28.6230 N.am  229  ASN229     -0.0877
@<TRIPOS>BOND
     1    75    74    2
     2    81    80    1
     3    78    79    1
     4    78    77    1
     5    64    63    1
     6    64    65    1
     7    76    73    1
     8    76    77    1
     9    74    73    1
    10    63    60    1
    11    80    79    2
    12    80    82    1
    13    73    72    1
    14    65    59    1
    15    60    59    1
    16    60    61    1
    17    59    53   am
    18    49    48    2
    19    61    62    2
    20    46    47    1
    21    48    47    1
    22    48    51   am
    23    47    50    1
    24    53    52    1
    25    53    54    2
    26    51    52    1
    27    52    55    1
    28    71    70    1
    29    69    68    2
    30    67    66    1
    31    67    68    1
    32    67    70    1
    33    83    84    1
    34    84    87    1
    35    84    85    1
    36    55    56    1
    37    58    56    1
    38    56    57    1
    39    90    88   ar
    40    87    88    1
    41    85    86    2
    42    88    89   ar
    43    40    38   ar
    44    40    41   ar
    45    38    37   ar
    46    41    43   ar
    47    41    39   ar
    48    43    45   ar
    49    37    39   ar
    50    37    36    1
    51    97    96    1
    52   120   119    2
    53    39    42   ar
    54    91    92    1
    55    96    95    1
    56    96    98    1
    57    45    44   ar
    58    99   100    1
    59    99    93   am
    60    36    33    1
    61    35    34    2
    62    95    92    1
    63   100   101    1
    64    33    34    1
    65    33    32    1
    66   119   118    1
    67   119   121   am
    68    92    93    1
    69   101   102    2
    70    42    44   ar
    71    93    94    2
    72   118   115    1
    73    30    31   ar
    74    30    28   ar
    75    31    29   ar
    76    28    25   ar
    77   115   116    1
    78   115   114    1
    79    29    27   ar
    80   116   117    2
    81   114   105   am
    82    25    27   ar
    83    25    23   ar
    84    27    26   ar
    85    21    20    2
    86   103   104    1
    87    13    12    2
    88   105   104    1
    89   105   106    2
    90   107   104    1
    91   107   108    1
    92    23    22    1
    93    23    24   ar
    94    20    19    1
    95    26    24   ar
    96     9     7   ar
    97    19    22    1
    98    19    18    1
    99   109   108   ar
   100   109   111   ar
   101   108   110   ar
   102    12    18   am
   103    12    11    1
   104     7     8   ar
   105     7     6    1
   106   111   113   ar
   107   110   112   ar
   108    11    14    1
   109    11    10    1
   110    14    15    1
   111    14    16    1
   112    15    17    1
   113   113   112   ar
   114     6     5    1
   115     5     2    1
   116     4     3    2
   117     3     2    1
   118     2     1    1
