@<TRIPOS>MOLECULE
tmp/3ik3B00.pdb
 239 229 0 0 0
SMALL
GASTEIGER

@<TRIPOS>ATOM
      1  N         -5.0130   42.7060   16.5050 N.3    21  LEU21      -0.1245
      2  CA        -4.1310   43.3940   15.5870 C.3    21  LEU21       0.1561
      3  C         -4.6570   43.3230   14.1520 C.2    21  LEU21       0.2260
      4  O         -5.1810   42.2940   13.7210 O.2    21  LEU21      -0.2867
      5  CB        -2.7330   42.7710   15.6600 C.3    21  LEU21       0.0270
      6  CG        -2.0440   42.9890   17.0100 C.3    21  LEU21       0.0019
      7  CD1       -0.5800   42.6130   16.9330 C.3    21  LEU21       0.0001
      8  CD2       -2.1570   44.4490   17.3770 C.3    21  LEU21       0.0001
      9  N         -4.2370   38.8360   11.0070 N.3    26  TYR26      -0.1241
     10  CA        -3.2470   37.9500   11.6210 C.3    26  TYR26       0.1605
     11  C         -3.9380   36.8290   12.4070 C.2    26  TYR26       0.2264
     12  O         -3.2900   35.9850   13.0100 O.2    26  TYR26      -0.2867
     13  CB        -2.3470   38.7580   12.5540 C.3    26  TYR26       0.0534
     14  CG        -1.6520   39.9410   11.8850 C.ar   26  TYR26      -0.0201
     15  CD1       -2.0640   41.2530   12.1240 C.ar   26  TYR26      -0.0009
     16  CD2       -0.5550   39.7430   11.0460 C.ar   26  TYR26      -0.0009
     17  CE1       -1.4010   42.3340   11.5520 C.ar   26  TYR26       0.0417
     18  CE2        0.1150   40.8160   10.4700 C.ar   26  TYR26       0.0417
     19  CZ        -0.3030   42.1050   10.7230 C.ar   26  TYR26       0.1957
     20  OH         0.4000   43.1540   10.1630 O.3    26  TYR26      -0.2866
     21  N         -4.5370   37.1540   17.0440 N.3    29  VAL29      -0.1245
     22  CA        -3.3550   37.8010   17.6020 C.3    29  VAL29       0.1561
     23  C         -3.7400   39.1720   18.1430 C.2    29  VAL29       0.2260
     24  O         -4.3470   39.9770   17.4300 O.2    29  VAL29      -0.2867
     25  CB        -2.2270   37.9400   16.5420 C.3    29  VAL29       0.0252
     26  CG1       -1.0070   38.6740   17.1640 C.3    29  VAL29       0.0019
     27  CG2       -1.8030   36.5740   16.0510 C.3    29  VAL29       0.0019
     28  N          2.7830   41.0320   21.4790 N.3    42  ALA42      -0.1231
     29  CA         1.6750   40.4740   20.7360 C.3    42  ALA42       0.1694
     30  C          1.3550   39.0800   21.2540 C.2    42  ALA42       0.2592
     31  O          2.2640   38.3080   21.5590 O.2    42  ALA42      -0.2718
     32  CB         2.0160   40.4070   19.2810 C.3    42  ALA42       0.0304
     33  N          0.0660   38.7420   21.3260 N.am   43  VAL43      -0.1966
     34  CA        -0.3280   37.4880   21.9610 C.3    43  VAL43       0.1727
     35  C         -1.2520   36.7220   21.0400 C.2    43  VAL43       0.2616
     36  O         -2.3180   37.2100   20.6740 O.2    43  VAL43      -0.2715
     37  CB        -1.0740   37.7440   23.2950 C.3    43  VAL43       0.0290
     38  CG1       -1.3700   36.4150   24.0060 C.3    43  VAL43       0.0023
     39  CG2       -0.2370   38.6880   24.1980 C.3    43  VAL43       0.0023
     40  N         -0.8440   35.5190   20.6600 N.am   44  LYS44      -0.1977
     41  CA        -1.7380   34.6470   19.9220 C.3    44  LYS44       0.1596
     42  C         -2.4950   33.7420   20.9020 C.2    44  LYS44       0.2287
     43  O         -1.9390   33.2250   21.8740 O.2    44  LYS44      -0.2864
     44  CB        -0.9380   33.8300   18.9110 C.3    44  LYS44       0.0298
     45  CG        -1.7820   33.0410   17.9250 C.3    44  LYS44       0.0038
     46  CD        -0.8970   32.1280   17.0780 C.3    44  LYS44       0.0206
     47  CE        -1.7220   31.1900   16.2260 C.3    44  LYS44       0.1093
     48  NZ        -0.9150   30.5560   15.1300 N.3    44  LYS44      -0.1314
     49  N          1.8580   22.4240   19.1660 N.3    58  LYS58      -0.1231
     50  CA         2.9870   22.1420   18.2820 C.3    58  LYS58       0.1693
     51  C          3.7120   23.4430   17.8930 C.2    58  LYS58       0.2591
     52  O          4.9500   23.5060   17.8150 O.2    58  LYS58      -0.2718
     53  CB         2.4790   21.4150   17.0370 C.3    58  LYS58       0.0285
     54  CG         3.4700   21.3430   15.9030 C.3    58  LYS58       0.0035
     55  CD         2.8290   20.6940   14.6840 C.3    58  LYS58       0.0206
     56  CE         3.6150   20.9890   13.4390 C.3    58  LYS58       0.1093
     57  NZ         2.9380   20.3860   12.2670 N.3    58  LYS58      -0.1314
     58  N          2.9450   24.4950   17.6670 N.am   59  GLU59      -0.1979
     59  CA         3.5580   25.7820   17.4120 C.3    59  GLU59       0.1602
     60  C          4.4270   26.2420   18.5880 C.2    59  GLU59       0.2287
     61  O          5.5320   26.7250   18.3810 O.2    59  GLU59      -0.2864
     62  CB         2.4960   26.8470   17.0900 C.3    59  GLU59       0.0415
     63  CG         3.1200   28.2170   16.7820 C.3    59  GLU59       0.1163
     64  CD         2.1140   29.2490   16.2790 C.2    59  GLU59       0.3649
     65  OE1        0.8930   28.9700   16.2550 O.co2  59  GLU59      -0.2457
     66  OE2        2.5550   30.3450   15.8940 O.co2  59  GLU59      -0.2457
     67  N          7.7510   24.4180   18.5640 N.3    62  VAL62      -0.1231
     68  CA         8.7270   24.8850   17.5710 C.3    62  VAL62       0.1692
     69  C          9.4090   26.1620   18.0680 C.2    62  VAL62       0.2591
     70  O         10.6330   26.3340   17.9530 O.2    62  VAL62      -0.2718
     71  CB         8.0690   25.1890   16.2020 C.3    62  VAL62       0.0266
     72  CG1        9.0510   25.8960   15.3100 C.3    62  VAL62       0.0020
     73  CG2        7.6230   23.9130   15.5380 C.3    62  VAL62       0.0020
     74  N          8.6110   27.0670   18.6180 N.am   63  MET63      -0.1979
     75  CA         9.1030   28.4080   18.9170 C.3    63  MET63       0.1605
     76  C         10.0770   28.3780   20.1010 C.2    63  MET63       0.2287
     77  O         11.0150   29.1610   20.1610 O.2    63  MET63      -0.2864
     78  CB         7.9190   29.3470   19.2000 C.3    63  MET63       0.0413
     79  CG         6.9840   29.5060   17.9880 C.3    63  MET63       0.0598
     80  SD         5.7030   30.7930   18.2090 S.3    63  MET63      -0.1393
     81  CE         6.7180   32.2310   18.3410 C.3    63  MET63       0.0692
     82  N         13.6020   28.2040   18.6380 N.3    66  ILE66      -0.1245
     83  CA        14.0400   29.1790   17.6570 C.3    66  ILE66       0.1561
     84  C         14.4760   30.4760   18.3180 C.2    66  ILE66       0.2260
     85  O         13.6700   31.2070   18.8940 O.2    66  ILE66      -0.2867
     86  CB        12.9090   29.4820   16.6360 C.3    66  ILE66       0.0252
     87  CG1       12.6310   28.2290   15.8010 C.3    66  ILE66       0.0019
     88  CG2       13.2920   30.6740   15.7360 C.3    66  ILE66       0.0019
     89  CD1       11.4320   28.3530   14.8720 C.3    66  ILE66       0.0001
     90  N         14.3170   36.2290   13.6170 N.3    71  LEU71      -0.1231
     91  CA        13.1170   35.4120   13.7320 C.3    71  LEU71       0.1693
     92  C         12.3490   35.8330   14.9840 C.2    71  LEU71       0.2591
     93  O         12.9650   36.2710   15.9740 O.2    71  LEU71      -0.2718
     94  CB        13.4970   33.9220   13.7860 C.3    71  LEU71       0.0284
     95  CG        14.0550   33.3770   12.4660 C.3    71  LEU71       0.0019
     96  CD1       14.8450   32.1090   12.6990 C.3    71  LEU71       0.0001
     97  CD2       12.8910   33.1060   11.5080 C.3    71  LEU71       0.0001
     98  N         11.0150   35.7420   14.9300 N.am   72  VAL72      -0.1980
     99  CA        10.1890   36.0080   16.1190 C.3    72  VAL72       0.1595
    100  C         10.7160   35.2070   17.2960 C.2    72  VAL72       0.2287
    101  O         11.0170   34.0220   17.1510 O.2    72  VAL72      -0.2864
    102  CB         8.6960   35.6360   15.9050 C.3    72  VAL72       0.0276
    103  CG1        8.0530   36.5980   14.9160 C.3    72  VAL72       0.0022
    104  CG2        8.5630   34.2240   15.3950 C.3    72  VAL72       0.0022
    105  N          0.5540   32.3820   23.2830 N.3    86  ILE86      -0.1245
    106  CA         1.9330   32.4630   22.8340 C.3    86  ILE86       0.1561
    107  C          2.3160   33.9540   22.7400 C.2    86  ILE86       0.2260
    108  O          1.6420   34.7460   22.0530 O.2    86  ILE86      -0.2867
    109  CB         2.1180   31.8380   21.4340 C.3    86  ILE86       0.0252
    110  CG1        1.8950   30.3230   21.4980 C.3    86  ILE86       0.0019
    111  CG2        3.4960   32.2150   20.8850 C.3    86  ILE86       0.0019
    112  CD1        1.8050   29.6500   20.1280 C.3    86  ILE86       0.0001
    113  N          5.1500   37.0560   22.0960 N.3    88  ILE88      -0.1231
    114  CA         6.4300   37.6130   21.6690 C.3    88  ILE88       0.1692
    115  C          6.3990   39.1310   21.7480 C.2    88  ILE88       0.2592
    116  O          5.3390   39.7370   22.0000 O.2    88  ILE88      -0.2718
    117  CB         6.7820   37.2190   20.2050 C.3    88  ILE88       0.0266
    118  CG1        5.9030   37.9970   19.2270 C.3    88  ILE88       0.0019
    119  CG2        6.5880   35.7180   19.9950 C.3    88  ILE88       0.0020
    120  CD1        6.3540   37.8930   17.7470 C.3    88  ILE88       0.0001
    121  N          7.5430   39.7630   21.5010 N.am   89  GLU89      -0.1966
    122  CA         7.5890   41.2200   21.5640 C.3    89  GLU89       0.1733
    123  C          6.8500   41.8430   20.3780 C.2    89  GLU89       0.2616
    124  O          6.8700   41.3210   19.2580 O.2    89  GLU89      -0.2715
    125  CB         9.0360   41.7260   21.5970 C.3    89  GLU89       0.0429
    126  CG         9.1570   43.2390   21.8670 C.3    89  GLU89       0.1163
    127  CD        10.6110   43.7120   22.0130 C.2    89  GLU89       0.3649
    128  OE1       11.5300   42.8920   21.8390 O.co2  89  GLU89      -0.2457
    129  OE2       10.8320   44.9130   22.2930 O.co2  89  GLU89      -0.2457
    130  N          6.2050   42.9720   20.6320 N.am   90  PHE90      -0.1960
    131  CA         5.4380   43.6600   19.6040 C.3    90  PHE90       0.1771
    132  C          6.3230   44.4080   18.6050 C.2    90  PHE90       0.2619
    133  O          7.2700   45.0880   18.9950 O.2    90  PHE90      -0.2715
    134  CB         4.4680   44.6070   20.2870 C.3    90  PHE90       0.0574
    135  CG         3.6970   45.4480   19.3540 C.ar   90  PHE90      -0.0200
    136  CD1        2.6590   44.9110   18.6200 C.ar   90  PHE90      -0.0042
    137  CD2        4.0010   46.7920   19.2130 C.ar   90  PHE90      -0.0042
    138  CE1        1.9350   45.7020   17.7600 C.ar   90  PHE90      -0.0003
    139  CE2        3.2820   47.5840   18.3590 C.ar   90  PHE90      -0.0003
    140  CZ         2.2440   47.0430   17.6270 C.ar   90  PHE90      -0.0000
    141  N          6.0200   44.2670   17.3150 N.am   91  MET91      -0.1977
    142  CA         6.8090   44.9050   16.2590 C.3    91  MET91       0.1605
    143  C          6.0770   46.1550   15.7830 C.2    91  MET91       0.2287
    144  O          4.9610   46.0620   15.2580 O.2    91  MET91      -0.2864
    145  CB         7.0260   43.9390   15.0770 C.3    91  MET91       0.0413
    146  CG         7.9490   42.7480   15.4040 C.3    91  MET91       0.0598
    147  SD         9.7070   43.1870   15.6010 S.3    91  MET91      -0.1393
    148  CE        10.2640   43.1520   13.9670 C.3    91  MET91       0.0692
    149  N          4.5160   46.6150   11.9650 N.3    94  GLY94      -0.1225
    150  CA         3.5750   45.6770   11.3630 C.3    94  GLY94       0.1811
    151  C          4.2430   44.7870   10.3460 C.2    94  GLY94       0.2280
    152  O          5.4560   44.5460   10.4110 O.2    94  GLY94      -0.2866
    153  N         17.1230   28.7780    9.9830 N.3   127  LEU127     -0.1245
    154  CA        16.1910   27.6620    9.7740 C.3   127  LEU127      0.1561
    155  C         16.8080   26.5520    8.9110 C.2   127  LEU127      0.2260
    156  O         16.6380   25.3620    9.1840 O.2   127  LEU127     -0.2867
    157  CB        14.8780   28.1560    9.1420 C.3   127  LEU127      0.0270
    158  CG        14.0680   29.1840    9.9420 C.3   127  LEU127      0.0019
    159  CD1       12.7340   29.4530    9.2100 C.3   127  LEU127      0.0001
    160  CD2       13.8030   28.6540   11.3470 C.3   127  LEU127      0.0001
    161  N         14.8450   23.1310    9.7660 N.3   132  PHE132     -0.1227
    162  CA        13.4640   23.6150    9.7150 C.3   132  PHE132      0.1736
    163  C         13.0710   23.9450    8.2640 C.2   132  PHE132      0.2595
    164  O         13.9410   24.2030    7.4330 O.2   132  PHE132     -0.2718
    165  CB        13.3220   24.8830   10.5620 C.3   132  PHE132      0.0547
    166  CG        13.1610   24.6220   12.0280 C.ar  132  PHE132     -0.0202
    167  CD1       14.1150   25.0490   12.9310 C.ar  132  PHE132     -0.0042
    168  CD2       12.0420   23.9760   12.5070 C.ar  132  PHE132     -0.0042
    169  CE1       13.9540   24.8320   14.2960 C.ar  132  PHE132     -0.0003
    170  CE2       11.8760   23.7560   13.8670 C.ar  132  PHE132     -0.0003
    171  CZ        12.8370   24.1860   14.7600 C.ar  132  PHE132     -0.0000
    172  N         11.7690   23.9190    7.9800 N.am  133  ILE133     -0.1966
    173  CA        11.2080   24.3850    6.7090 C.3   133  ILE133      0.1727
    174  C         10.0990   25.3700    7.0810 C.2   133  ILE133      0.2616
    175  O          9.2310   25.0540    7.8990 O.2   133  ILE133     -0.2715
    176  CB        10.5400   23.2400    5.9040 C.3   133  ILE133      0.0290
    177  CG1       11.5250   22.1000    5.6550 C.3   133  ILE133      0.0022
    178  CG2        9.9910   23.7860    4.5690 C.3   133  ILE133      0.0023
    179  CD1       10.8270   20.8600    5.1470 C.3   133  ILE133      0.0001
    180  N         10.1150   26.5570    6.4910 N.am  134  HIS134     -0.1959
    181  CA         9.1560   27.5780    6.8800 C.3   134  HIS134      0.1787
    182  C          7.8010   27.2460    6.2680 C.2   134  HIS134      0.2620
    183  O          6.8010   27.1680    6.9740 O.2   134  HIS134     -0.2715
    184  CB         9.5980   28.9560    6.3930 C.3   134  HIS134      0.0785
    185  CG         8.7120   30.0630    6.8690 C.ar  134  HIS134      0.0821
    186  ND1        7.4030   30.2010    6.4590 N.ar  134  HIS134     -0.2267
    187  CD2        8.9300   31.0480    7.7730 C.ar  134  HIS134      0.1154
    188  CE1        6.8530   31.2250    7.0930 C.ar  134  HIS134      0.1986
    189  NE2        7.7580   31.7530    7.8970 N.ar  134  HIS134     -0.2212
    190  N          7.7890   27.0680    4.9470 N.am  135  ARG135     -0.1977
    191  CA         6.6250   26.6250    4.1940 C.3   135  ARG135      0.1597
    192  C          5.6510   27.7170    3.7630 C.2   135  ARG135      0.2287
    193  O          4.7840   27.4820    2.9350 O.2   135  ARG135     -0.2864
    194  CB         5.8780   25.5240    4.9630 C.3   135  ARG135      0.0334
    195  CG         6.5870   24.1660    4.9330 C.3   135  ARG135      0.0492
    196  CD         5.7560   23.0680    5.5770 C.3   135  ARG135      0.2205
    197  NE         4.4640   22.9990    4.9220 N.pl3 135  ARG135     -0.0865
    198  CZ         3.9690   21.9100    4.3470 C.cat 135  ARG135      0.5346
    199  NH1        4.6580   20.7690    4.3560 N.pl3 135  ARG135      0.1354
    200  NH2        2.8020   21.9810    3.7210 N.pl3 135  ARG135      0.1354
    201  N          7.6940   40.7850    9.7400 N.3   143  LEU143     -0.1245
    202  CA         7.3240   41.9060   10.5960 C.3   143  LEU143      0.1561
    203  C          8.4520   42.9500   10.6190 C.2   143  LEU143      0.2260
    204  O          9.6450   42.6120   10.5570 O.2   143  LEU143     -0.2867
    205  CB         7.0630   41.4150   12.0270 C.3   143  LEU143      0.0270
    206  CG         5.8180   40.5510   12.2010 C.3   143  LEU143      0.0019
    207  CD1        5.8250   39.8420   13.5450 C.3   143  LEU143      0.0001
    208  CD2        4.6130   41.4370   12.0860 C.3   143  LEU143      0.0001
    209  N         11.3210   37.3390   10.5140 N.3   152  VAL152     -0.1231
    210  CA        10.4630   36.3690    9.8730 C.3   152  VAL152      0.1692
    211  C          9.4880   35.7690   10.8850 C.2   152  VAL152      0.2592
    212  O          9.8590   35.4450   12.0010 O.2   152  VAL152     -0.2718
    213  CB        11.2940   35.2810    9.2000 C.3   152  VAL152      0.0266
    214  CG1       10.3750   34.1740    8.6850 C.3   152  VAL152      0.0020
    215  CG2       12.0950   35.8980    8.0380 C.3   152  VAL152      0.0020
    216  N          8.2280   35.6770   10.4810 N.am  153  ALA153     -0.1966
    217  CA         7.1570   35.1040   11.3090 C.3   153  ALA153      0.1728
    218  C          6.3810   34.0500   10.5080 C.2   153  ALA153      0.2616
    219  O          6.6560   33.8040    9.3330 O.2   153  ALA153     -0.2715
    220  CB         6.2070   36.2430   11.7840 C.3   153  ALA153      0.0334
    221  N          5.4030   33.4230   11.1300 N.am  154  ASP154     -0.1957
    222  CA         4.4630   32.6180   10.3630 C.3   154  ASP154      0.1840
    223  C          3.1260   32.6830   11.0690 C.2   154  ASP154      0.2622
    224  O          2.9890   32.2040   12.1840 O.2   154  ASP154     -0.2715
    225  CB         4.9480   31.1690   10.2700 C.3   154  ASP154      0.1450
    226  CG         3.9830   30.2610    9.4870 C.2   154  ASP154      0.3671
    227  OD1        3.0890   30.7610    8.7750 O.co2 154  ASP154     -0.2456
    228  OD2        4.1380   29.0330    9.5950 O.co2 154  ASP154     -0.2456
    229  N          2.1400   33.2860   10.4250 N.am  155  PHE155     -0.1974
    230  CA         0.8550   33.4780   11.0840 C.3   155  PHE155      0.1639
    231  C         -0.0860   32.3200   10.7960 C.2   155  PHE155      0.2290
    232  O         -1.1650   32.2100   11.3940 O.2   155  PHE155     -0.2864
    233  CB         0.2520   34.8280   10.6530 C.3   155  PHE155      0.0560
    234  CG         0.9370   36.0090   11.2740 C.ar  155  PHE155     -0.0200
    235  CD1        1.8630   36.7540   10.5580 C.ar  155  PHE155     -0.0042
    236  CD2        0.7020   36.3440   12.5990 C.ar  155  PHE155     -0.0042
    237  CE1        2.5450   37.8010   11.1470 C.ar  155  PHE155     -0.0003
    238  CE2        1.3790   37.3890   13.1880 C.ar  155  PHE155     -0.0003
    239  CZ         2.3050   38.1170   12.4590 C.ar  155  PHE155     -0.0000
@<TRIPOS>BOND
     1   193   192    2
     2   200   198    1
     3   192   191    1
     4   191   190    1
     5   191   194    1
     6   198   199    1
     7   198   197    2
     8   178   176    1
     9   197   196    1
    10   195   194    1
    11   195   196    1
    12   190   182   am
    13   179   177    1
    14   177   176    1
    15   176   173    1
    16   182   181    1
    17   182   183    2
    18   184   185    1
    19   184   181    1
    20   186   185   ar
    21   186   188   ar
    22   180   181    1
    23   180   174   am
    24   173   174    1
    25   173   172    1
    26   185   187   ar
    27   174   175    2
    28   188   189   ar
    29   164   163    2
    30   187   189   ar
    31   172   163   am
    32   215   213    1
    33   163   162    1
    34   214   213    1
    35   227   226   ar
    36   155   156    2
    37   155   154    1
    38   157   154    1
    39   157   158    1
    40   213   210    1
    41   159   158    1
    42   219   218    2
    43   226   228   ar
    44   226   225    1
    45   162   161    1
    46   162   165    1
    47   201   202    1
    48   154   153    1
    49   210   209    1
    50   210   211    1
    51   158   160    1
    52    20    19    1
    53   225   222    1
    54   151   152    2
    55   151   150    1
    56   222   223    1
    57   222   221    1
    58   229   223   am
    59   229   230    1
    60    18    19   ar
    61    18    16   ar
    62   216   211   am
    63   216   217    1
    64   218   221   am
    65   218   217    1
    66   204   203    2
    67   235   237   ar
    68   235   234   ar
    69   165   166    1
    70   202   203    1
    71   202   205    1
    72   233   230    1
    73   233   234    1
    74    19    17   ar
    75   231   230    1
    76   231   232    2
    77   211   212    2
    78     9    10    1
    79    16    14   ar
    80   223   224    2
    81   237   239   ar
    82   234   236   ar
    83   217   220    1
    84   150   149    1
    85    97    95    1
    86    17    15   ar
    87    10    11    1
    88    10    13    1
    89    14    15   ar
    90    14    13    1
    91   205   206    1
    92   166   168   ar
    93   166   167   ar
    94   208   206    1
    95   206   207    1
    96    57    56    1
    97    11    12    2
    98   239   238   ar
    99    95    96    1
   100    95    94    1
   101   168   170   ar
   102   236   238   ar
   103   167   169   ar
   104    56    55    1
   105    90    91    1
   106     4     3    2
   107    91    94    1
   108    91    92    1
   109   170   171   ar
   110   148   147    1
   111     3     2    1
   112   169   171   ar
   113    55    54    1
   114    89    87    1
   115   103   102    1
   116    98    92   am
   117    98    99    1
   118    92    93    2
   119   145   146    1
   120   145   142    1
   121    48    47    1
   122   144   143    2
   123    72    71    1
   124   104   102    1
   125   146   147    1
   126    73    71    1
   127     2     5    1
   128     2     1    1
   129     5     6    1
   130    88    86    1
   131   143   142    1
   132    87    86    1
   133    66    64   ar
   134    54    53    1
   135   102    99    1
   136    27    25    1
   137    99   100    1
   138    71    68    1
   139    47    46    1
   140    65    64   ar
   141   142   141    1
   142    64    63    1
   143    25    26    1
   144    25    22    1
   145    86    83    1
   146    63    62    1
   147     7     6    1
   148     6     8    1
   149    53    50    1
   150    21    22    1
   151    46    45    1
   152    62    59    1
   153   101   100    2
   154   141   132   am
   155    59    58    1
   156    59    60    1
   157    24    23    2
   158    68    69    1
   159    68    67    1
   160    22    23    1
   161   140   138   ar
   162   140   139   ar
   163    83    84    1
   164    83    82    1
   165    58    51   am
   166   120   118    1
   167   138   136   ar
   168    52    51    2
   169    51    50    1
   170    45    44    1
   171    70    69    2
   172    79    80    1
   173    79    78    1
   174    69    74   am
   175    80    81    1
   176    50    49    1
   177    84    85    2
   178   139   137   ar
   179    61    60    2
   180   132   133    2
   181   132   131    1
   182    74    75    1
   183   136   135   ar
   184    44    41    1
   185    75    78    1
   186    75    76    1
   187   137   135   ar
   188   118   117    1
   189   124   123    2
   190    32    29    1
   191   135   134    1
   192   131   134    1
   193   131   130    1
   194    41    40    1
   195    41    42    1
   196   119   117    1
   197    76    77    2
   198   112   110    1
   199   117   114    1
   200   123   130   am
   201   123   122    1
   202    40    35   am
   203    36    35    2
   204    29    30    1
   205    29    28    1
   206   111   109    1
   207    42    43    2
   208    35    34    1
   209    30    33   am
   210    30    31    2
   211    33    34    1
   212   109   110    1
   213   109   106    1
   214   121   122    1
   215   121   115   am
   216   122   125    1
   217   125   126    1
   218   114   115    1
   219   114   113    1
   220   115   116    2
   221   128   127   ar
   222   126   127    1
   223    34    37    1
   224   127   129   ar
   225   108   107    2
   226   107   106    1
   227   106   105    1
   228    37    38    1
   229    37    39    1
