@<TRIPOS>MOLECULE
tmp/3ik7A00.pdb
 190 186 0 0 0
SMALL
GASTEIGER

@<TRIPOS>ATOM
      1  N         16.2720   17.9730   23.2550 N.3     8  TYR8       -0.1228
      2  CA        15.5350   18.2640   22.0340 C.3     8  TYR8        0.1721
      3  C         16.4630   18.9690   21.0530 C.2     8  TYR8        0.2437
      4  O         17.5060   19.4830   21.4650 O.2     8  TYR8       -0.2733
      5  CB        14.3450   19.1860   22.3580 C.3     8  TYR8        0.0547
      6  CG        13.2230   19.0840   21.3770 C.ar    8  TYR8       -0.0200
      7  CD1       12.4320   17.9390   21.3110 C.ar    8  TYR8       -0.0009
      8  CD2       12.9550   20.1160   20.4880 C.ar    8  TYR8       -0.0009
      9  CE1       11.4050   17.8310   20.3790 C.ar    8  TYR8        0.0417
     10  CE2       11.9250   20.0120   19.5440 C.ar    8  TYR8        0.0417
     11  CZ        11.1410   18.8760   19.5190 C.ar    8  TYR8        0.1957
     12  OH        10.1030   18.7740   18.6020 O.3     8  TYR8       -0.2866
     13  N         16.1210   18.9910   19.7590 N.am    9  PRO9       -0.2729
     14  CA        16.9810   19.8390   18.9260 C.3     9  PRO9        0.1401
     15  C         16.8910   21.3140   19.3060 C.2     9  PRO9        0.2269
     16  O         15.9980   21.7360   20.0850 O.2     9  PRO9       -0.2865
     17  CB        16.4410   19.6190   17.5110 C.3     9  PRO9        0.0296
     18  CG        15.7910   18.2730   17.5790 C.3     9  PRO9        0.0237
     19  CD        15.2180   18.1650   18.9400 C.3     9  PRO9        0.0939
     20  N          9.6660   23.0700   17.7910 N.3    13  GLY13      -0.1210
     21  CA         8.9960   21.7880   17.7120 C.3    13  GLY13       0.1956
     22  C          7.9670   21.6330   18.8200 C.2    13  GLY13       0.2611
     23  O          7.2480   22.5800   19.1360 O.2    13  GLY13      -0.2717
     24  N          7.9470   20.4440   19.4190 N.am   14  ARG14      -0.1979
     25  CA         7.0500   20.0930   20.5110 C.3    14  ARG14       0.1597
     26  C          7.5270   20.6010   21.8600 C.2    14  ARG14       0.2287
     27  O          6.7170   20.8130   22.7820 O.2    14  ARG14      -0.2864
     28  CB         6.8850   18.5680   20.5530 C.3    14  ARG14       0.0334
     29  CG         6.0890   18.0530   19.3740 C.3    14  ARG14       0.0492
     30  CD         6.0690   16.5460   19.2530 C.3    14  ARG14       0.2205
     31  NE         5.6740   16.2130   17.9000 N.pl3  14  ARG14      -0.0865
     32  CZ         4.4400   16.3340   17.4170 C.cat  14  ARG14       0.5346
     33  NH1        3.4360   16.7480   18.1810 N.pl3  14  ARG14       0.1354
     34  NH2        4.2040   16.0440   16.1500 N.pl3  14  ARG14       0.1354
     35  N         21.1200   10.9530   19.2840 N.3    40  LEU40      -0.1245
     36  CA        19.7980   10.3330   19.5060 C.3    40  LEU40       0.1561
     37  C         19.9570    8.8380   19.8330 C.2    40  LEU40       0.2260
     38  O         19.3870    8.3340   20.8120 O.2    40  LEU40      -0.2867
     39  CB        18.8910   10.5160   18.2990 C.3    40  LEU40       0.0270
     40  CG        17.5080    9.8520   18.5000 C.3    40  LEU40       0.0019
     41  CD1       16.7750   10.4120   19.7230 C.3    40  LEU40       0.0001
     42  CD2       16.6830    9.9770   17.2510 C.3    40  LEU40       0.0001
     43  N         18.7350    6.7720   23.1250 N.3    44  GLN44      -0.1245
     44  CA        17.8480    5.6120   22.9860 C.3    44  GLN44       0.1566
     45  C         18.4820    4.3250   23.5130 C.2    44  GLN44       0.2260
     46  O         17.8670    3.5780   24.2750 O.2    44  GLN44      -0.2867
     47  CB        17.4780    5.4120   21.5160 C.3    44  GLN44       0.0367
     48  CG        16.6390    6.5270   20.9550 C.3    44  GLN44       0.0905
     49  CD        16.4470    6.4330   19.4610 C.2    44  GLN44       0.2608
     50  OE1       17.3410    6.0010   18.7220 O.2    44  GLN44      -0.2717
     51  NE2       15.2730    6.8530   18.9980 N.am   44  GLN44      -0.0878
     52  N         11.5150    5.7800   23.5050 N.3    52  GLN52      -0.1231
     53  CA        12.5080    5.9620   22.4330 C.3    52  GLN52       0.1698
     54  C         12.3970    7.3150   21.7240 C.2    52  GLN52       0.2592
     55  O         12.9860    7.5150   20.6650 O.2    52  GLN52      -0.2718
     56  CB        12.4640    4.8070   21.4090 C.3    52  GLN52       0.0381
     57  CG        12.8520    3.4410   21.9820 C.3    52  GLN52       0.0905
     58  CD        12.4280    2.2690   21.0830 C.2    52  GLN52       0.2608
     59  OE1       11.5640    2.4050   20.2080 O.2    52  GLN52      -0.2717
     60  NE2       13.0470    1.1050   21.3030 N.am   52  GLN52      -0.0878
     61  N         11.6620    8.2470   22.3300 N.am   53  GLN53      -0.1966
     62  CA        11.3370    9.5100   21.6860 C.3    53  GLN53       0.1733
     63  C         11.6120   10.7150   22.5810 C.2    53  GLN53       0.2616
     64  O         11.6470   10.5880   23.7900 O.2    53  GLN53      -0.2715
     65  CB         9.8550    9.5600   21.3110 C.3    53  GLN53       0.0408
     66  CG         9.4260    8.5930   20.2540 C.3    53  GLN53       0.0908
     67  CD         7.9230    8.4380   20.2360 C.2    53  GLN53       0.2608
     68  OE1        7.3410    7.7570   21.0850 O.2    53  GLN53      -0.2717
     69  NE2        7.2880    9.0600   19.2700 N.am   53  GLN53      -0.0878
     70  N         11.7570   11.8810   21.9420 N.am   54  VAL54      -0.1964
     71  CA        11.7170   13.1910   22.6210 C.3    54  VAL54       0.1712
     72  C         10.4610   13.9610   22.1830 C.2    54  VAL54       0.2458
     73  O          9.8630   13.6290   21.1760 O.2    54  VAL54      -0.2730
     74  CB        12.9550   14.0240   22.3080 C.3    54  VAL54       0.0289
     75  CG1       14.1760   13.3910   22.9890 C.3    54  VAL54       0.0023
     76  CG2       13.1370   14.1810   20.8020 C.3    54  VAL54       0.0023
     77  N         10.0700   15.0130   22.9190 N.am   55  PRO55      -0.2727
     78  CA        10.6970   15.6410   24.0750 C.3    55  PRO55       0.1402
     79  C         10.9830   14.7070   25.2440 C.2    55  PRO55       0.2269
     80  O         10.1400   13.8480   25.5940 O.2    55  PRO55      -0.2865
     81  CB         9.6400   16.6730   24.5090 C.3    55  PRO55       0.0296
     82  CG         8.9400   17.0170   23.2700 C.3    55  PRO55       0.0237
     83  CD         8.8360   15.7190   22.5330 C.3    55  PRO55       0.0939
     84  N          6.6950   12.4310   26.6670 N.3    66  GLN66      -0.1231
     85  CA         5.3380   12.7150   26.2030 C.3    66  GLN66       0.1698
     86  C          4.9770   14.1220   26.6140 C.2    66  GLN66       0.2593
     87  O          4.7700   14.3890   27.7880 O.2    66  GLN66      -0.2718
     88  CB         4.2780   11.7340   26.7390 C.3    66  GLN66       0.0381
     89  CG         4.5260   10.2510   26.4590 C.3    66  GLN66       0.0905
     90  CD         4.3520    9.8270   25.0140 C.2    66  GLN66       0.2608
     91  OE1        5.0300    8.8910   24.5690 O.2    66  GLN66      -0.2717
     92  NE2        3.4420   10.4880   24.2730 N.am   66  GLN66      -0.0878
     93  N          4.9000   15.0100   25.6230 N.am   67  THR67      -0.1939
     94  CA         4.7450   16.4220   25.8560 C.3    67  THR67       0.2028
     95  C          3.5880   16.6990   26.8370 C.2    67  THR67       0.2642
     96  O          3.7500   17.4140   27.8120 O.2    67  THR67      -0.2714
     97  CB         4.4760   17.1550   24.5280 C.3    67  THR67       0.1808
     98  OG1        5.5240   16.8600   23.5940 O.3    67  THR67      -0.2208
     99  CG2        4.4130   18.6810   24.7570 C.3    67  THR67       0.0379
    100  N          2.4310   16.1330   26.5670 N.am   68  ARG68      -0.1977
    101  CA         1.2670   16.3330   27.4650 C.3    68  ARG68       0.1597
    102  C          1.5310   15.9490   28.9190 C.2    68  ARG68       0.2287
    103  O          1.1240   16.6670   29.8170 O.2    68  ARG68      -0.2864
    104  CB         0.0660   15.5740   26.9510 C.3    68  ARG68       0.0334
    105  CG        -0.4780   16.1620   25.6950 C.3    68  ARG68       0.0492
    106  CD        -1.4950   15.2580   25.0860 C.3    68  ARG68       0.2205
    107  NE        -2.1400   15.9010   23.9540 N.pl3  68  ARG68      -0.0865
    108  CZ        -1.5640   16.0620   22.7610 C.cat  68  ARG68       0.5346
    109  NH1       -0.3380   15.6090   22.5250 N.pl3  68  ARG68       0.1354
    110  NH2       -2.2270   16.6640   21.7910 N.pl3  68  ARG68       0.1354
    111  N          3.2960   23.0360   14.3360 N.3   106  ILE106     -0.1231
    112  CA         4.4220   22.1420   14.5960 C.3   106  ILE106      0.1692
    113  C          4.7760   21.4040   13.3140 C.2   106  ILE106      0.2591
    114  O          5.9470   21.2370   12.9920 O.2   106  ILE106     -0.2718
    115  CB         4.1130   21.1440   15.7500 C.3   106  ILE106      0.0266
    116  CG1        4.1630   21.8710   17.1030 C.3   106  ILE106      0.0019
    117  CG2        5.0940   19.9810   15.7130 C.3   106  ILE106      0.0020
    118  CD1        3.3420   21.2410   18.2180 C.3   106  ILE106      0.0001
    119  N          3.7560   20.9970   12.5650 N.am  107  MET107     -0.1979
    120  CA         3.9760   20.1770   11.3820 C.3   107  MET107      0.1605
    121  C          4.1760   20.9850   10.1030 C.2   107  MET107      0.2287
    122  O          4.6290   20.4290    9.1090 O.2   107  MET107     -0.2864
    123  CB         2.8300   19.1590   11.2210 C.3   107  MET107      0.0413
    124  CG         2.8320   18.0760   12.3250 C.3   107  MET107      0.0598
    125  SD         4.4620   17.2710   12.5220 S.3   107  MET107     -0.1393
    126  CE         4.6400   16.4680   10.9080 C.3   107  MET107      0.0692
    127  N          7.3820   20.9940    7.7070 N.3   110  PHE110     -0.1241
    128  CA         7.7300   19.7170    7.0720 C.3   110  PHE110      0.1605
    129  C          6.7740   19.3420    5.9510 C.2   110  PHE110      0.2264
    130  O          6.7830   18.2220    5.4980 O.2   110  PHE110     -0.2867
    131  CB         7.7800   18.6010    8.1280 C.3   110  PHE110      0.0534
    132  CG         8.7060   18.9110    9.2560 C.ar  110  PHE110     -0.0203
    133  CD1       10.0760   18.9400    9.0450 C.ar  110  PHE110     -0.0042
    134  CD2        8.2180   19.2460   10.5050 C.ar  110  PHE110     -0.0042
    135  CE1       10.9390   19.2930   10.0580 C.ar  110  PHE110     -0.0003
    136  CE2        9.0660   19.5750   11.5180 C.ar  110  PHE110     -0.0003
    137  CZ        10.4380   19.6080   11.2980 C.ar  110  PHE110     -0.0000
    138  N         17.2360   24.2970   11.0170 N.3   211  TYR211     -0.1241
    139  CA        16.4520   23.4550   11.9270 C.3   211  TYR211      0.1605
    140  C         15.8140   22.2810   11.2140 C.2   211  TYR211      0.2264
    141  O         15.9590   21.1470   11.6550 O.2   211  TYR211     -0.2867
    142  CB        15.3920   24.2710   12.6530 C.3   211  TYR211      0.0534
    143  CG        14.4530   23.4230   13.4710 C.ar  211  TYR211     -0.0201
    144  CD1       14.8530   22.8730   14.6820 C.ar  211  TYR211     -0.0009
    145  CD2       13.1750   23.1540   13.0190 C.ar  211  TYR211     -0.0009
    146  CE1       13.9750   22.0960   15.4410 C.ar  211  TYR211      0.0417
    147  CE2       12.2940   22.3770   13.7650 C.ar  211  TYR211      0.0417
    148  CZ        12.6950   21.8520   14.9640 C.ar  211  TYR211      0.1957
    149  OH        11.7930   21.0900   15.6720 O.3   211  TYR211     -0.2866
    150  N         16.4220   18.1510   11.6520 N.3   215  VAL215     -0.1231
    151  CA        15.4590   17.1580   12.1570 C.3   215  VAL215      0.1692
    152  C         15.3490   15.9950   11.2070 C.2   215  VAL215      0.2592
    153  O         15.2620   14.8620   11.6650 O.2   215  VAL215     -0.2718
    154  CB        14.0240   17.6850   12.5330 C.3   215  VAL215      0.0266
    155  CG1       14.0140   19.1690   12.7750 C.3   215  VAL215      0.0020
    156  CG2       12.9880   17.2640   11.5060 C.3   215  VAL215      0.0020
    157  N         15.3570   16.2600    9.8970 N.am  216  TYR216     -0.1976
    158  CA        15.4710   15.1800    8.9030 C.3   216  TYR216      0.1639
    159  C         16.7330   14.3490    9.1430 C.2   216  TYR216      0.2290
    160  O         16.6860   13.1230    9.0680 O.2   216  TYR216     -0.2864
    161  CB        15.4950   15.7150    7.4670 C.3   216  TYR216      0.0560
    162  CG        14.1550   16.1680    6.9280 C.ar  216  TYR216     -0.0198
    163  CD1       13.0830   15.2880    6.8340 C.ar  216  TYR216     -0.0009
    164  CD2       13.9690   17.4700    6.4730 C.ar  216  TYR216     -0.0009
    165  CE1       11.8480   15.6990    6.3240 C.ar  216  TYR216      0.0417
    166  CE2       12.7430   17.8900    5.9590 C.ar  216  TYR216      0.0417
    167  CZ        11.6890   17.0020    5.8870 C.ar  216  TYR216      0.1957
    168  OH        10.4800   17.4210    5.3790 O.3   216  TYR216     -0.2866
    169  N         16.0360   12.3500   12.6980 N.3   219  PHE219     -0.1227
    170  CA        14.8740   11.4780   12.8870 C.3   219  PHE219      0.1736
    171  C         14.4870   10.6600   11.6500 C.2   219  PHE219      0.2595
    172  O         13.3930   10.0910   11.6190 O.2   219  PHE219     -0.2718
    173  CB        13.6610   12.3190   13.3190 C.3   219  PHE219      0.0547
    174  CG        13.8040   12.9500   14.6730 C.ar  219  PHE219     -0.0202
    175  CD1       13.6410   12.1910   15.8240 C.ar  219  PHE219     -0.0042
    176  CD2       14.0780   14.3030   14.8040 C.ar  219  PHE219     -0.0042
    177  CE1       13.7570   12.7670   17.0900 C.ar  219  PHE219     -0.0003
    178  CE2       14.2030   14.8900   16.0650 C.ar  219  PHE219     -0.0003
    179  CZ        14.0530   14.1130   17.2130 C.ar  219  PHE219     -0.0000
    180  N         15.3550   10.5960   10.6380 N.am  220  ARG220     -0.1980
    181  CA        14.9900    9.9240    9.3750 C.3   220  ARG220      0.1597
    182  C         15.9910    8.8790    8.9050 C.2   220  ARG220      0.2287
    183  O         17.1150    9.2320    8.5260 O.2   220  ARG220     -0.2864
    184  CB        14.7920   10.9280    8.2400 C.3   220  ARG220      0.0334
    185  CG        13.5930   11.8320    8.4010 C.3   220  ARG220      0.0492
    186  CD        12.3010   11.0420    8.5150 C.3   220  ARG220      0.2205
    187  NE        11.1620   11.7900    7.9900 N.pl3 220  ARG220     -0.0865
    188  CZ         9.9280   11.3070    7.8800 C.cat 220  ARG220      0.5346
    189  NH1        9.6530   10.0650    8.2700 N.pl3 220  ARG220      0.1354
    190  NH2        8.9620   12.0720    7.3810 N.pl3 220  ARG220      0.1354
@<TRIPOS>BOND
     1   168   167    1
     2   130   129    2
     3   167   166   ar
     4   167   165   ar
     5   129   128    1
     6   166   164   ar
     7   165   163   ar
     8   164   162   ar
     9   163   162   ar
    10   162   161    1
    11   128   127    1
    12   128   131    1
    13   190   188    1
    14   161   158    1
    15   188   187    2
    16   188   189    1
    17   187   186    1
    18   131   132    1
    19   184   185    1
    20   184   181    1
    21   185   186    1
    22   183   182    2
    23   158   159    1
    24   158   157    1
    25   182   181    1
    26   133   132   ar
    27   133   135   ar
    28   160   159    2
    29   122   121    2
    30   132   134   ar
    31   181   180    1
    32   157   152   am
    33   135   137   ar
    34   121   120    1
    35   134   136   ar
    36   180   171   am
    37   126   125    1
    38   138   139    1
    39   152   153    2
    40   152   151    1
    41   140   141    2
    42   140   139    1
    43   123   120    1
    44   123   124    1
    45   137   136   ar
    46   120   119    1
    47   156   154    1
    48   172   171    2
    49   171   170    1
    50   150   151    1
    51   139   142    1
    52   151   154    1
    53   124   125    1
    54   154   155    1
    55   119   113   am
    56   142   143    1
    57   169   170    1
    58   170   173    1
    59   114   113    2
    60   145   143   ar
    61   145   147   ar
    62   113   112    1
    63   173   174    1
    64   143   144   ar
    65   147   148   ar
    66   111   112    1
    67   112   115    1
    68   174   176   ar
    69   174   175   ar
    70   144   146   ar
    71   176   178   ar
    72   148   146   ar
    73   148   149    1
    74   117   115    1
    75   115   116    1
    76   175   177   ar
    77   178   179   ar
    78    34    32    1
    79   177   179   ar
    80   116   118    1
    81    42    40    1
    82    32    31    2
    83    32    33    1
    84    17    18    1
    85    17    14    1
    86    18    19    1
    87    21    20    1
    88    21    22    1
    89    31    30    1
    90    39    40    1
    91    39    36    1
    92    40    41    1
    93    12    11    1
    94    50    49    2
    95    22    23    2
    96    22    24   am
    97    14    15    1
    98    14    13    1
    99    19    13    1
   100    51    49   am
   101    30    29    1
   102    69    67   am
   103    35    36    1
   104    15    16    2
   105    29    28    1
   106    24    25    1
   107    49    48    1
   108    36    37    1
   109    11    10   ar
   110    11     9   ar
   111    10     8   ar
   112    13     3   am
   113    37    38    2
   114    59    58    2
   115    67    66    1
   116    67    68    2
   117    66    65    1
   118     9     7   ar
   119     8     6   ar
   120    25    28    1
   121    25    26    1
   122    55    54    2
   123    76    74    1
   124    48    47    1
   125     3     4    2
   126     3     2    1
   127    58    60   am
   128    58    57    1
   129    73    72    2
   130     7     6   ar
   131    65    62    1
   132     6     5    1
   133    56    57    1
   134    56    53    1
   135    47    44    1
   136    62    61    1
   137    62    63    1
   138    54    61   am
   139    54    53    1
   140   110   108    1
   141    26    27    2
   142    70    63   am
   143    70    71    1
   144     2     5    1
   145     2     1    1
   146    72    71    1
   147    72    77   am
   148    74    71    1
   149    74    75    1
   150    53    52    1
   151   109   108    1
   152    83    77    1
   153    83    82    1
   154    63    64    2
   155   108   107    2
   156    77    78    1
   157    44    43    1
   158    44    45    1
   159    82    81    1
   160    45    46    2
   161    98    97    1
   162   107   106    1
   163    78    81    1
   164    78    79    1
   165    92    90   am
   166    97    99    1
   167    97    94    1
   168    91    90    2
   169    90    89    1
   170   106   105    1
   171    79    80    2
   172    93    94    1
   173    93    86   am
   174   105   104    1
   175    94    95    1
   176    85    86    1
   177    85    84    1
   178    85    88    1
   179    89    88    1
   180   100    95   am
   181   100   101    1
   182    86    87    2
   183    95    96    2
   184   104   101    1
   185   101   102    1
   186   102   103    2
