@<TRIPOS>MOLECULE
tmp/3ik9D00.pdb
 196 193 0 0 0
SMALL
GASTEIGER

@<TRIPOS>ATOM
      1  N        -32.6990  -23.2210   78.3420 N.3     8  TYR8       -0.1227
      2  CA       -32.9450  -22.9720   79.7420 C.3     8  TYR8        0.1736
      3  C        -32.1820  -24.0080   80.5510 C.2     8  TYR8        0.2595
      4  O        -31.6190  -24.9460   79.9890 O.2     8  TYR8       -0.2718
      5  CB       -34.4570  -23.0440   80.0700 C.3     8  TYR8        0.0548
      6  CG       -34.8300  -22.3800   81.3920 C.ar    8  TYR8       -0.0200
      7  CD1      -34.6300  -21.0300   81.5900 C.ar    8  TYR8       -0.0009
      8  CD2      -35.3510  -23.1170   82.4380 C.ar    8  TYR8       -0.0009
      9  CE1      -34.9560  -20.4220   82.7990 C.ar    8  TYR8        0.0417
     10  CE2      -35.6740  -22.5340   83.6310 C.ar    8  TYR8        0.0417
     11  CZ       -35.4800  -21.1880   83.8190 C.ar    8  TYR8        0.1957
     12  OH       -35.8110  -20.6080   85.0380 O.3     8  TYR8       -0.2866
     13  N        -32.1640  -23.8400   81.8670 N.am    9  PHE9       -0.1976
     14  CA       -31.6620  -24.8840   82.7520 C.3     9  PHE9        0.1639
     15  C        -32.5550  -26.0970   82.6100 C.2     9  PHE9        0.2290
     16  O        -33.6700  -25.9980   82.0780 O.2     9  PHE9       -0.2864
     17  CB       -31.6300  -24.4030   84.2050 C.3     9  PHE9        0.0560
     18  CG       -31.2880  -22.9520   84.3380 C.ar    9  PHE9       -0.0200
     19  CD1      -32.2150  -22.0420   84.8330 C.ar    9  PHE9       -0.0042
     20  CD2      -30.0540  -22.4850   83.8980 C.ar    9  PHE9       -0.0042
     21  CE1      -31.8980  -20.6940   84.9250 C.ar    9  PHE9       -0.0003
     22  CE2      -29.7320  -21.1570   83.9880 C.ar    9  PHE9       -0.0003
     23  CZ       -30.6580  -20.2470   84.5050 C.ar    9  PHE9       -0.0000
     24  N        -38.4990  -23.7260   86.5090 N.3    13  GLY13      -0.1210
     25  CA       -38.1780  -22.2870   86.5470 C.3    13  GLY13       0.1956
     26  C        -39.0840  -21.4510   85.6700 C.2    13  GLY13       0.2611
     27  O        -40.3010  -21.5300   85.7600 O.2    13  GLY13      -0.2717
     28  N        -38.4940  -20.6640   84.7900 N.am   14  ARG14      -0.1979
     29  CA       -39.2840  -19.7550   83.9560 C.3    14  ARG14       0.1597
     30  C        -39.6370  -20.3180   82.5910 C.2    14  ARG14       0.2287
     31  O        -40.3340  -19.6530   81.8050 O.2    14  ARG14      -0.2864
     32  CB       -38.5290  -18.4420   83.7900 C.3    14  ARG14       0.0334
     33  CG       -38.1430  -17.8200   85.1130 C.3    14  ARG14       0.0492
     34  CD       -37.4270  -16.5090   84.9440 C.3    14  ARG14       0.2205
     35  NE       -37.0990  -15.9350   86.2380 N.pl3  14  ARG14      -0.0865
     36  CZ       -37.9130  -15.1880   86.9780 C.cat  14  ARG14       0.5346
     37  NH1      -39.1460  -14.8790   86.5640 N.pl3  14  ARG14       0.1354
     38  NH2      -37.4740  -14.7310   88.1500 N.pl3  14  ARG14       0.1354
     39  N        -24.0830  -20.6440   79.3380 N.3    40  LEU40      -0.1245
     40  CA       -24.7160  -19.3370   79.4500 C.3    40  LEU40       0.1561
     41  C        -23.9260  -18.2330   78.7420 C.2    40  LEU40       0.2260
     42  O        -24.4840  -17.5010   77.9360 O.2    40  LEU40      -0.2867
     43  CB       -24.8780  -18.9700   80.9200 C.3    40  LEU40       0.0270
     44  CG       -25.4510  -17.5820   81.1770 C.3    40  LEU40       0.0019
     45  CD1      -26.8490  -17.5050   80.5900 C.3    40  LEU40       0.0001
     46  CD2      -25.4470  -17.2900   82.6600 C.3    40  LEU40       0.0001
     47  N        -24.5260  -15.4970   75.4740 N.3    44  ARG44      -0.1245
     48  CA       -24.3140  -14.0770   75.6770 C.3    44  ARG44       0.1563
     49  C        -23.3140  -13.5430   74.6580 C.2    44  ARG44       0.2260
     50  O        -23.6080  -12.5820   73.9480 O.2    44  ARG44      -0.2867
     51  CB       -23.8150  -13.8070   77.1030 C.3    44  ARG44       0.0307
     52  CG       -24.8310  -14.1140   78.1890 C.3    44  ARG44       0.0489
     53  CD       -24.2190  -14.0430   79.5990 C.3    44  ARG44       0.2205
     54  NE       -25.2220  -13.7200   80.6170 N.pl3  44  ARG44      -0.0865
     55  CZ       -25.0280  -13.7780   81.9380 C.cat  44  ARG44       0.5346
     56  NH1      -23.8620  -14.1660   82.4440 N.pl3  44  ARG44       0.1354
     57  NH2      -26.0160  -13.4480   82.7650 N.pl3  44  ARG44       0.1354
     58  N        -31.1020   -9.2670   77.0200 N.3    51  PHE51      -0.1227
     59  CA       -30.8500   -8.7310   78.3630 C.3    51  PHE51       0.1736
     60  C        -29.9670   -9.6310   79.2110 C.2    51  PHE51       0.2595
     61  O        -29.9980   -9.5760   80.4590 O.2    51  PHE51      -0.2718
     62  CB       -32.1840   -8.4940   79.0560 C.3    51  PHE51       0.0547
     63  CG       -33.0330   -7.5190   78.3290 C.ar   51  PHE51      -0.0202
     64  CD1      -32.6160   -6.1950   78.2000 C.ar   51  PHE51      -0.0042
     65  CD2      -34.1980   -7.9180   77.7060 C.ar   51  PHE51      -0.0042
     66  CE1      -33.3850   -5.2760   77.5070 C.ar   51  PHE51      -0.0003
     67  CE2      -34.9620   -7.0110   77.0130 C.ar   51  PHE51      -0.0003
     68  CZ       -34.5620   -5.6820   76.9150 C.ar   51  PHE51      -0.0000
     69  N        -29.1890  -10.4630   78.5250 N.am   52  GLN52      -0.1965
     70  CA       -28.2080  -11.3310   79.1420 C.3    52  GLN52       0.1733
     71  C        -28.8440  -12.3920   80.0410 C.2    52  GLN52       0.2616
     72  O        -28.1320  -13.0510   80.8070 O.2    52  GLN52      -0.2715
     73  CB       -27.1680  -10.4940   79.9010 C.3    52  GLN52       0.0408
     74  CG       -26.6020   -9.2840   79.1040 C.3    52  GLN52       0.0908
     75  CD       -26.0880   -9.6660   77.7190 C.2    52  GLN52       0.2608
     76  OE1      -25.1690  -10.4810   77.5940 O.2    52  GLN52      -0.2717
     77  NE2      -26.6840   -9.0880   76.6710 N.am   52  GLN52      -0.0878
     78  N        -30.1640  -12.5820   79.9040 N.am   53  GLN53      -0.1963
     79  CA       -30.9210  -13.5550   80.6840 C.3    53  GLN53       0.1733
     80  C        -31.6200  -14.5860   79.8230 C.2    53  GLN53       0.2616
     81  O        -31.8970  -14.3360   78.6430 O.2    53  GLN53      -0.2715
     82  CB       -32.0430  -12.8800   81.4670 C.3    53  GLN53       0.0408
     83  CG       -31.6060  -11.8960   82.5090 C.3    53  GLN53       0.0908
     84  CD       -32.6840  -10.8620   82.7870 C.2    53  GLN53       0.2608
     85  OE1      -33.4980  -10.5190   81.9100 O.2    53  GLN53      -0.2717
     86  NE2      -32.6990  -10.3650   84.0080 N.am   53  GLN53      -0.0878
     87  N        -31.9620  -15.7060   80.4710 N.am   54  VAL54      -0.1964
     88  CA       -32.8250  -16.7740   79.9200 C.3    54  VAL54       0.1712
     89  C        -34.1150  -16.8240   80.7520 C.2    54  VAL54       0.2458
     90  O        -34.1460  -16.2990   81.8670 O.2    54  VAL54      -0.2730
     91  CB       -32.1270  -18.1890   79.9920 C.3    54  VAL54       0.0289
     92  CG1      -30.9140  -18.2870   79.0430 C.3    54  VAL54       0.0023
     93  CG2      -31.7070  -18.4960   81.3880 C.3    54  VAL54       0.0023
     94  N        -35.1880  -17.4530   80.2500 N.am   55  PRO55      -0.2727
     95  CA       -35.4810  -18.2400   79.0410 C.3    55  PRO55       0.1402
     96  C        -35.1120  -17.5570   77.7540 C.2    55  PRO55       0.2269
     97  O        -35.2680  -16.3430   77.6350 O.2    55  PRO55      -0.2865
     98  CB       -37.0100  -18.3650   79.0620 C.3    55  PRO55       0.0296
     99  CG       -37.3900  -18.2120   80.4860 C.3    55  PRO55       0.0237
    100  CD       -36.3760  -17.3140   81.1080 C.3    55  PRO55       0.0939
    101  N        -37.4680  -12.9480   77.4420 N.3    66  GLN66      -0.1231
    102  CA       -38.5850  -12.4490   78.2570 C.3    66  GLN66       0.1698
    103  C        -39.7760  -13.3800   78.1750 C.2    66  GLN66       0.2593
    104  O        -40.4460  -13.4550   77.1530 O.2    66  GLN66      -0.2718
    105  CB       -39.0130  -11.0040   77.8910 C.3    66  GLN66       0.0381
    106  CG       -37.9800   -9.9750   78.2440 C.3    66  GLN66       0.0905
    107  CD       -37.8260   -9.7890   79.7470 C.2    66  GLN66       0.2608
    108  OE1      -38.5630  -10.3860   80.5370 O.2    66  GLN66      -0.2717
    109  NE2      -36.8550   -8.9740   80.1480 N.am   66  GLN66      -0.0878
    110  N        -40.0260  -14.0790   79.2840 N.am   67  THR67      -0.1939
    111  CA       -41.0850  -15.0470   79.3750 C.3    67  THR67       0.2028
    112  C        -42.3610  -14.6010   78.6920 C.2    67  THR67       0.2642
    113  O        -42.9150  -15.3270   77.8790 O.2    67  THR67      -0.2714
    114  CB       -41.3870  -15.3990   80.8610 C.3    67  THR67       0.1808
    115  OG1      -40.1550  -15.7160   81.5150 O.3    67  THR67      -0.2208
    116  CG2      -42.3130  -16.6200   80.9760 C.3    67  THR67       0.0379
    117  N        -42.8420  -13.4110   79.0120 N.am   68  ARG68      -0.1977
    118  CA       -44.1210  -12.9750   78.4550 C.3    68  ARG68       0.1597
    119  C        -44.0120  -12.6530   76.9610 C.2    68  ARG68       0.2287
    120  O        -44.9980  -12.7340   76.2440 O.2    68  ARG68      -0.2864
    121  CB       -44.6650  -11.7860   79.2390 C.3    68  ARG68       0.0334
    122  CG       -45.0080  -12.1240   80.6810 C.3    68  ARG68       0.0492
    123  CD       -45.3310  -10.8150   81.3750 C.3    68  ARG68       0.2205
    124  NE       -45.6480  -10.9300   82.7880 N.pl3  68  ARG68      -0.0865
    125  CZ       -44.7480  -11.0290   83.7520 C.cat  68  ARG68       0.5346
    126  NH1      -43.4570  -11.0990   83.4690 N.pl3  68  ARG68       0.1354
    127  NH2      -45.1540  -11.0880   85.0100 N.pl3  68  ARG68       0.1354
    128  N        -41.1630  -19.7530   91.7850 N.3   106  ILE106     -0.1231
    129  CA       -39.8660  -19.8430   91.0920 C.3   106  ILE106      0.1692
    130  C        -38.7070  -19.3880   91.9870 C.2   106  ILE106      0.2591
    131  O        -37.6300  -19.9870   91.9690 O.2   106  ILE106     -0.2718
    132  CB       -39.8790  -19.0390   89.7600 C.3   106  ILE106      0.0266
    133  CG1      -40.8750  -19.6670   88.7830 C.3   106  ILE106      0.0019
    134  CG2      -38.5000  -19.0020   89.1150 C.3   106  ILE106      0.0020
    135  CD1      -41.3360  -18.7420   87.6920 C.3   106  ILE106      0.0001
    136  N        -38.9570  -18.3630   92.7970 N.am  107  MET107     -0.1979
    137  CA       -37.9780  -17.8360   93.7460 C.3   107  MET107      0.1605
    138  C        -37.8660  -18.6400   95.0520 C.2   107  MET107      0.2287
    139  O        -36.8300  -18.6000   95.7120 O.2   107  MET107     -0.2864
    140  CB       -38.3340  -16.3880   94.0990 C.3   107  MET107      0.0413
    141  CG       -38.2150  -15.4250   92.9320 C.3   107  MET107      0.0598
    142  SD       -36.4910  -15.2030   92.4580 S.3   107  MET107     -0.1393
    143  CE       -35.8770  -14.1530   93.7860 C.3   107  MET107      0.0692
    144  N        -34.6740  -20.3440   96.1180 N.3   110  PHE110     -0.1241
    145  CA       -33.4660  -19.4980   96.1830 C.3   110  PHE110      0.1605
    146  C        -33.5050  -18.4970   97.3400 C.2   110  PHE110      0.2264
    147  O        -32.5920  -17.6830   97.5060 O.2   110  PHE110     -0.2867
    148  CB       -33.2490  -18.8090   94.8350 C.3   110  PHE110      0.0534
    149  CG       -33.1520  -19.7760   93.7020 C.ar  110  PHE110     -0.0203
    150  CD1      -31.9880  -20.5110   93.5070 C.ar  110  PHE110     -0.0042
    151  CD2      -34.2350  -20.0100   92.8750 C.ar  110  PHE110     -0.0042
    152  CE1      -31.8930  -21.4300   92.4900 C.ar  110  PHE110     -0.0003
    153  CE2      -34.1500  -20.9400   91.8480 C.ar  110  PHE110     -0.0003
    154  CZ       -32.9740  -21.6460   91.6540 C.ar  110  PHE110     -0.0000
    155  N        -30.7540  -29.3070   91.1500 N.3   211  TYR211     -0.1241
    156  CA       -31.1590  -28.1730   90.3190 C.3   211  TYR211      0.1605
    157  C        -30.7210  -26.8730   90.9390 C.2   211  TYR211      0.2264
    158  O        -30.0920  -26.0640   90.2920 O.2   211  TYR211     -0.2867
    159  CB       -32.6760  -28.1360   90.1310 C.3   211  TYR211      0.0534
    160  CG       -33.1710  -26.9560   89.3130 C.ar  211  TYR211     -0.0201
    161  CD1      -33.0450  -26.9440   87.9260 C.ar  211  TYR211     -0.0009
    162  CD2      -33.7610  -25.8510   89.9250 C.ar  211  TYR211     -0.0009
    163  CE1      -33.4880  -25.8650   87.1650 C.ar  211  TYR211      0.0417
    164  CE2      -34.2200  -24.7620   89.1670 C.ar  211  TYR211      0.0417
    165  CZ       -34.0790  -24.7810   87.7860 C.ar  211  TYR211      0.1957
    166  OH       -34.5150  -23.7170   87.0240 O.3   211  TYR211     -0.2866
    167  N        -27.7710  -23.9570   89.2560 N.3   215  VAL215     -0.1231
    168  CA       -27.9020  -22.5620   88.8340 C.3   215  VAL215      0.1692
    169  C        -27.0640  -21.6040   89.6830 C.2   215  VAL215      0.2592
    170  O        -26.6340  -20.5780   89.1850 O.2   215  VAL215     -0.2718
    171  CB       -29.3660  -22.0700   88.7920 C.3   215  VAL215      0.0266
    172  CG1      -30.3230  -23.2190   88.4830 C.3   215  VAL215      0.0020
    173  CG2      -29.7220  -21.3750   90.0710 C.3   215  VAL215      0.0020
    174  N        -26.8210  -21.9290   90.9490 N.am  216  TYR216     -0.1976
    175  CA       -25.9580  -21.0850   91.7760 C.3   216  TYR216      0.1639
    176  C        -24.5490  -20.9790   91.2060 C.2   216  TYR216      0.2290
    177  O        -24.0110  -19.8760   91.0970 O.2   216  TYR216     -0.2864
    178  CB       -25.9040  -21.5600   93.2380 C.3   216  TYR216      0.0560
    179  CG       -26.8830  -20.8290   94.1150 C.ar  216  TYR216     -0.0198
    180  CD1      -27.8750  -21.5110   94.8090 C.ar  216  TYR216     -0.0009
    181  CD2      -26.8310  -19.4350   94.2330 C.ar  216  TYR216     -0.0009
    182  CE1      -28.7830  -20.8290   95.6010 C.ar  216  TYR216      0.0417
    183  CE2      -27.7360  -18.7450   95.0200 C.ar  216  TYR216      0.0417
    184  CZ       -28.7120  -19.4480   95.6990 C.ar  216  TYR216      0.1957
    185  OH       -29.6130  -18.7750   96.4900 O.3   216  TYR216     -0.2866
    186  N        -23.8260  -19.0050   87.8800 N.3   219  PHE219     -0.1241
    187  CA       -23.7100  -17.5420   87.9700 C.3   219  PHE219      0.1605
    188  C        -22.4960  -17.0770   88.7840 C.2   219  PHE219      0.2264
    189  O        -22.0710  -17.7300   89.7430 O.2   219  PHE219     -0.2867
    190  CB       -25.0090  -16.9620   88.5490 C.3   219  PHE219      0.0534
    191  CG       -26.1950  -17.1090   87.6250 C.ar  219  PHE219     -0.0203
    192  CD1      -26.1940  -16.5040   86.3750 C.ar  219  PHE219     -0.0042
    193  CD2      -27.3050  -17.8480   87.9980 C.ar  219  PHE219     -0.0042
    194  CE1      -27.2800  -16.6460   85.5070 C.ar  219  PHE219     -0.0003
    195  CE2      -28.3930  -17.9890   87.1460 C.ar  219  PHE219     -0.0003
    196  CZ       -28.3810  -17.3870   85.8960 C.ar  219  PHE219     -0.0000
@<TRIPOS>BOND
     1    50    49    2
     2    49    48    1
     3    47    48    1
     4    48    51    1
     5   120   119    2
     6    77    75   am
     7    68    67   ar
     8    68    66   ar
     9   119   118    1
    10    67    65   ar
    11    58    59    1
    12    51    52    1
    13   104   103    2
    14   101   102    1
    15    66    64   ar
    16    76    75    2
    17    97    96    2
    18    65    63   ar
    19    75    74    1
    20    96    95    1
    21   113   112    2
    22   105   106    1
    23   105   102    1
    24    42    41    2
    25   103   102    1
    26   103   110   am
    27    52    53    1
    28    64    63   ar
    29   106   107    1
    30    63    62    1
    31     1     2    1
    32    59    62    1
    33    59    60    1
    34   118   117    1
    35   118   121    1
    36    69    70    1
    37    69    60   am
    38    81    80    2
    39   112   117   am
    40   112   111    1
    41    41    40    1
    42    95    98    1
    43    95    94    1
    44    92    91    1
    45    98    99    1
    46    74    73    1
    47    70    73    1
    48    70    71    1
    49    60    61    2
    50   121   122    1
    51   110   111    1
    52    39    40    1
    53   111   114    1
    54    40    43    1
    55    53    54    1
    56     2     5    1
    57     2     3    1
    58   107   109   am
    59   107   108    2
    60    80    87   am
    61    80    79    1
    62    78    71   am
    63    78    79    1
    64    88    91    1
    65    88    87    1
    66    88    89    1
    67     4     3    2
    68    91    93    1
    69    71    72    2
    70     5     6    1
    71    94    89   am
    72    94   100    1
    73    99   100    1
    74     3    13   am
    75    45    44    1
    76    54    55    2
    77   122   123    1
    78    79    82    1
    79    89    90    2
    80   114   116    1
    81   114   115    1
    82    43    44    1
    83    44    46    1
    84   123   124    1
    85     6     7   ar
    86     6     8   ar
    87    82    83    1
    88     7     9   ar
    89    31    30    2
    90    13    14    1
    91    85    84    2
    92    55    56    1
    93    55    57    1
    94    16    15    2
    95     8    10   ar
    96    83    84    1
    97    30    29    1
    98    15    14    1
    99    14    17    1
   100    84    86   am
   101   124   125    2
   102     9    11   ar
   103   126   125    1
   104    10    11   ar
   105   125   127    1
   106    32    29    1
   107    32    33    1
   108    11    12    1
   109    20    22   ar
   110    20    18   ar
   111    29    28    1
   112    22    23   ar
   113    17    18    1
   114    18    19   ar
   115    23    21   ar
   116    28    26   am
   117    19    21   ar
   118    34    33    1
   119    34    35    1
   120   194   196   ar
   121   194   192   ar
   122    26    27    2
   123    26    25    1
   124   196   195   ar
   125    35    36    2
   126   192   191   ar
   127    24    25    1
   128    37    36    1
   129    36    38    1
   130   166   165    1
   131   195   193   ar
   132   163   165   ar
   133   163   161   ar
   134   191   193   ar
   135   191   190    1
   136   135   133    1
   137   165   164   ar
   138   186   187    1
   139   161   160   ar
   140   187   190    1
   141   187   188    1
   142   172   171    1
   143   133   132    1
   144   188   189    2
   145   171   168    1
   146   171   173    1
   147   168   167    1
   148   168   169    1
   149   134   132    1
   150   164   162   ar
   151   170   169    2
   152   160   162   ar
   153   160   159    1
   154   169   174   am
   155   132   129    1
   156   159   156    1
   157   158   157    2
   158   156   157    1
   159   156   155    1
   160   174   175    1
   161   129   128    1
   162   129   130    1
   163   177   176    2
   164   176   175    1
   165   154   153   ar
   166   154   152   ar
   167   175   178    1
   168   153   151   ar
   169   131   130    2
   170   130   136   am
   171   142   141    1
   172   142   143    1
   173   152   150   ar
   174   136   137    1
   175   151   149   ar
   176   141   140    1
   177   178   179    1
   178   150   149   ar
   179   149   148    1
   180   137   140    1
   181   137   138    1
   182   179   181   ar
   183   179   180   ar
   184   181   183   ar
   185   180   182   ar
   186   148   145    1
   187   183   184   ar
   188   138   139    2
   189   182   184   ar
   190   184   185    1
   191   144   145    1
   192   145   146    1
   193   146   147    2
