@<TRIPOS>MOLECULE
tmp/3ikaA00.pdb
 154 145 0 0 0
SMALL
GASTEIGER

@<TRIPOS>ATOM
      1  N         -9.1110    9.3800   23.5940 N.3    21  LYS21      -0.1245
      2  CA       -10.4350    9.2620   24.1250 C.3    21  LYS21       0.1561
      3  C        -11.0080   10.6060   24.2770 C.2    21  LYS21       0.2260
      4  O        -10.3090   11.5580   24.1570 O.2    21  LYS21      -0.2867
      5  CB       -10.4010    8.5550   25.4520 C.3    21  LYS21       0.0271
      6  CG       -10.2370    9.4440   26.6030 C.3    21  LYS21       0.0035
      7  CD       -11.2800    9.1680   27.6190 C.3    21  LYS21       0.0206
      8  CE       -10.7300    8.4080   28.7700 C.3    21  LYS21       0.1093
      9  NZ       -11.8110    8.1020   29.7130 N.3    21  LYS21      -0.1314
     10  N        -12.9370   13.3670   26.5940 N.3    23  LEU23      -0.1231
     11  CA       -13.3000   13.7040   27.9390 C.3    23  LEU23       0.1693
     12  C        -14.6230   14.4010   27.8990 C.2    23  LEU23       0.2592
     13  O        -15.5760   13.9750   28.5540 O.2    23  LEU23      -0.2718
     14  CB       -12.2900   14.6630   28.4880 C.3    23  LEU23       0.0284
     15  CG       -10.9070   14.1970   28.1110 C.3    23  LEU23       0.0019
     16  CD1       -9.9250   15.2400   28.5100 C.3    23  LEU23       0.0001
     17  CD2      -10.6480   12.9600   28.8790 C.3    23  LEU23       0.0001
     18  N        -14.6750   15.4810   27.1300 N.am   24  GLY24      -0.1957
     19  CA       -15.8440   16.3170   27.0850 C.3    24  GLY24       0.1869
     20  C        -16.3310   16.4760   25.6690 C.2    24  GLY24       0.2309
     21  O        -15.5420   16.4460   24.6970 O.2    24  GLY24      -0.2863
     22  N        -13.5050   17.7700   23.2360 N.3    31  VAL31      -0.1245
     23  CA       -12.1420   17.8520   23.6940 C.3    31  VAL31       0.1561
     24  C        -11.6080   16.4800   23.9340 C.2    31  VAL31       0.2260
     25  O        -12.1940   15.7060   24.6360 O.2    31  VAL31      -0.2867
     26  CB       -11.9800   18.8110   24.8910 C.3    31  VAL31       0.0252
     27  CG1      -13.2750   19.0310   25.5620 C.3    31  VAL31       0.0019
     28  CG2      -10.8880   18.3410   25.8410 C.3    31  VAL31       0.0019
     29  N         -8.7590   13.5750   24.8760 N.3    33  LYS33      -0.1245
     30  CA        -7.5240   13.2770   25.5800 C.3    33  LYS33       0.1561
     31  C         -6.6130   12.6460   24.5450 C.2    33  LYS33       0.2260
     32  O         -7.0450   11.7730   23.7730 O.2    33  LYS33      -0.2867
     33  CB        -7.7920   12.2920   26.6930 C.3    33  LYS33       0.0271
     34  CG        -6.5380   11.7520   27.3380 C.3    33  LYS33       0.0035
     35  CD        -6.8610   10.5610   28.2280 C.3    33  LYS33       0.0206
     36  CE        -5.7420   10.3760   29.2440 C.3    33  LYS33       0.1093
     37  NZ        -5.9930    9.3430   30.3110 N.3    33  LYS33      -0.1314
     38  N         -4.7860   17.6810   26.0690 N.3    48  ALA48      -0.1245
     39  CA        -6.1750   17.7370   25.7810 C.3    48  ALA48       0.1562
     40  C         -6.3360   18.5570   24.5140 C.2    48  ALA48       0.2260
     41  O         -5.8990   19.6940   24.4400 O.2    48  ALA48      -0.2867
     42  CB        -6.8490   18.3820   26.8690 C.3    48  ALA48       0.0290
     43  N         -8.8300   20.3310   22.0220 N.3    50  LYS50      -0.1245
     44  CA       -10.1770   20.8070   21.9320 C.3    50  LYS50       0.1561
     45  C        -10.4300   21.1200   20.5030 C.2    50  LYS50       0.2260
     46  O         -9.8400   22.0100   19.9670 O.2    50  LYS50      -0.2867
     47  CB       -10.2860   22.0780   22.7200 C.3    50  LYS50       0.0271
     48  CG       -11.6040   22.7110   22.6890 C.3    50  LYS50       0.0035
     49  CD       -11.8830   23.3230   23.9890 C.3    50  LYS50       0.0206
     50  CE       -12.0070   24.7810   23.8680 C.3    50  LYS50       0.1093
     51  NZ       -12.1200   25.4050   25.1900 N.3    50  LYS50      -0.1314
     52  N         -3.7390   21.6670   24.6210 N.3    95  MET95      -0.1230
     53  CA        -3.4410   22.0870   25.9490 C.3    95  MET95       0.1702
     54  C         -2.9300   20.9590   26.7450 C.2    95  MET95       0.2592
     55  O         -3.1980   19.8340   26.4760 O.2    95  MET95      -0.2718
     56  CB        -4.6950   22.5670   26.6130 C.3    95  MET95       0.0401
     57  CG        -5.1460   23.8570   26.1310 C.3    95  MET95       0.0596
     58  SD        -6.7940   24.0030   26.5970 S.3    95  MET95      -0.1393
     59  CE        -7.5050   22.8670   25.5100 C.3    95  MET95       0.0692
     60  N         -2.1920   21.2890   27.7690 N.am   96  GLN96      -0.1966
     61  CA        -1.6290   20.3030   28.6290 C.3    96  GLN96       0.1733
     62  C         -2.7460   19.5720   29.2720 C.2    96  GLN96       0.2616
     63  O         -3.6870   20.1770   29.6980 O.2    96  GLN96      -0.2715
     64  CB        -0.8710   21.0180   29.7050 C.3    96  GLN96       0.0408
     65  CG         0.3150   20.3040   30.1770 C.3    96  GLN96       0.0908
     66  CD         0.4930   20.4020   31.6470 C.2    96  GLN96       0.2608
     67  OE1        0.2430   21.4210   32.2400 O.2    96  GLN96      -0.2717
     68  NE2        0.9330   19.3380   32.2430 N.am   96  GLN96      -0.0878
     69  N         -2.6400   18.2650   29.3720 N.am   97  LEU97      -0.1963
     70  CA        -3.6600   17.5110   30.0560 C.3    97  LEU97       0.1728
     71  C         -3.5460   17.7330   31.5580 C.2    97  LEU97       0.2616
     72  O         -2.4510   17.8150   32.1160 O.2    97  LEU97      -0.2715
     73  CB        -3.5410   16.0330   29.7400 C.3    97  LEU97       0.0311
     74  CG        -4.5480   15.1380   30.4760 C.3    97  LEU97       0.0022
     75  CD1       -5.9560   15.4320   29.9970 C.3    97  LEU97       0.0001
     76  CD2       -4.2720   13.6640   30.2900 C.3    97  LEU97       0.0001
     77  N         -4.6980   17.8720   32.1960 N.am   98  MET98      -0.1964
     78  CA        -4.8100   17.8740   33.6400 C.3    98  MET98       0.1722
     79  C         -5.3040   16.4920   34.0020 C.2    98  MET98       0.2458
     80  O         -6.5050   16.2300   33.9020 O.2    98  MET98      -0.2730
     81  CB        -5.8250   18.9060   34.0950 C.3    98  MET98       0.0427
     82  CG        -5.3910   20.3420   33.8690 C.3    98  MET98       0.0599
     83  SD        -3.5990   20.5230   33.9550 S.3    98  MET98      -0.1393
     84  CE        -3.4080   21.8180   35.1540 C.3    98  MET98       0.0692
     85  N         -4.3910   15.6020   34.4250 N.am   99  PRO99      -0.2716
     86  CA        -4.6520   14.1650   34.5360 C.3    99  PRO99       0.1536
     87  C         -5.8220   13.8400   35.4100 C.2    99  PRO99       0.2599
     88  O         -6.3510   12.7360   35.3190 O.2    99  PRO99      -0.2715
     89  CB        -3.3750   13.6260   35.1970 C.3    99  PRO99       0.0310
     90  CG        -2.3740   14.6220   34.9900 C.3    99  PRO99       0.0237
     91  CD        -3.0980   15.9340   35.0280 C.3    99  PRO99       0.0939
     92  N         -6.2550   14.7850   36.2290 N.am  100  PHE100     -0.1960
     93  CA        -7.2520   14.4470   37.2090 C.3   100  PHE100      0.1771
     94  C         -8.6390   14.9570   36.9580 C.2   100  PHE100      0.2620
     95  O         -9.5560   14.6050   37.7010 O.2   100  PHE100     -0.2715
     96  CB        -6.8060   14.9080   38.5570 C.3   100  PHE100      0.0574
     97  CG        -5.7930   14.0240   39.1780 C.ar  100  PHE100     -0.0200
     98  CD1       -6.1860   12.8230   39.7830 C.ar  100  PHE100     -0.0042
     99  CD2       -4.4350   14.4010   39.2070 C.ar  100  PHE100     -0.0042
    100  CE1       -5.2410   12.0040   40.4000 C.ar  100  PHE100     -0.0003
    101  CE2       -3.4790   13.5770   39.8240 C.ar  100  PHE100     -0.0003
    102  CZ        -3.8810   12.3830   40.4180 C.ar  100  PHE100     -0.0000
    103  N         -8.8160   15.7650   35.9290 N.am  101  GLY101     -0.1940
    104  CA       -10.1210   16.3260   35.6790 C.3   101  GLY101      0.2014
    105  C        -10.3190   17.5970   36.4490 C.2   101  GLY101      0.2639
    106  O         -9.3890   18.1320   37.0460 O.2   101  GLY101     -0.2714
    107  N        -11.5480   18.0750   36.4990 N.am  102  CYS102     -0.1967
    108  CA       -11.8640   19.3570   37.1190 C.3   102  CYS102      0.1712
    109  C        -12.1590   19.2370   38.5770 C.2   102  CYS102      0.2296
    110  O        -12.9710   18.4240   38.9610 O.2   102  CYS102     -0.2864
    111  CB       -13.1460   19.7580   36.4960 C.3   102  CYS102      0.0983
    112  SG       -14.3790   18.6170   37.0750 S.3   102  CYS102     -0.0798
    113  N        -14.1100   20.2830   40.5930 N.3   104  LEU104     -0.1231
    114  CA       -15.4890   19.9640   40.9100 C.3   104  LEU104      0.1693
    115  C        -15.6650   18.4710   41.0940 C.2   104  LEU104      0.2592
    116  O        -16.3440   18.0310   42.0010 O.2   104  LEU104     -0.2718
    117  CB       -16.4220   20.4580   39.8000 C.3   104  LEU104      0.0284
    118  CG       -17.9350   20.1750   39.8680 C.3   104  LEU104      0.0019
    119  CD1      -18.5630   20.4480   41.2360 C.3   104  LEU104      0.0001
    120  CD2      -18.6150   21.0440   38.8170 C.3   104  LEU104      0.0001
    121  N        -15.1640   17.7280   40.1450 N.am  105  ASP105     -0.1974
    122  CA       -15.2600   16.2970   40.1590 C.3   105  ASP105      0.1709
    123  C        -14.4100   15.6720   41.1990 C.2   105  ASP105      0.2293
    124  O        -14.7760   14.7000   41.7950 O.2   105  ASP105     -0.2864
    125  CB       -14.9400   15.7430   38.8010 C.3   105  ASP105      0.1436
    126  CG       -16.1060   15.7930   37.8870 C.2   105  ASP105      0.3671
    127  OD1      -15.9060   15.7950   36.6800 O.co2 105  ASP105     -0.2456
    128  OD2      -17.2310   15.8280   38.3750 O.co2 105  ASP105     -0.2456
    129  N        -15.9290   23.5960   38.0990 N.3   146  ARG146     -0.1245
    130  CA       -15.8530   22.7910   36.9290 C.3   146  ARG146      0.1563
    131  C        -14.7660   23.3570   36.0820 C.2   146  ARG146      0.2260
    132  O        -14.1930   22.6880   35.2620 O.2   146  ARG146     -0.2867
    133  CB       -17.1430   22.9110   36.1820 C.3   146  ARG146      0.0307
    134  CG       -17.1920   24.1620   35.4460 C.3   146  ARG146      0.0489
    135  CD       -18.4760   24.2910   34.7630 C.3   146  ARG146      0.2205
    136  NE       -19.3580   25.1810   35.4770 N.pl3 146  ARG146     -0.0865
    137  CZ       -19.8960   26.2470   34.9300 C.cat 146  ARG146      0.5346
    138  NH1      -19.6260   26.5380   33.6750 N.pl3 146  ARG146      0.1354
    139  NH2      -20.6950   27.0100   35.6320 N.pl3 146  ARG146      0.1354
    140  N         -9.0050   22.9680   36.9040 N.3   149  LEU149     -0.1245
    141  CA        -8.5100   21.6430   36.5800 C.3   149  LEU149      0.1561
    142  C         -7.4840   21.2510   37.5810 C.2   149  LEU149      0.2260
    143  O         -6.8110   22.0960   38.1550 O.2   149  LEU149     -0.2867
    144  CB        -7.9150   21.6400   35.1820 C.3   149  LEU149      0.0270
    145  CG        -8.9210   21.9920   34.0700 C.3   149  LEU149      0.0019
    146  CD1       -8.2050   22.2320   32.7640 C.3   149  LEU149      0.0001
    147  CD2      -10.0190   20.9070   33.9150 C.3   149  LEU149      0.0001
    148  N         -9.2050   27.2890   34.1530 N.3   159  THR159     -0.1218
    149  CA        -9.1840   26.6510   32.8470 C.3   159  THR159      0.1862
    150  C         -9.9460   27.2600   31.7240 C.2   159  THR159      0.2287
    151  O         -9.5600   27.0490   30.5780 O.2   159  THR159     -0.2866
    152  CB        -9.5970   25.1460   32.8770 C.3   159  THR159      0.1770
    153  OG1       -9.1980   24.5290   31.6440 O.3   159  THR159     -0.2211
    154  CG2      -11.1090   24.9880   32.9830 C.3   159  THR159      0.0375
@<TRIPOS>BOND
     1    46    45    2
     2    45    44    1
     3    44    43    1
     4    44    47    1
     5    48    47    1
     6    48    49    1
     7    22    23    1
     8     1     2    1
     9    23    24    1
    10    23    26    1
    11    32    31    2
    12    50    49    1
    13    50    51    1
    14    24    25    2
    15     2     3    1
    16     2     5    1
    17     4     3    2
    18    41    40    2
    19    40    39    1
    20    31    30    1
    21    52    53    1
    22    21    20    2
    23    29    30    1
    24    26    27    1
    25    26    28    1
    26     5     6    1
    27    59    58    1
    28    30    33    1
    29    20    19    1
    30    39    38    1
    31    39    42    1
    32    53    56    1
    33    53    54    1
    34    57    58    1
    35    57    56    1
    36    55    54    2
    37    10    11    1
    38     6     7    1
    39    33    34    1
    40    54    60   am
    41    19    18    1
    42    18    12   am
    43    34    35    1
    44     7     8    1
    45    60    61    1
    46    12    11    1
    47    12    13    2
    48    11    14    1
    49    15    14    1
    50    15    16    1
    51    15    17    1
    52    35    36    1
    53    61    62    1
    54    61    64    1
    55     8     9    1
    56    36    37    1
    57    62    69   am
    58    62    63    2
    59    69    70    1
    60    64    65    1
    61    73    70    1
    62    73    74    1
    63    75    74    1
    64    70    71    1
    65    65    66    1
    66    76    74    1
    67   151   150    2
    68    71    72    2
    69    71    77   am
    70   153   152    1
    71    66    67    2
    72    66    68   am
    73   150   149    1
    74    77    78    1
    75   146   145    1
    76   149   152    1
    77   149   148    1
    78   152   154    1
    79    78    79    1
    80    78    81    1
    81   138   137    1
    82    82    83    1
    83    82    81    1
    84    80    79    2
    85   147   145    1
    86    83    84    1
    87    79    85   am
    88   145   144    1
    89    85    86    1
    90    85    91    1
    91    86    89    1
    92    86    87    1
    93   135   134    1
    94   135   136    1
    95   137   136    2
    96   137   139    1
    97    90    91    1
    98    90    89    1
    99   144   141    1
   100   132   131    2
   101    88    87    2
   102    87    92   am
   103   134   133    1
   104   104   103    1
   105   104   105    1
   106   103    94   am
   107   131   130    1
   108   133   130    1
   109    92    93    1
   110   105   107   am
   111   105   106    2
   112   111   112    1
   113   111   108    1
   114   107   108    1
   115   141   140    1
   116   141   142    1
   117   127   126   ar
   118   130   129    1
   119    94    93    1
   120    94    95    2
   121   108   109    1
   122    93    96    1
   123   142   143    2
   124   126   128   ar
   125   126   125    1
   126    96    97    1
   127   109   110    2
   128   125   122    1
   129   120   118    1
   130    97    99   ar
   131    97    98   ar
   132    99   101   ar
   133    98   100   ar
   134   117   118    1
   135   117   114    1
   136   101   102   ar
   137   118   119    1
   138   121   122    1
   139   121   115   am
   140   122   123    1
   141   100   102   ar
   142   113   114    1
   143   114   115    1
   144   115   116    2
   145   123   124    2
