@<TRIPOS>MOLECULE
tmp/3ikbA00.pdb
 106 103 0 0 0
SMALL
GASTEIGER

@<TRIPOS>ATOM
      1  N         27.3450   22.9890   35.6260 N.3    40  GLY40      -0.1210
      2  CA        28.1280   24.1990   35.9100 C.3    40  GLY40       0.1956
      3  C         27.5640   24.9980   37.0660 C.2    40  GLY40       0.2612
      4  O         26.9200   24.4440   37.9690 O.2    40  GLY40      -0.2717
      5  N         27.7810   26.3080   37.0270 N.am   41  GLN41      -0.1965
      6  CA        27.4700   27.1620   38.1730 C.3    41  GLN41       0.1733
      7  C         26.0050   27.6520   38.1840 C.2    41  GLN41       0.2616
      8  O         25.2130   27.2210   39.0070 O.2    41  GLN41      -0.2715
      9  CB        28.4550   28.3350   38.1940 C.3    41  GLN41       0.0408
     10  CG        28.3840   29.1360   39.4450 C.3    41  GLN41       0.0908
     11  CD        29.5960   30.0210   39.6310 C.2    41  GLN41       0.2608
     12  OE1       30.7410   29.5950   39.4530 O.2    41  GLN41      -0.2717
     13  NE2       29.3480   31.2720   39.9860 N.am   41  GLN41      -0.0878
     14  N         25.6540   28.5170   37.2340 N.am   42  ALA42      -0.1964
     15  CA        24.3350   29.1980   37.1970 C.3    42  ALA42       0.1713
     16  C         24.2720   30.0460   35.9220 C.2    42  ALA42       0.2458
     17  O         25.3270   30.4410   35.3880 O.2    42  ALA42      -0.2730
     18  CB        24.1200   30.1030   38.4410 C.3    42  ALA42       0.0333
     19  N         23.0530   30.3300   35.4120 N.am   43  PRO43      -0.2716
     20  CA        23.0120   31.2230   34.2170 C.3    43  PRO43       0.1536
     21  C         23.3910   32.6510   34.6210 C.2    43  PRO43       0.2599
     22  O         23.2310   33.0280   35.8040 O.2    43  PRO43      -0.2715
     23  CB        21.5350   31.2090   33.8170 C.3    43  PRO43       0.0310
     24  CG        20.7910   30.8800   35.1290 C.3    43  PRO43       0.0237
     25  CD        21.7070   29.9330   35.8680 C.3    43  PRO43       0.0939
     26  N         23.9440   33.4170   33.6880 N.am   44  GLY44      -0.1955
     27  CA        24.0590   34.8540   33.8510 C.3    44  GLY44       0.1869
     28  C         22.8210   35.5210   33.2650 C.2    44  GLY44       0.2309
     29  O         21.8600   34.8320   32.9060 O.2    44  GLY44      -0.2863
     30  N         22.0040   34.3360   29.4730 N.3    47  ALA47      -0.1245
     31  CA        21.3690   33.0150   29.4460 C.3    47  ALA47       0.1562
     32  C         19.9620   33.0560   30.0970 C.2    47  ALA47       0.2260
     33  O         19.0420   32.3830   29.6450 O.2    47  ALA47      -0.2867
     34  CB        22.2590   31.9880   30.1740 C.3    47  ALA47       0.0290
     35  N         22.0200   27.6320   27.6980 N.3    53  TYR53      -0.1227
     36  CA        23.3480   27.6190   28.3370 C.3    53  TYR53       0.1736
     37  C         24.4400   27.4800   27.2940 C.2    53  TYR53       0.2595
     38  O         24.2190   26.9060   26.2170 O.2    53  TYR53      -0.2718
     39  CB        23.4800   26.4660   29.3490 C.3    53  TYR53       0.0548
     40  CG        22.6710   26.6890   30.5940 C.ar   53  TYR53      -0.0200
     41  CD1       23.0420   27.6740   31.4970 C.ar   53  TYR53      -0.0009
     42  CD2       21.5500   25.8950   30.8880 C.ar   53  TYR53      -0.0009
     43  CE1       22.3130   27.9080   32.6390 C.ar   53  TYR53       0.0417
     44  CE2       20.8020   26.1040   32.0350 C.ar   53  TYR53       0.0417
     45  CZ        21.1820   27.1100   32.9060 C.ar   53  TYR53       0.1957
     46  OH        20.4960   27.3660   34.0700 O.3    53  TYR53      -0.2866
     47  N         25.6160   28.0110   27.6300 N.am   54  TRP54      -0.1976
     48  CA        26.8540   27.8410   26.8460 C.3    54  TRP54       0.1640
     49  C         26.8000   28.4440   25.4390 C.2    54  TRP54       0.2290
     50  O         27.5680   28.0530   24.5600 O.2    54  TRP54      -0.2864
     51  CB        27.2350   26.3460   26.7570 C.3    54  TRP54       0.0576
     52  CG        27.4670   25.7170   28.1310 C.ar   54  TRP54       0.0006
     53  CD1       26.6550   24.8380   28.7700 C.ar   54  TRP54       0.0946
     54  CD2       28.5730   25.9540   29.0020 C.ar   54  TRP54       0.0152
     55  NE1       27.1880   24.5060   30.0130 N.ar   54  TRP54      -0.2442
     56  CE2       28.3660   25.1850   30.1680 C.ar   54  TRP54       0.0810
     57  CE3       29.7210   26.7590   28.9170 C.ar   54  TRP54       0.0012
     58  CZ2       29.2730   25.1920   31.2510 C.ar   54  TRP54       0.0191
     59  CZ3       30.6210   26.7640   29.9780 C.ar   54  TRP54       0.0001
     60  CH2       30.3910   25.9790   31.1340 C.ar   54  TRP54       0.0015
     61  N         27.8970   30.9720   23.9130 N.3    56  ASP56      -0.1239
     62  CA        28.8790   32.0290   24.0730 C.3    56  ASP56       0.1674
     63  C         30.2830   31.4690   23.8420 C.2    56  ASP56       0.2266
     64  O         30.4440   30.2930   23.5310 O.2    56  ASP56      -0.2867
     65  CB        28.7460   32.7000   25.4520 C.3    56  ASP56       0.1410
     66  CG        28.8780   31.7290   26.6110 C.2    56  ASP56       0.3668
     67  OD1       29.4490   30.6360   26.4580 O.co2  56  ASP56      -0.2456
     68  OD2       28.4050   32.0640   27.7170 O.co2  56  ASP56      -0.2456
     69  N         32.7460   30.8740   25.9040 N.3    58  SER58      -0.1217
     70  CA        33.0470   29.8530   26.9090 C.3    58  SER58       0.1889
     71  C         32.5200   28.5060   26.4200 C.2    58  SER58       0.2288
     72  O         33.2190   27.4710   26.4760 O.2    58  SER58      -0.2866
     73  CB        32.3750   30.1550   28.2430 C.3    58  SER58       0.2089
     74  OG        33.1360   31.0480   29.0360 O.3    58  SER58      -0.2183
     75  N         21.8020   19.9210   30.7010 N.3    80  VAL80      -0.1245
     76  CA        22.5440   20.9860   31.3820 C.3    80  VAL80       0.1561
     77  C         21.7130   21.3430   32.6030 C.2    80  VAL80       0.2260
     78  O         20.6240   21.9380   32.4970 O.2    80  VAL80      -0.2867
     79  CB        22.8430   22.2330   30.4740 C.3    80  VAL80       0.0252
     80  CG1       23.7340   23.2730   31.2060 C.3    80  VAL80       0.0019
     81  CG2       23.5490   21.8290   29.1460 C.3    80  VAL80       0.0019
     82  N         22.6180   23.0160   36.1210 N.3    82  PRO82      -0.2116
     83  CA        23.6360   23.7070   36.9020 C.3    82  PRO82       0.1372
     84  C         23.2430   23.8180   38.3720 C.2    82  PRO82       0.2244
     85  O         22.1130   23.5260   38.7480 O.2    82  PRO82      -0.2868
     86  CB        23.7060   25.1110   36.2860 C.3    82  PRO82       0.0268
     87  CG        22.5380   25.2500   35.4660 C.3    82  PRO82       0.0207
     88  CD        21.9890   23.9050   35.1140 C.3    82  PRO82       0.0892
     89  N         29.1090   37.2830   38.3690 N.3    94  ASP94      -0.1239
     90  CA        27.8790   36.8890   39.0530 C.3    94  ASP94       0.1674
     91  C         28.1350   36.4520   40.5010 C.2    94  ASP94       0.2266
     92  O         29.1810   35.8760   40.7900 O.2    94  ASP94      -0.2867
     93  CB        27.2210   35.7380   38.2880 C.3    94  ASP94       0.1410
     94  CG        27.1110   36.0050   36.7940 C.2    94  ASP94       0.3668
     95  OD1       27.1450   37.1890   36.3780 O.co2  94  ASP94      -0.2456
     96  OD2       26.9970   35.0300   36.0180 O.co2  94  ASP94      -0.2456
     97  N         36.5710   25.6990   34.5200 N.3   158  HIS158     -0.1241
     98  CA        35.7560   26.4510   33.5380 C.3   158  HIS158      0.1621
     99  C         36.5240   26.8310   32.2960 C.2   158  HIS158      0.2264
    100  O         37.7020   27.2160   32.3890 O.2   158  HIS158     -0.2867
    101  CB        35.1490   27.7320   34.1150 C.3   158  HIS158      0.0745
    102  CG        33.8030   27.5400   34.7230 C.ar  158  HIS158      0.0817
    103  ND1       32.6310   27.7000   34.0200 N.ar  158  HIS158     -0.2268
    104  CD2       33.4460   27.2150   35.9880 C.ar  158  HIS158      0.1154
    105  CE1       31.6080   27.4590   34.8210 C.ar  158  HIS158      0.1986
    106  NE2       32.0740   27.1560   36.0160 N.ar  158  HIS158     -0.2212
@<TRIPOS>BOND
     1    64    63    2
     2    63    62    1
     3    61    62    1
     4    62    65    1
     5    50    49    2
     6    49    48    1
     7    65    66    1
     8    69    70    1
     9    38    37    2
    10    71    72    2
    11    71    70    1
    12    67    66   ar
    13    66    68   ar
    14    51    48    1
    15    51    52    1
    16    48    47    1
    17    70    73    1
    18    37    47   am
    19    37    36    1
    20    35    36    1
    21    52    53   ar
    22    52    54   ar
    23    73    74    1
    24    36    39    1
    25    53    55   ar
    26    57    54   ar
    27    57    59   ar
    28    54    56   ar
    29    81    79    1
    30    39    40    1
    31    31    30    1
    32    31    32    1
    33    31    34    1
    34    33    32    2
    35    59    60   ar
    36    55    56   ar
    37    56    58   ar
    38    79    80    1
    39    79    76    1
    40    40    42   ar
    41    40    41   ar
    42    75    76    1
    43    42    44   ar
    44    60    58   ar
    45    76    77    1
    46    41    43   ar
    47    44    45   ar
    48    99   100    2
    49    99    98    1
    50    78    77    2
    51    43    45   ar
    52    45    46    1
    53    29    28    2
    54    28    27    1
    55    98   101    1
    56    98    97    1
    57    26    27    1
    58    26    21   am
    59    23    20    1
    60    23    24    1
    61   103   102   ar
    62   103   105   ar
    63   101   102    1
    64    20    21    1
    65    20    19    1
    66    21    22    2
    67   102   104   ar
    68   105   106   ar
    69    88    87    1
    70    88    82    1
    71    24    25    1
    72    17    16    2
    73    19    25    1
    74    19    16   am
    75    87    86    1
    76     1     2    1
    77     2     3    1
    78    16    15    1
    79   104   106   ar
    80    96    94   ar
    81    82    83    1
    82    86    83    1
    83    95    94   ar
    84    94    93    1
    85    83    84    1
    86     5     3   am
    87     5     6    1
    88     3     4    2
    89    15    14    1
    90    15    18    1
    91    14     7   am
    92     6     7    1
    93     6     9    1
    94     7     8    2
    95     9    10    1
    96    93    90    1
    97    89    90    1
    98    84    85    2
    99    90    91    1
   100    10    11    1
   101    12    11    2
   102    11    13   am
   103    91    92    2
