@<TRIPOS>MOLECULE
tmp/3ikdB00.pdb
 151 142 0 0 0
SMALL
GASTEIGER

@<TRIPOS>ATOM
      1  N          7.0580   30.4640   18.0100 N.3     6  HIS6       -0.1241
      2  CA         7.5950   30.7100   19.3780 C.3     6  HIS6        0.1621
      3  C          7.9620   29.4630   20.1600 C.2     6  HIS6        0.2264
      4  O          7.4800   28.3800   19.8650 O.2     6  HIS6       -0.2867
      5  CB         6.5900   31.4930   20.3160 C.3     6  HIS6        0.0745
      6  CG         5.5070   30.6590   20.8710 C.ar    6  HIS6        0.0817
      7  ND1        4.9650   30.9090   22.0700 N.ar    6  HIS6       -0.2268
      8  CD2        4.7380   29.6380   20.2630 C.ar    6  HIS6        0.1154
      9  CE1        3.8710   30.0760   22.1970 C.ar    6  HIS6        0.1986
     10  NE2        3.7270   29.2870   21.0890 N.ar    6  HIS6       -0.2212
     11  N          7.7830   28.2650   24.0190 N.3     8  LEU8       -0.1245
     12  CA         7.1960   28.5510   25.3270 C.3     8  LEU8        0.1561
     13  C          7.6690   27.5940   26.4180 C.2     8  LEU8        0.2260
     14  O          7.7770   26.3890   26.1750 O.2     8  LEU8       -0.2867
     15  CB         5.6750   28.4450   25.2770 C.3     8  LEU8        0.0270
     16  CG         4.8630   28.4730   26.6340 C.3     8  LEU8        0.0019
     17  CD1        4.8230   29.9210   27.1980 C.3     8  LEU8        0.0001
     18  CD2        3.4350   27.9060   26.4140 C.3     8  LEU8        0.0001
     19  N          6.4940   26.8550   30.1970 N.3    10  LYS10      -0.1245
     20  CA         5.5510   27.0520   31.2880 C.3    10  LYS10       0.1561
     21  C          6.2330   26.9170   32.6560 C.2    10  LYS10       0.2260
     22  O          7.4300   26.6330   32.7730 O.2    10  LYS10      -0.2867
     23  CB         4.4330   26.0120   31.2150 C.3    10  LYS10       0.0271
     24  CG         3.5360   26.2230   30.0150 C.3    10  LYS10       0.0035
     25  CD         2.5330   25.1000   29.9220 C.3    10  LYS10       0.0206
     26  CE         1.6280   25.4290   28.7290 C.3    10  LYS10       0.1093
     27  NZ         0.2320   25.4620   29.1130 N.3    10  LYS10      -0.1314
     28  N         -1.0880   29.8350   33.7850 N.3    15  ARG15      -0.1231
     29  CA        -2.5460   29.5930   33.9060 C.3    15  ARG15       0.1694
     30  C         -2.9130   28.0980   33.8560 C.2    15  ARG15       0.2591
     31  O         -3.8480   27.6170   34.4670 O.2    15  ARG15      -0.2718
     32  CB        -3.2270   30.3560   32.7480 C.3    15  ARG15       0.0321
     33  CG        -4.6760   30.0050   32.4730 C.3    15  ARG15       0.0489
     34  CD        -5.6770   31.0020   33.0350 C.3    15  ARG15       0.2205
     35  NE        -5.6520   31.0770   34.4990 N.pl3  15  ARG15      -0.0865
     36  CZ        -5.3890   32.2340   35.1220 C.cat  15  ARG15       0.5346
     37  NH1       -5.1040   33.3500   34.4770 N.pl3  15  ARG15       0.1354
     38  NH2       -5.5400   32.3250   36.4280 N.pl3  15  ARG15       0.1354
     39  N         -2.2040   27.3110   33.0760 N.am   16  ARG16      -0.1980
     40  CA        -2.5190   25.8810   32.9950 C.3    16  ARG16       0.1597
     41  C         -1.2170   25.1050   33.0420 C.2    16  ARG16       0.2287
     42  O         -0.5740   24.9230   32.0030 O.2    16  ARG16      -0.2864
     43  CB        -3.3140   25.5980   31.6680 C.3    16  ARG16       0.0334
     44  CG        -3.9840   24.1920   31.7370 C.3    16  ARG16       0.0492
     45  CD        -4.4570   23.5970   30.4060 C.3    16  ARG16       0.2205
     46  NE        -3.2310   23.2450   29.6790 N.pl3  16  ARG16      -0.0865
     47  CZ        -3.2910   22.4860   28.5950 C.cat  16  ARG16       0.5346
     48  NH1       -4.4920   22.0370   28.1530 N.pl3  16  ARG16       0.1354
     49  NH2       -2.1480   22.1600   27.9810 N.pl3  16  ARG16       0.1354
     50  N          6.3680   24.0700   25.5400 N.3    59  ASP59      -0.1225
     51  CA         5.1810   23.5280   26.2570 C.3    59  ASP59       0.1805
     52  C          3.8110   23.8550   25.5870 C.2    59  ASP59       0.2598
     53  O          2.7150   23.6200   26.1280 O.2    59  ASP59      -0.2718
     54  CB         5.2460   24.0670   27.7100 C.3    59  ASP59       0.1424
     55  CG         6.2560   23.2790   28.5530 C.2    59  ASP59       0.3668
     56  OD1        6.0830   22.0610   28.6820 O.co2  59  ASP59      -0.2456
     57  OD2        7.1930   23.8930   29.0790 O.co2  59  ASP59      -0.2456
     58  N          3.9050   24.5280   24.4330 N.am   60  CYS60      -0.1956
     59  CA         2.7430   24.9300   23.6040 C.3    60  CYS60       0.1843
     60  C          2.4250   23.8500   22.5780 C.2    60  CYS60       0.2626
     61  O          3.3470   23.3070   21.9590 O.2    60  CYS60      -0.2714
     62  CB         3.0410   26.2030   22.8120 C.3    60  CYS60       0.0997
     63  SG         1.5670   26.8050   21.9290 S.3    60  CYS60      -0.0797
     64  N          1.1630   23.4870   22.3660 N.am   61  SER61      -0.1936
     65  CA         0.8180   22.4890   21.3130 C.3    61  SER61       0.2055
     66  C          1.4430   22.8680   19.9620 C.2    61  SER61       0.2643
     67  O          1.8410   21.9770   19.2090 O.2    61  SER61      -0.2714
     68  CB        -0.7210   22.3910   21.1670 C.3    61  SER61       0.2130
     69  OG        -1.2390   23.7370   21.1620 O.3    61  SER61      -0.2179
     70  N          1.6610   24.1760   19.6470 N.am   62  SER62      -0.1949
     71  CA         2.3080   24.5330   18.3620 C.3    62  SER62       0.1924
     72  C          3.7090   23.9360   18.2590 C.2    62  SER62       0.2314
     73  O          4.4220   24.0850   17.2510 O.2    62  SER62      -0.2863
     74  CB         2.3940   26.0740   18.1760 C.3    62  SER62       0.2116
     75  OG         3.1210   26.7790   19.2080 O.3    62  SER62      -0.2180
     76  N          4.3850   21.0090   17.7360 N.3    64  LYS64      -0.1245
     77  CA         4.1680   20.0370   16.6280 C.3    64  LYS64       0.1561
     78  C          4.3830   20.7080   15.2200 C.2    64  LYS64       0.2260
     79  O          4.8840   20.1290   14.2530 O.2    64  LYS64      -0.2867
     80  CB         2.7260   19.4550   16.7960 C.3    64  LYS64       0.0271
     81  CG         1.5730   20.3830   16.3390 C.3    64  LYS64       0.0035
     82  CD         0.2130   19.6690   16.2050 C.3    64  LYS64       0.0206
     83  CE        -0.6910   19.6460   17.4620 C.3    64  LYS64       0.1093
     84  NZ        -1.6450   20.7810   17.3780 N.3    64  LYS64      -0.1314
     85  N          5.2210   27.4540   15.0070 N.3    68  ASP68      -0.1225
     86  CA         4.3270   28.3560   14.2730 C.3    68  ASP68       0.1805
     87  C          2.9230   28.5760   14.8680 C.2    68  ASP68       0.2597
     88  O          2.1540   27.6590   15.1040 O.2    68  ASP68      -0.2718
     89  CB         4.2180   27.8580   12.7840 C.3    68  ASP68       0.1424
     90  CG         3.2480   28.7440   11.9410 C.2    68  ASP68       0.3668
     91  OD1        3.3510   29.9760   11.9180 O.co2  68  ASP68      -0.2456
     92  OD2        2.3620   28.1550   11.3150 O.co2  68  ASP68      -0.2456
     93  N          2.5880   29.8330   15.2020 N.am   69  LEU69      -0.1979
     94  CA         1.2610   30.1800   15.7670 C.3    69  LEU69       0.1596
     95  C          0.2490   30.5510   14.7010 C.2    69  LEU69       0.2287
     96  O         -0.9780   30.5700   14.8780 O.2    69  LEU69      -0.2864
     97  CB         1.3010   31.4080   16.7070 C.3    69  LEU69       0.0297
     98  CG         1.9520   31.3890   18.1130 C.3    69  LEU69       0.0022
     99  CD1        1.5560   30.0870   18.8590 C.3    69  LEU69       0.0001
    100  CD2        3.4660   31.5320   17.9700 C.3    69  LEU69       0.0001
    101  N         -4.2510   37.7760   20.4820 N.3    77  MET77      -0.1230
    102  CA        -3.2720   37.2580   21.4590 C.3    77  MET77       0.1702
    103  C         -3.1450   37.9970   22.7740 C.2    77  MET77       0.2592
    104  O         -3.2850   39.2300   22.8210 O.2    77  MET77      -0.2718
    105  CB        -1.9090   37.2270   20.7850 C.3    77  MET77       0.0401
    106  CG        -2.0630   36.4300   19.5030 C.3    77  MET77       0.0596
    107  SD        -1.5830   34.7240   19.6080 S.3    77  MET77      -0.1393
    108  CE        -2.3810   34.0940   18.1130 C.3    77  MET77       0.0692
    109  N         -2.7660   37.2960   23.8640 N.am   78  GLN78      -0.1979
    110  CA        -2.6030   38.0050   25.1930 C.3    78  GLN78       0.1601
    111  C         -1.7900   39.3090   24.9860 C.2    78  GLN78       0.2287
    112  O         -0.8640   39.3710   24.1650 O.2    78  GLN78      -0.2864
    113  CB        -1.8380   37.1470   26.2600 C.3    78  GLN78       0.0394
    114  CG        -2.4680   35.7450   26.4310 C.3    78  GLN78       0.0908
    115  CD        -1.8270   34.9120   27.5460 C.2    78  GLN78       0.2608
    116  OE1       -0.7390   35.1680   28.0860 O.2    78  GLN78      -0.2717
    117  NE2       -2.4860   33.8730   27.9890 N.am   78  GLN78      -0.0878
    118  N          2.1780   39.3720   24.8080 N.3    81  PHE81      -0.1241
    119  CA         2.6270   38.6300   23.6050 C.3    81  PHE81       0.1605
    120  C          2.4530   39.5050   22.3500 C.2    81  PHE81       0.2264
    121  O          3.3250   39.6340   21.4840 O.2    81  PHE81      -0.2867
    122  CB         1.7970   37.3030   23.5300 C.3    81  PHE81       0.0534
    123  CG         2.2160   36.4470   22.4120 C.ar   81  PHE81      -0.0203
    124  CD1        1.6190   36.6140   21.1490 C.ar   81  PHE81      -0.0042
    125  CD2        3.2640   35.5240   22.5860 C.ar   81  PHE81      -0.0042
    126  CE1        2.0720   35.8760   20.0610 C.ar   81  PHE81      -0.0003
    127  CE2        3.7210   34.7770   21.4890 C.ar   81  PHE81      -0.0003
    128  CZ         3.1180   34.9660   20.2320 C.ar   81  PHE81      -0.0000
    129  N          4.2830   36.1660   30.1320 N.3    99  THR99      -0.1218
    130  CA         2.8130   36.1880   30.0080 C.3    99  THR99       0.1862
    131  C          2.1310   35.3120   31.0780 C.2    99  THR99       0.2287
    132  O          2.7680   34.5460   31.7960 O.2    99  THR99      -0.2866
    133  CB         2.3230   35.6100   28.6430 C.3    99  THR99       0.1770
    134  OG1        2.5820   34.1920   28.6340 O.3    99  THR99      -0.2211
    135  CG2        3.0340   36.2390   27.4280 C.3    99  THR99       0.0375
    136  N          0.4680   32.6080   30.5180 N.3   101  SER101     -0.1217
    137  CA         0.7820   31.2360   30.0340 C.3   101  SER101      0.1889
    138  C          2.1960   30.7680   30.3300 C.2   101  SER101      0.2288
    139  O          2.4710   29.5760   30.3690 O.2   101  SER101     -0.2866
    140  CB         0.6310   31.1210   28.5080 C.3   101  SER101      0.2089
    141  OG        -0.6650   31.6060   28.0910 O.3   101  SER101     -0.2183
    142  N          8.3050   33.0730   27.1120 N.3   104  HIS104     -0.1241
    143  CA         8.5290   32.7850   25.6650 C.3   104  HIS104      0.1621
    144  C          9.6900   33.4150   24.8940 C.2   104  HIS104      0.2264
    145  O         10.2340   34.4480   25.2380 O.2   104  HIS104     -0.2867
    146  CB         7.3420   33.1850   24.7830 C.3   104  HIS104      0.0745
    147  CG         5.9480   33.0360   25.2830 C.ar  104  HIS104      0.0817
    148  ND1        4.9200   32.8090   24.4130 N.ar  104  HIS104     -0.2268
    149  CD2        5.3840   33.2020   26.5460 C.ar  104  HIS104      0.1154
    150  CE1        3.7350   32.8150   25.1220 C.ar  104  HIS104      0.1986
    151  NE2        4.0400   33.0490   26.4280 N.ar  104  HIS104     -0.2212
@<TRIPOS>BOND
     1    92    90   ar
     2    91    90   ar
     3    90    89    1
     4    89    86    1
     5    79    78    2
     6    86    87    1
     7    86    85    1
     8    95    96    2
     9    95    94    1
    10    87    88    2
    11    87    93   am
    12    93    94    1
    13    78    77    1
    14    94    97    1
    15    82    81    1
    16    82    83    1
    17    81    80    1
    18    77    80    1
    19    77    76    1
    20    97    98    1
    21    73    72    2
    22    84    83    1
    23   100    98    1
    24     1     2    1
    25    98    99    1
    26   108   107    1
    27    74    71    1
    28    74    75    1
    29    72    71    1
    30    71    70    1
    31    67    66    2
    32     2     3    1
    33     2     5    1
    34   106   107    1
    35   106   105    1
    36    70    66   am
    37     4     3    2
    38    66    65    1
    39   126   128   ar
    40   126   124   ar
    41   128   127   ar
    42     8     6   ar
    43     8    10   ar
    44     5     6    1
    45   101   102    1
    46   105   102    1
    47     6     7   ar
    48    10     9   ar
    49   124   123   ar
    50    69    68    1
    51    68    65    1
    52    65    64    1
    53   102   103    1
    54   121   120    2
    55   127   125   ar
    56    63    62    1
    57    61    60    2
    58     7     9   ar
    59   120   119    1
    60    64    60   am
    61   123   125   ar
    62   123   122    1
    63    60    59    1
    64   103   104    2
    65   103   109   am
    66    62    59    1
    67   122   119    1
    68    59    58    1
    69   119   118    1
    70   109   110    1
    71    11    12    1
    72   112   111    2
    73   148   150   ar
    74   148   147   ar
    75    58    52   am
    76   146   147    1
    77   146   143    1
    78   144   145    2
    79   144   143    1
    80   111   110    1
    81   150   151   ar
    82   110   113    1
    83    15    12    1
    84    15    16    1
    85   147   149   ar
    86    12    13    1
    87    50    51    1
    88    52    53    2
    89    52    51    1
    90   143   142    1
    91    14    13    2
    92    51    54    1
    93   113   114    1
    94    18    16    1
    95   151   149   ar
    96   114   115    1
    97    16    17    1
    98   135   133    1
    99   115   117   am
   100   115   116    2
   101    54    55    1
   102    49    47    1
   103   141   140    1
   104    48    47    1
   105   140   137    1
   106    55    56   ar
   107    55    57   ar
   108    47    46    2
   109   134   133    1
   110   133   130    1
   111    26    27    1
   112    26    25    1
   113    46    45    1
   114    25    24    1
   115   130   129    1
   116   130   131    1
   117    24    23    1
   118   137   138    1
   119   137   136    1
   120    19    20    1
   121   138   139    2
   122    45    44    1
   123   131   132    2
   124    23    20    1
   125    20    21    1
   126    43    44    1
   127    43    40    1
   128    42    41    2
   129    33    32    1
   130    33    34    1
   131    21    22    2
   132    32    29    1
   133    40    41    1
   134    40    39    1
   135    34    35    1
   136    39    30   am
   137    28    29    1
   138    30    29    1
   139    30    31    2
   140    37    36    1
   141    35    36    2
   142    36    38    1
