@<TRIPOS>MOLECULE
tmp/3ikfA00.pdb
 80 76 0 0 0
SMALL
GASTEIGER

@<TRIPOS>ATOM
      1  N         14.6770  -32.1530  -13.7570 N.3    10  ASP10      -0.1225
      2  CA        13.9980  -30.8880  -13.6150 C.3    10  ASP10       0.1805
      3  C         14.7730  -29.9310  -12.6900 C.2    10  ASP10       0.2598
      4  O         15.4870  -30.3720  -11.8020 O.2    10  ASP10      -0.2718
      5  CB        12.5820  -31.1160  -13.0910 C.3    10  ASP10       0.1424
      6  CG        11.6430  -29.9640  -13.4070 C.2    10  ASP10       0.3668
      7  OD1       11.8940  -29.1800  -14.3450 O.co2  10  ASP10      -0.2456
      8  OD2       10.6470  -29.8300  -12.6870 O.co2  10  ASP10      -0.2456
      9  N         14.6260  -28.6250  -12.9060 N.am   11  VAL11      -0.1966
     10  CA        15.1600  -27.6290  -11.9630 C.3    11  VAL11       0.1727
     11  C         14.1680  -26.4820  -11.9330 C.2    11  VAL11       0.2616
     12  O         13.5900  -26.1650  -12.9660 O.2    11  VAL11      -0.2715
     13  CB        16.6080  -27.1400  -12.3540 C.3    11  VAL11       0.0290
     14  CG1       16.6020  -26.3850  -13.6890 C.3    11  VAL11       0.0023
     15  CG2       17.2270  -26.2680  -11.2400 C.3    11  VAL11       0.0023
     16  N         13.9340  -25.9160  -10.7490 N.am   12  HIS12      -0.1973
     17  CA        13.1550  -24.6900  -10.5920 C.3    12  HIS12       0.1656
     18  C         13.9420  -23.7400   -9.7120 C.2    12  HIS12       0.2291
     19  O         14.7250  -24.1740   -8.8520 O.2    12  HIS12      -0.2864
     20  CB        11.8000  -24.9440   -9.9190 C.3    12  HIS12       0.0771
     21  CG        10.8090  -25.6270  -10.8080 C.ar   12  HIS12       0.0820
     22  ND1        9.8480  -24.9420  -11.5220 N.ar   12  HIS12      -0.2267
     23  CD2       10.6560  -26.9380  -11.1280 C.ar   12  HIS12       0.1154
     24  CE1        9.1410  -25.8040  -12.2440 C.ar   12  HIS12       0.1986
     25  NE2        9.6200  -27.0200  -12.0290 N.ar   12  HIS12      -0.2212
     26  N          2.8670  -24.4110  -12.5110 N.3    37  SER37      -0.1217
     27  CA         2.1420  -25.3140  -11.6100 C.3    37  SER37       0.1889
     28  C          2.6860  -25.0950  -10.2050 C.2    37  SER37       0.2288
     29  O          3.3550  -24.0820   -9.9550 O.2    37  SER37      -0.2866
     30  CB         2.3160  -26.7830  -12.0440 C.3    37  SER37       0.2089
     31  OG         3.6600  -27.2280  -11.8940 O.3    37  SER37      -0.2183
     32  N          7.9310  -33.7030  -11.1560 N.3    44  HIS44      -0.1241
     33  CA         8.0740  -33.4390  -12.5850 C.3    44  HIS44       0.1621
     34  C          9.1430  -34.3250  -13.2080 C.2    44  HIS44       0.2264
     35  O          8.9700  -34.8500  -14.3080 O.2    44  HIS44      -0.2867
     36  CB         8.4270  -31.9430  -12.8290 C.3    44  HIS44       0.0745
     37  CG         7.3290  -30.9940  -12.4480 C.ar   44  HIS44       0.0817
     38  ND1        7.4760  -29.6190  -12.4770 N.ar   44  HIS44      -0.2268
     39  CD2        6.0620  -31.2280  -12.0180 C.ar   44  HIS44       0.1154
     40  CE1        6.3480  -29.0510  -12.0850 C.ar   44  HIS44       0.1986
     41  NE2        5.4820  -30.0070  -11.7810 N.ar   44  HIS44      -0.2212
     42  N          6.7330  -34.1430  -20.0730 N.3    59  ILE59      -0.1231
     43  CA         5.7610  -33.4760  -19.2080 C.3    59  ILE59       0.1692
     44  C          5.4490  -32.0730  -19.7500 C.2    59  ILE59       0.2592
     45  O          4.3320  -31.5840  -19.6120 O.2    59  ILE59      -0.2718
     46  CB         6.2960  -33.3490  -17.7650 C.3    59  ILE59       0.0266
     47  CG1        5.1830  -32.9580  -16.8000 C.3    59  ILE59       0.0019
     48  CG2        7.5350  -32.3880  -17.7100 C.3    59  ILE59       0.0020
     49  CD1        5.6400  -32.8150  -15.3290 C.3    59  ILE59       0.0001
     50  N          6.4490  -31.4340  -20.3610 N.am   60  GLY60      -0.1957
     51  CA         6.2690  -30.0940  -20.9370 C.3    60  GLY60       0.1869
     52  C          5.2070  -30.0940  -22.0190 C.2    60  GLY60       0.2309
     53  O          4.5430  -29.0770  -22.2450 O.2    60  GLY60      -0.2863
     54  N          1.5510  -31.6070  -20.1620 N.3    63  PHE63      -0.1241
     55  CA         1.0730  -30.6530  -19.1640 C.3    63  PHE63       0.1605
     56  C          1.8100  -29.2970  -19.2940 C.2    63  PHE63       0.2264
     57  O          2.6030  -28.8840  -18.4100 O.2    63  PHE63      -0.2867
     58  CB         1.2280  -31.2290  -17.7380 C.3    63  PHE63       0.0534
     59  CG         0.6930  -32.6480  -17.5650 C.ar   63  PHE63      -0.0203
     60  CD1       -0.6190  -32.9810  -17.9090 C.ar   63  PHE63      -0.0042
     61  CD2        1.5030  -33.6490  -17.0150 C.ar   63  PHE63      -0.0042
     62  CE1       -1.1020  -34.3110  -17.7250 C.ar   63  PHE63      -0.0003
     63  CE2        1.0170  -34.9780  -16.8440 C.ar   63  PHE63      -0.0003
     64  CZ        -0.2710  -35.2900  -17.1790 C.ar   63  PHE63      -0.0000
     65  N          3.5050  -25.6220  -19.6180 N.3    65  ASP65      -0.1239
     66  CA         3.6100  -24.4770  -18.7220 C.3    65  ASP65       0.1674
     67  C          3.0500  -23.2130  -19.3540 C.2    65  ASP65       0.2266
     68  O          3.0280  -22.1580  -18.7170 O.2    65  ASP65      -0.2867
     69  CB         5.0340  -24.2580  -18.1690 C.3    65  ASP65       0.1410
     70  CG         6.0930  -24.0930  -19.2530 C.2    65  ASP65       0.3668
     71  OD1        5.7670  -23.9020  -20.4530 O.co2  65  ASP65      -0.2456
     72  OD2        7.2820  -24.1620  -18.8830 O.co2  65  ASP65      -0.2456
     73  N         -0.9590  -34.3990  -11.5760 N.3    78  LEU78      -0.1245
     74  CA        -0.2490  -34.5590  -12.8380 C.3    78  LEU78       0.1561
     75  C          0.4740  -35.9170  -12.9150 C.2    78  LEU78       0.2260
     76  O          0.3800  -36.6240  -13.9190 O.2    78  LEU78      -0.2867
     77  CB         0.7190  -33.3860  -13.0550 C.3    78  LEU78       0.0270
     78  CG         0.1490  -31.9460  -13.2060 C.3    78  LEU78       0.0019
     79  CD1        1.2630  -30.9900  -13.6800 C.3    78  LEU78       0.0001
     80  CD2       -1.0320  -31.8860  -14.1670 C.3    78  LEU78       0.0001
@<TRIPOS>BOND
     1    53    52    2
     2    52    51    1
     3    51    50    1
     4    71    70   ar
     5    50    44   am
     6    54    55    1
     7    42    43    1
     8    44    45    2
     9    44    43    1
    10    65    66    1
    11    67    66    1
    12    67    68    2
    13    56    55    1
    14    56    57    2
    15    70    72   ar
    16    70    69    1
    17    43    46    1
    18    55    58    1
    19    66    69    1
    20    60    62   ar
    21    60    59   ar
    22    46    48    1
    23    46    47    1
    24    58    59    1
    25    62    64   ar
    26    59    61   ar
    27    64    63   ar
    28    61    63   ar
    29    47    49    1
    30     7     6   ar
    31    35    34    2
    32    80    78    1
    33    76    75    2
    34     1     2    1
    35    14    13    1
    36    79    78    1
    37     2     5    1
    38     2     3    1
    39     6     5    1
    40     6     8   ar
    41    34    33    1
    42    78    77    1
    43    77    74    1
    44    12    11    2
    45    75    74    1
    46     9     3   am
    47     9    10    1
    48    74    73    1
    49    36    33    1
    50    36    37    1
    51     3     4    2
    52    33    32    1
    53    26    27    1
    54    38    37   ar
    55    38    40   ar
    56    37    39   ar
    57    13    10    1
    58    13    15    1
    59    24    25   ar
    60    24    22   ar
    61    40    41   ar
    62    30    31    1
    63    30    27    1
    64    25    23   ar
    65    39    41   ar
    66    10    11    1
    67    11    16   am
    68    27    28    1
    69    22    21   ar
    70    23    21   ar
    71    21    20    1
    72    16    17    1
    73    17    20    1
    74    17    18    1
    75    28    29    2
    76    18    19    2
