@<TRIPOS>MOLECULE
tmp/3ikhA00.pdb
 172 160 0 0 0
SMALL
GASTEIGER

@<TRIPOS>ATOM
      1  N         14.1310   35.0990  118.3960 N.3    40  LYS40      -0.1245
      2  CA        13.9330   33.8830  119.1900 C.3    40  LYS40       0.1561
      3  C         12.4810   33.4240  119.1780 C.2    40  LYS40       0.2260
      4  O         12.2050   32.2300  119.1110 O.2    40  LYS40      -0.2867
      5  CB        14.4150   34.0940  120.6270 C.3    40  LYS40       0.0271
      6  CG        15.9080   34.3340  120.7250 C.3    40  LYS40       0.0035
      7  CD        16.3930   34.3890  122.1710 C.3    40  LYS40       0.0206
      8  CE        16.5530   32.9930  122.7500 C.3    40  LYS40       0.1093
      9  NZ        17.5500   32.2040  121.9670 N.3    40  LYS40      -0.1314
     10  N         11.9740   31.1540  128.5940 N.3   158  ASN158     -0.1240
     11  CA        13.3730   31.1040  128.1810 C.3   158  ASN158      0.1653
     12  C         13.8100   32.5670  128.2670 C.2   158  ASN158      0.2266
     13  O         13.7380   33.3020  127.2820 O.2   158  ASN158     -0.2867
     14  CB        13.4760   30.5700  126.7430 C.3   158  ASN158      0.1155
     15  CG        14.9000   30.6090  126.1920 C.2   158  ASN158      0.2627
     16  OD1       15.8720   30.3360  126.9050 O.2   158  ASN158     -0.2716
     17  ND2       15.0220   30.9240  124.9040 N.am  158  ASN158     -0.0877
     18  N         15.8420   35.0070  127.7240 N.3   160  SER160     -0.1217
     19  CA        16.9580   35.4060  126.8730 C.3   160  SER160      0.1889
     20  C         16.3830   36.2720  125.7560 C.2   160  SER160      0.2288
     21  O         15.4900   35.8320  125.0330 O.2   160  SER160     -0.2866
     22  CB        17.6280   34.1530  126.2850 C.3   160  SER160      0.2089
     23  OG        18.7030   34.4770  125.4200 O.3   160  SER160     -0.2183
     24  N         20.4440   28.8910  129.7960 N.3   179  ASN179     -0.1240
     25  CA        21.7920   28.4250  129.4990 C.3   179  ASN179      0.1653
     26  C         22.5810   28.6370  130.7900 C.2   179  ASN179      0.2266
     27  O         22.0270   29.1240  131.7750 O.2   179  ASN179     -0.2867
     28  CB        22.4250   29.1880  128.3180 C.3   179  ASN179      0.1155
     29  CG        22.5570   30.6770  128.5710 C.2   179  ASN179      0.2627
     30  OD1       22.7010   31.1170  129.7100 O.2   179  ASN179     -0.2716
     31  ND2       22.5350   31.4610  127.4960 N.am  179  ASN179     -0.0877
     32  N         22.5640   32.3020  132.3520 N.3   182  GLU182     -0.1245
     33  CA        21.2060   32.5620  132.7980 C.3   182  GLU182      0.1567
     34  C         20.8200   31.7960  134.0740 C.2   182  GLU182      0.2260
     35  O         20.1520   32.3690  134.9510 O.2   182  GLU182     -0.2867
     36  CB        20.2210   32.2420  131.6660 C.3   182  GLU182      0.0388
     37  CG        20.3010   33.2040  130.4840 C.3   182  GLU182      0.1160
     38  CD        19.8300   32.5790  129.1900 C.2   182  GLU182      0.3649
     39  OE1       19.2320   31.4840  129.2400 O.co2 182  GLU182     -0.2457
     40  OE2       20.0590   33.1880  128.1230 O.co2 182  GLU182     -0.2457
     41  N         20.9640   24.4670  129.6470 N.3   197  THR197     -0.1203
     42  CA        21.7270   24.1410  128.4490 C.3   197  THR197      0.1994
     43  C         23.1690   24.6360  128.5700 C.2   197  THR197      0.2618
     44  O         23.4290   25.6950  129.1460 O.2   197  THR197     -0.2717
     45  CB        21.0820   24.7720  127.1990 C.3   197  THR197      0.1784
     46  OG1       21.1090   26.1940  127.3190 O.3   197  THR197     -0.2211
     47  CG2       19.6260   24.3190  127.0590 C.3   197  THR197      0.0376
     48  N         24.0990   23.8600  128.0250 N.am  198  GLN198     -0.1965
     49  CA        25.5090   24.2090  128.0760 C.3   198  GLN198      0.1733
     50  C         26.1920   23.9920  126.7180 C.2   198  GLN198      0.2617
     51  O         27.3180   23.5050  126.6390 O.2   198  GLN198     -0.2715
     52  CB        26.2060   23.3970  129.1840 C.3   198  GLN198      0.0408
     53  CG        25.6080   23.6360  130.5760 C.3   198  GLN198      0.0908
     54  CD        26.4220   23.0220  131.7150 C.2   198  GLN198      0.2608
     55  OE1       26.2300   21.8660  132.0860 O.2   198  GLN198     -0.2717
     56  NE2       27.3370   23.8050  132.2690 N.am  198  GLN198     -0.0878
     57  N         25.4880   24.3630  125.6520 N.am  199  GLY199     -0.1940
     58  CA        26.0230   24.2330  124.3050 C.3   199  GLY199      0.2014
     59  C         26.5380   22.8540  123.9320 C.2   199  GLY199      0.2638
     60  O         25.8920   21.8420  124.1950 O.2   199  GLY199     -0.2714
     61  N         27.7110   22.8220  123.3090 N.am  200  ALA200     -0.1977
     62  CA        28.3270   21.5710  122.8910 C.3   200  ALA200      0.1597
     63  C         28.6130   20.6770  124.0960 C.2   200  ALA200      0.2287
     64  O         28.9690   19.5100  123.9380 O.2   200  ALA200     -0.2864
     65  CB        29.6230   21.8570  122.1210 C.3   200  ALA200      0.0319
     66  N         26.3580   19.7680  126.2790 N.3   202  GLY202     -0.1210
     67  CA        25.1430   19.0850  126.6990 C.3   202  GLY202      0.1956
     68  C         24.1290   19.9280  127.4500 C.2   202  GLY202      0.2611
     69  O         24.1490   21.1530  127.3920 O.2   202  GLY202     -0.2717
     70  N         23.2360   19.2610  128.1700 N.am  203  ALA203     -0.1979
     71  CA        22.2040   19.9580  128.9210 C.3   203  ALA203      0.1597
     72  C         21.7300   19.1240  130.1020 C.2   203  ALA203      0.2287
     73  O         21.8240   17.9000  130.0890 O.2   203  ALA203     -0.2864
     74  CB        21.0290   20.2780  128.0080 C.3   203  ALA203      0.0319
     75  N         25.4980   16.4660  124.2430 N.3   216  ALA216     -0.1231
     76  CA        25.1870   17.0640  122.9580 C.3   216  ALA216      0.1694
     77  C         25.5670   16.0360  121.9020 C.2   216  ALA216      0.2592
     78  O         26.3670   15.1320  122.1660 O.2   216  ALA216     -0.2718
     79  CB        26.0010   18.3380  122.7690 C.3   216  ALA216      0.0304
     80  N         24.9870   16.1560  120.7150 N.am  217  VAL217     -0.1966
     81  CA        25.3110   15.2350  119.6390 C.3   217  VAL217      0.1712
     82  C         26.4530   15.8580  118.8520 C.2   217  VAL217      0.2458
     83  O         26.3220   16.9640  118.3240 O.2   217  VAL217     -0.2730
     84  CB        24.1060   15.0030  118.7080 C.3   217  VAL217      0.0289
     85  CG1       24.5080   14.1030  117.5480 C.3   217  VAL217      0.0023
     86  CG2       22.9680   14.3780  119.4910 C.3   217  VAL217      0.0023
     87  N         27.5950   15.1580  118.7710 N.am  218  PRO218     -0.2716
     88  CA        28.7630   15.6580  118.0460 C.3   218  PRO218      0.1536
     89  C         28.3830   16.2680  116.7070 C.2   218  PRO218      0.2598
     90  O         27.6670   15.6550  115.9170 O.2   218  PRO218     -0.2715
     91  CB        29.6330   14.4110  117.8950 C.3   218  PRO218      0.0310
     92  CG        29.3420   13.6710  119.1580 C.3   218  PRO218      0.0237
     93  CD        27.8310   13.7840  119.2480 C.3   218  PRO218      0.0939
     94  N         28.8610   17.4810  116.4610 N.am  219  ALA219     -0.1978
     95  CA        28.5650   18.1600  115.2160 C.3   219  ALA219      0.1597
     96  C         29.6080   19.2000  114.8480 C.2   219  ALA219      0.2287
     97  O         30.3900   19.6680  115.6780 O.2   219  ALA219     -0.2864
     98  CB        27.1870   18.8170  115.2870 C.3   219  ALA219      0.0319
     99  N         30.3910   22.6800  114.0890 N.3   221  ALA221     -0.1245
    100  CA        29.8800   24.0090  114.4120 C.3   221  ALA221      0.1562
    101  C         30.0620   25.0290  113.2940 C.2   221  ALA221      0.2260
    102  O         30.7840   26.0090  113.4560 O.2   221  ALA221     -0.2867
    103  CB        30.5410   24.5170  115.6900 C.3   221  ALA221      0.0290
    104  N         26.1330   28.2930  114.5690 N.3   224  THR224     -0.1203
    105  CA        25.2890   27.9800  115.7170 C.3   224  THR224      0.1994
    106  C         24.0370   28.8350  115.8800 C.2   224  THR224      0.2619
    107  O         23.2960   28.6770  116.8530 O.2   224  THR224     -0.2717
    108  CB        26.1110   28.0450  117.0260 C.3   224  THR224      0.1784
    109  OG1       26.5810   29.3800  117.2320 O.3   224  THR224     -0.2211
    110  CG2       27.3020   27.1010  116.9490 C.3   224  THR224      0.0376
    111  N         23.7900   29.7370  114.9370 N.am  225  THR225     -0.1938
    112  CA        22.6040   30.5800  115.0120 C.3   225  THR225      0.2028
    113  C         21.3330   29.7360  115.1760 C.2   225  THR225      0.2643
    114  O         21.0960   28.7880  114.4180 O.2   225  THR225     -0.2714
    115  CB        22.4640   31.4550  113.7480 C.3   225  THR225      0.1808
    116  OG1       23.6520   32.2390  113.5890 O.3   225  THR225     -0.2208
    117  CG2       21.2630   32.3920  113.8690 C.3   225  THR225      0.0379
    118  N         20.5340   30.0760  116.1870 N.am  226  GLY226     -0.1939
    119  CA        19.2940   29.3670  116.4390 C.3   226  GLY226      0.2014
    120  C         19.4120   27.9710  117.0280 C.2   226  GLY226      0.2639
    121  O         18.4250   27.2300  117.0620 O.2   226  GLY226     -0.2714
    122  N         20.6010   27.5960  117.4920 N.am  227  ALA227     -0.1963
    123  CA        20.7780   26.2610  118.0680 C.3   227  ALA227      0.1728
    124  C         19.9370   26.1360  119.3290 C.2   227  ALA227      0.2617
    125  O         19.2760   25.1210  119.5480 O.2   227  ALA227     -0.2715
    126  CB        22.2570   26.0040  118.3880 C.3   227  ALA227      0.0334
    127  N         19.9650   27.1790  120.1530 N.am  228  GLY228     -0.1940
    128  CA        19.1910   27.1790  121.3850 C.3   228  GLY228      0.2014
    129  C         17.6950   27.1440  121.1320 C.2   228  GLY228      0.2638
    130  O         16.9540   26.4540  121.8380 O.2   228  GLY228     -0.2714
    131  N         17.2450   27.8880  120.1210 N.am  229  ASP229     -0.1971
    132  CA        15.8260   27.9280  119.7790 C.3   229  ASP229      0.1709
    133  C         15.3930   26.5480  119.2760 C.2   229  ASP229      0.2293
    134  O         14.2780   26.0920  119.5570 O.2   229  ASP229     -0.2864
    135  CB        15.5510   28.9880  118.6930 C.3   229  ASP229      0.1436
    136  CG        15.9820   30.3990  119.1120 C.2   229  ASP229      0.3671
    137  OD1       15.8250   30.7620  120.3020 O.co2 229  ASP229     -0.2456
    138  OD2       16.4620   31.1550  118.2410 O.co2 229  ASP229     -0.2456
    139  N         16.7890   23.6020  120.0670 N.3   231  PHE231     -0.1241
    140  CA        16.7730   22.7030  121.2160 C.3   231  PHE231      0.1605
    141  C         15.4830   22.8600  122.0230 C.2   231  PHE231      0.2264
    142  O         14.8300   21.8680  122.3740 O.2   231  PHE231     -0.2867
    143  CB        17.9730   23.0020  122.1130 C.3   231  PHE231      0.0534
    144  CG        18.1420   22.0350  123.2370 C.ar  231  PHE231     -0.0203
    145  CD1       18.9650   20.9230  123.0930 C.ar  231  PHE231     -0.0042
    146  CD2       17.4690   22.2250  124.4400 C.ar  231  PHE231     -0.0042
    147  CE1       19.1200   20.0090  124.1340 C.ar  231  PHE231     -0.0003
    148  CE2       17.6150   21.3160  125.4880 C.ar  231  PHE231     -0.0003
    149  CZ        18.4450   20.2060  125.3300 C.ar  231  PHE231     -0.0000
    150  N         18.7330   17.5370  121.3170 N.3   254  SER254     -0.1217
    151  CA        20.1620   17.5860  121.0460 C.3   254  SER254      0.1889
    152  C         20.4240   17.1800  119.6020 C.2   254  SER254      0.2288
    153  O         21.2840   17.7450  118.9310 O.2   254  SER254     -0.2866
    154  CB        20.9070   16.6440  121.9910 C.3   254  SER254      0.2089
    155  OG        20.6220   16.9600  123.3410 O.3   254  SER254     -0.2183
    156  N         19.2580   20.1010  117.3620 N.3   257  ALA257     -0.1231
    157  CA        20.1690   21.2340  117.4660 C.3   257  ALA257      0.1694
    158  C         21.4480   20.9440  116.6920 C.2   257  ALA257      0.2591
    159  O         22.0450   21.8500  116.1110 O.2   257  ALA257     -0.2718
    160  CB        20.4840   21.5190  118.9270 C.3   257  ALA257      0.0304
    161  N         21.8590   19.6770  116.6770 N.am  258  ALA258     -0.1980
    162  CA        23.0660   19.2800  115.9610 C.3   258  ALA258      0.1597
    163  C         22.9310   19.5860  114.4720 C.2   258  ALA258      0.2287
    164  O         23.9130   19.9190  113.8120 O.2   258  ALA258     -0.2864
    165  CB        23.3380   17.7950  116.1680 C.3   258  ALA258      0.0319
    166  N         23.3040   23.5110  113.9390 N.3   261  VAL261     -0.1245
    167  CA        24.6910   23.9400  114.0770 C.3   261  VAL261      0.1561
    168  C         25.4990   23.6080  112.8180 C.2   261  VAL261      0.2260
    169  O         26.4400   24.3240  112.4730 O.2   261  VAL261     -0.2867
    170  CB        25.3590   23.2620  115.3040 C.3   261  VAL261      0.0252
    171  CG1       26.8240   23.6180  115.3740 C.3   261  VAL261      0.0019
    172  CG2       24.6590   23.7030  116.5810 C.3   261  VAL261      0.0019
@<TRIPOS>BOND
     1   169   168    2
     2   168   167    1
     3   101   102    2
     4   101   100    1
     5   116   115    1
     6   115   117    1
     7   115   112    1
     8   164   163    2
     9   166   167    1
    10   167   170    1
    11    99   100    1
    12   100   103    1
    13   114   113    2
    14   163   162    1
    15   104   105    1
    16    96    95    1
    17    96    97    2
    18   111   112    1
    19   111   106   am
    20   112   113    1
    21   113   118   am
    22    95    98    1
    23    95    94    1
    24   170   171    1
    25   170   172    1
    26   105   106    1
    27   105   108    1
    28   106   107    2
    29    90    89    2
    30   162   165    1
    31   162   161    1
    32   159   158    2
    33   118   119    1
    34   119   120    1
    35    94    89   am
    36   161   158   am
    37   158   157    1
    38    89    88    1
    39   110   108    1
    40   108   109    1
    41   120   121    2
    42   120   122   am
    43   156   157    1
    44   157   160    1
    45   122   123    1
    46    85    84    1
    47    91    88    1
    48    91    92    1
    49    88    87    1
    50   123   126    1
    51   123   124    1
    52   138   136   ar
    53    83    82    2
    54     1     2    1
    55   135   136    1
    56   135   132    1
    57    84    86    1
    58    84    81    1
    59    87    82   am
    60    87    93    1
    61    82    81    1
    62   153   152    2
    63     4     3    2
    64   136   137   ar
    65    92    93    1
    66     3     2    1
    67     2     5    1
    68   133   134    2
    69   133   132    1
    70   124   125    2
    71   124   127   am
    72   152   151    1
    73    81    80    1
    74   132   131    1
    75   139   140    1
    76   131   129   am
    77   127   128    1
    78     5     6    1
    79    80    77   am
    80     6     7    1
    81   151   150    1
    82   151   154    1
    83   129   128    1
    84   129   130    2
    85   140   141    1
    86   140   143    1
    87    77    78    2
    88    77    76    1
    89     9     8    1
    90   154   155    1
    91   141   142    2
    92   143   144    1
    93    65    62    1
    94     7     8    1
    95    79    76    1
    96    62    61    1
    97    62    63    1
    98    76    75    1
    99   145   144   ar
   100   145   147   ar
   101   144   146   ar
   102    61    59   am
   103    59    60    2
   104    59    58    1
   105    64    63    2
   106   147   149   ar
   107    58    57    1
   108   146   148   ar
   109    17    15   am
   110    21    20    2
   111   149   148   ar
   112    23    22    1
   113    57    50   am
   114    20    19    1
   115    15    14    1
   116    15    16    2
   117    66    67    1
   118    22    19    1
   119    51    50    2
   120    67    68    1
   121    50    49    1
   122    14    11    1
   123    19    18    1
   124    47    45    1
   125    45    46    1
   126    45    42    1
   127    13    12    2
   128    69    68    2
   129    68    70   am
   130    31    29   am
   131    74    71    1
   132    48    49    1
   133    48    43   am
   134    49    52    1
   135    40    38   ar
   136    70    71    1
   137    11    12    1
   138    11    10    1
   139    28    29    1
   140    28    25    1
   141    42    43    1
   142    42    41    1
   143    43    44    2
   144    29    30    2
   145    71    72    1
   146    52    53    1
   147    38    39   ar
   148    38    37    1
   149    25    24    1
   150    25    26    1
   151    73    72    2
   152    37    36    1
   153    53    54    1
   154    26    27    2
   155    36    33    1
   156    54    55    2
   157    54    56   am
   158    32    33    1
   159    33    34    1
   160    34    35    2
