@<TRIPOS>MOLECULE
tmp/3il4C00.pdb
 223 214 0 0 0
SMALL
GASTEIGER

@<TRIPOS>ATOM
      1  N        125.4060  -91.3940  -46.1760 N.3    25  ASP25      -0.1225
      2  CA       124.7620  -91.9270  -44.9940 C.3    25  ASP25       0.1805
      3  C        125.6970  -91.5310  -43.8680 C.2    25  ASP25       0.2598
      4  O        126.6170  -92.2590  -43.4830 O.2    25  ASP25      -0.2718
      5  CB       124.6050  -93.4480  -45.0680 C.3    25  ASP25       0.1424
      6  CG       123.5770  -93.9640  -44.0890 C.2    25  ASP25       0.3668
      7  OD1      122.7100  -93.1550  -43.6840 O.co2  25  ASP25      -0.2456
      8  OD2      123.6240  -95.1650  -43.7390 O.co2  25  ASP25      -0.2456
      9  N        125.4610  -90.3240  -43.3860 N.am   26  THR26      -0.1939
     10  CA       126.2310  -89.7430  -42.3050 C.3    26  THR26       0.2028
     11  C        125.3100  -88.7420  -41.6140 C.2    26  THR26       0.2642
     12  O        124.2630  -88.3760  -42.1580 O.2    26  THR26      -0.2714
     13  CB       127.4820  -89.0110  -42.8510 C.3    26  THR26       0.1808
     14  OG1      128.2300  -88.4570  -41.7660 O.3    26  THR26      -0.2208
     15  CG2      127.0820  -87.8850  -43.7790 C.3    26  THR26       0.0379
     16  N        125.6920  -88.3060  -40.4190 N.am   27  SER27      -0.1949
     17  CA       124.8860  -87.3510  -39.6620 C.3    27  SER27       0.1924
     18  C        125.7560  -86.3160  -38.9630 C.2    27  SER27       0.2314
     19  O        126.9560  -86.5230  -38.7930 O.2    27  SER27      -0.2863
     20  CB       124.0670  -88.0840  -38.6030 C.3    27  SER27       0.2116
     21  OG       124.9130  -88.6270  -37.6010 O.3    27  SER27      -0.2180
     22  N        127.1070  -87.7910  -35.6450 N.3    30  TRP30      -0.1227
     23  CA       128.3120  -88.5900  -35.7970 C.3    30  TRP30       0.1737
     24  C        129.5690  -87.7820  -36.0710 C.2    30  TRP30       0.2595
     25  O        130.4970  -87.7610  -35.2640 O.2    30  TRP30      -0.2718
     26  CB       128.1270  -89.6110  -36.9180 C.3    30  TRP30       0.0564
     27  CG       129.1630  -90.6900  -36.8970 C.ar   30  TRP30       0.0003
     28  CD1      129.0380  -91.9360  -36.3490 C.ar   30  TRP30       0.0946
     29  CD2      130.5010  -90.6080  -37.4040 C.ar   30  TRP30       0.0152
     30  NE1      130.2140  -92.6370  -36.4840 N.ar   30  TRP30      -0.2442
     31  CE2      131.1300  -91.8460  -37.1280 C.ar   30  TRP30       0.0810
     32  CE3      131.2340  -89.6090  -38.0620 C.ar   30  TRP30       0.0012
     33  CZ2      132.4600  -92.1090  -37.4890 C.ar   30  TRP30       0.0191
     34  CZ3      132.5550  -89.8750  -38.4190 C.ar   30  TRP30       0.0001
     35  CH2      133.1510  -91.1150  -38.1300 C.ar   30  TRP30       0.0015
     36  N        129.5960  -87.1230  -37.2230 N.am   31  ILE31      -0.1980
     37  CA       130.7560  -86.3360  -37.6200 C.3    31  ILE31       0.1595
     38  C        131.2690  -85.4620  -36.4930 C.2    31  ILE31       0.2287
     39  O        132.4340  -85.5490  -36.1070 O.2    31  ILE31      -0.2864
     40  CB       130.4360  -85.4220  -38.8130 C.3    31  ILE31       0.0276
     41  CG1      129.8870  -86.2520  -39.9850 C.3    31  ILE31       0.0022
     42  CG2      131.6930  -84.6640  -39.2260 C.3    31  ILE31       0.0022
     43  CD1      129.4810  -85.4240  -41.2060 C.3    31  ILE31       0.0001
     44  N        132.7740  -87.0020  -33.3320 N.3    34  ARG34      -0.1231
     45  CA       133.9860  -87.7840  -33.6080 C.3    34  ARG34       0.1694
     46  C        135.1690  -86.9100  -33.9550 C.2    34  ARG34       0.2592
     47  O        136.3280  -87.2910  -33.7910 O.2    34  ARG34      -0.2718
     48  CB       133.7570  -88.7480  -34.7710 C.3    34  ARG34       0.0321
     49  CG       132.5380  -89.6000  -34.6080 C.3    34  ARG34       0.0489
     50  CD       132.5030  -90.2210  -33.2310 C.3    34  ARG34       0.2205
     51  NE       133.6780  -91.0410  -32.9820 N.pl3  34  ARG34      -0.0865
     52  CZ       134.0610  -92.0420  -33.7650 C.cat  34  ARG34       0.5346
     53  NH1      133.3680  -92.3430  -34.8490 N.pl3  34  ARG34       0.1354
     54  NH2      135.1290  -92.7580  -33.4610 N.pl3  34  ARG34       0.1354
     55  N        134.8670  -85.7220  -34.4390 N.am   35  THR35      -0.1953
     56  CA       135.9270  -84.8250  -34.8290 C.3    35  THR35       0.1897
     57  C        135.7770  -83.4340  -34.2460 C.2    35  THR35       0.2313
     58  O        136.7600  -82.7530  -34.0170 O.2    35  THR35      -0.2863
     59  CB       135.9810  -84.7240  -36.3510 C.3    35  THR35       0.1794
     60  OG1      134.7240  -84.2290  -36.8370 O.3    35  THR35      -0.2208
     61  CG2      136.2250  -86.0900  -36.9560 C.3    35  THR35       0.0378
     62  N        150.2620  -82.9830  -43.7350 N.3   109  CYS109     -0.1235
     63  CA       149.7290  -82.2070  -42.6280 C.3   109  CYS109      0.1677
     64  C        150.7960  -81.6430  -41.6930 C.2   109  CYS109      0.2270
     65  O        150.4720  -81.0160  -40.6870 O.2   109  CYS109     -0.2867
     66  CB       148.7480  -83.0810  -41.8570 C.3   109  CYS109      0.0956
     67  SG       147.7490  -84.1260  -42.9610 S.3   109  CYS109     -0.0801
     68  N        132.0100  -91.8020  -47.1810 N.3   148  ARG148     -0.1231
     69  CA       131.7380  -90.9780  -46.0210 C.3   148  ARG148      0.1694
     70  C        132.9690  -91.0080  -45.1180 C.2   148  ARG148      0.2592
     71  O        133.2490  -90.0350  -44.3940 O.2   148  ARG148     -0.2718
     72  CB       130.5240  -91.5280  -45.2680 C.3   148  ARG148      0.0321
     73  CG       130.7510  -92.9120  -44.6880 C.3   148  ARG148      0.0489
     74  CD       129.4570  -93.5380  -44.2040 C.3   148  ARG148      0.2205
     75  NE       129.7040  -94.8480  -43.6060 N.pl3 148  ARG148     -0.0865
     76  CZ       128.7710  -95.6070  -43.0370 C.cat 148  ARG148      0.5346
     77  NH1      127.5140  -95.1920  -42.9890 N.pl3 148  ARG148      0.1354
     78  NH2      129.1010  -96.7750  -42.4970 N.pl3 148  ARG148      0.1354
     79  N        133.7050  -92.1230  -45.1970 N.am  149  SER149     -0.1952
     80  CA       134.8980  -92.3590  -44.3900 C.3   149  SER149      0.1924
     81  C        135.8560  -91.1920  -44.4140 C.2   149  SER149      0.2314
     82  O        136.4630  -90.8640  -43.4020 O.2   149  SER149     -0.2863
     83  CB       135.6260  -93.6120  -44.8710 C.3   149  SER149      0.2116
     84  OG       134.7380  -94.7080  -44.9570 O.3   149  SER149     -0.2180
     85  N        133.8030  -86.5160  -45.1270 N.3   152  VAL152     -0.1231
     86  CA       133.3490  -85.6470  -44.0440 C.3   152  VAL152      0.1692
     87  C        134.4420  -84.9750  -43.2270 C.2   152  VAL152      0.2592
     88  O        134.1420  -84.1620  -42.3610 O.2   152  VAL152     -0.2718
     89  CB       132.4810  -86.4290  -43.0430 C.3   152  VAL152      0.0266
     90  CG1      131.2980  -87.0630  -43.7630 C.3   152  VAL152      0.0020
     91  CG2      133.3290  -87.4900  -42.3450 C.3   152  VAL152      0.0020
     92  N        135.7010  -85.3020  -43.5010 N.am  153  LEU153     -0.1966
     93  CA       136.8180  -84.7570  -42.7240 C.3   153  LEU153      0.1728
     94  C        137.5880  -83.5640  -43.2720 C.2   153  LEU153      0.2616
     95  O        137.9500  -82.6610  -42.5190 O.2   153  LEU153     -0.2715
     96  CB       137.8380  -85.8590  -42.4470 C.3   153  LEU153      0.0311
     97  CG       137.3680  -87.2220  -41.9220 C.3   153  LEU153      0.0022
     98  CD1      138.5650  -88.1650  -41.8570 C.3   153  LEU153      0.0001
     99  CD2      136.7070  -87.0860  -40.5450 C.3   153  LEU153      0.0001
    100  N        137.8470  -83.5570  -44.5730 N.am  154  PHE154     -0.1974
    101  CA       138.6470  -82.4900  -45.1600 C.3   154  PHE154      0.1639
    102  C        137.9540  -81.2830  -45.7660 C.2   154  PHE154      0.2290
    103  O        136.8770  -81.3850  -46.3450 O.2   154  PHE154     -0.2864
    104  CB       139.6020  -83.0860  -46.1940 C.3   154  PHE154      0.0560
    105  CG       140.4330  -84.2180  -45.6630 C.ar  154  PHE154     -0.0200
    106  CD1      139.8760  -85.4910  -45.4950 C.ar  154  PHE154     -0.0042
    107  CD2      141.7630  -84.0130  -45.3040 C.ar  154  PHE154     -0.0042
    108  CE1      140.6340  -86.5430  -44.9760 C.ar  154  PHE154     -0.0003
    109  CE2      142.5290  -85.0530  -44.7850 C.ar  154  PHE154     -0.0003
    110  CZ       141.9650  -86.3200  -44.6210 C.ar  154  PHE154     -0.0000
    111  N        147.9960  -92.9420  -45.0000 N.3   186  LEU186     -0.1245
    112  CA       147.2750  -91.8170  -45.5880 C.3   186  LEU186      0.1561
    113  C        147.9230  -91.4740  -46.9160 C.2   186  LEU186      0.2260
    114  O        149.0950  -91.0970  -46.9650 O.2   186  LEU186     -0.2867
    115  CB       147.3140  -90.6090  -44.6530 C.3   186  LEU186      0.0270
    116  CG       146.7880  -89.2810  -45.2080 C.3   186  LEU186      0.0019
    117  CD1      145.4370  -89.4950  -45.8990 C.3   186  LEU186      0.0001
    118  CD2      146.6770  -88.2710  -44.0580 C.3   186  LEU186      0.0001
    119  N        142.6200  -93.2930  -46.4120 N.3   208  MET208     -0.1245
    120  CA       143.3970  -93.3500  -45.1760 C.3   208  MET208      0.1570
    121  C        142.9020  -94.3870  -44.1700 C.2   208  MET208      0.2261
    122  O        141.7210  -94.7260  -44.1480 O.2   208  MET208     -0.2867
    123  CB       143.4380  -91.9800  -44.4970 C.3   208  MET208      0.0387
    124  CG       142.3380  -91.7520  -43.4860 C.3   208  MET208      0.0595
    125  SD       142.7790  -90.4600  -42.3140 S.3   208  MET208     -0.1393
    126  CE       141.6580  -89.1820  -42.7810 C.3   208  MET208      0.0692
    127  N        141.9590  -94.9630  -40.6980 N.3   210  GLY210     -0.1210
    128  CA       141.5510  -94.2370  -39.5040 C.3   210  GLY210      0.1956
    129  C        142.2930  -94.5290  -38.2110 C.2   210  GLY210      0.2611
    130  O        143.0310  -93.6810  -37.6980 O.2   210  GLY210     -0.2717
    131  N        142.0740  -95.7330  -37.6900 N.am  211  ARG211     -0.1979
    132  CA       142.6720  -96.2280  -36.4510 C.3   211  ARG211      0.1597
    133  C        144.1880  -96.0610  -36.4170 C.2   211  ARG211      0.2287
    134  O        144.7340  -95.6010  -35.4150 O.2   211  ARG211     -0.2864
    135  CB       142.3200  -97.7010  -36.2980 C.3   211  ARG211      0.0334
    136  CG       142.1040  -98.1400  -34.8870 C.3   211  ARG211      0.0492
    137  CD       140.8390  -97.5610  -34.3170 C.3   211  ARG211      0.2205
    138  NE       141.1130  -97.0560  -32.9830 N.pl3 211  ARG211     -0.0865
    139  CZ       140.2010  -96.5870  -32.1410 C.cat 211  ARG211      0.5346
    140  NH1      138.9140  -96.5560  -32.4850 N.pl3 211  ARG211      0.1354
    141  NH2      140.5980  -96.1410  -30.9500 N.pl3 211  ARG211      0.1354
    142  N        146.3100  -93.9420  -37.9790 N.3   213  ILE213     -0.1231
    143  CA       146.6730  -92.5450  -37.7480 C.3   213  ILE213      0.1692
    144  C        146.2310  -92.0540  -36.3650 C.2   213  ILE213      0.2592
    145  O        146.9520  -91.3060  -35.7090 O.2   213  ILE213     -0.2718
    146  CB       146.0530  -91.6420  -38.8350 C.3   213  ILE213      0.0266
    147  CG1      146.5140  -92.1120  -40.2140 C.3   213  ILE213      0.0019
    148  CG2      146.4590  -90.1960  -38.6060 C.3   213  ILE213      0.0020
    149  CD1      145.9070  -91.3530  -41.3600 C.3   213  ILE213      0.0001
    150  N        145.0520  -92.4780  -35.9230 N.am  214  PHE214     -0.1976
    151  CA       144.5530  -92.0730  -34.6180 C.3   214  PHE214      0.1639
    152  C        145.5650  -92.4630  -33.5380 C.2   214  PHE214      0.2290
    153  O        146.1770  -91.6050  -32.8910 O.2   214  PHE214     -0.2864
    154  CB       143.2210  -92.7530  -34.3320 C.3   214  PHE214      0.0560
    155  CG       142.5090  -92.2140  -33.1210 C.ar  214  PHE214     -0.0200
    156  CD1      141.8970  -90.9600  -33.1530 C.ar  214  PHE214     -0.0042
    157  CD2      142.4330  -92.9640  -31.9500 C.ar  214  PHE214     -0.0042
    158  CE1      141.2160  -90.4600  -32.0330 C.ar  214  PHE214     -0.0003
    159  CE2      141.7530  -92.4750  -30.8240 C.ar  214  PHE214     -0.0003
    160  CZ       141.1440  -91.2240  -30.8650 C.ar  214  PHE214     -0.0000
    161  N        147.7600  -79.8010  -35.4690 N.3   240  HIS240     -0.1241
    162  CA       147.0090  -80.0400  -36.6990 C.3   240  HIS240      0.1621
    163  C        145.5450  -80.3090  -36.2610 C.2   240  HIS240      0.2264
    164  O        145.2910  -81.1640  -35.4030 O.2   240  HIS240     -0.2867
    165  CB       147.6110  -81.2460  -37.4360 C.3   240  HIS240      0.0745
    166  CG       146.7880  -81.7210  -38.5890 C.ar  240  HIS240      0.0817
    167  ND1      146.3260  -80.8690  -39.5680 N.ar  240  HIS240     -0.2268
    168  CD2      146.3570  -82.9580  -38.9260 C.ar  240  HIS240      0.1154
    169  CE1      145.6450  -81.5620  -40.4600 C.ar  240  HIS240      0.1986
    170  NE2      145.6490  -82.8310  -40.0940 N.ar  240  HIS240     -0.2212
    171  N        143.0150  -82.0490  -37.1330 N.3   242  ALA242     -0.1231
    172  CA       142.3660  -83.2740  -37.6080 C.3   242  ALA242      0.1694
    173  C        141.0940  -83.6840  -36.8420 C.2   242  ALA242      0.2592
    174  O        140.0030  -83.7330  -37.4100 O.2   242  ALA242     -0.2718
    175  CB       143.3760  -84.4180  -37.5870 C.3   242  ALA242      0.0304
    176  N        141.2420  -83.9810  -35.5550 N.am  243  SER243     -0.1952
    177  CA       140.1210  -84.4030  -34.7190 C.3   243  SER243      0.1924
    178  C        140.2860  -83.8460  -33.3140 C.2   243  SER243      0.2314
    179  O        141.3890  -83.8560  -32.7670 O.2   243  SER243     -0.2863
    180  CB       140.0710  -85.9360  -34.6620 C.3   243  SER243      0.2116
    181  OG       139.3680  -86.4080  -33.5240 O.3   243  SER243     -0.2180
    182  N        138.9730  -85.0940  -30.5650 N.3   245  ARG245     -0.1231
    183  CA       139.2000  -86.1870  -29.6290 C.3   245  ARG245      0.1694
    184  C        140.6940  -86.5600  -29.6270 C.2   245  ARG245      0.2591
    185  O        141.2260  -87.0400  -28.6160 O.2   245  ARG245     -0.2718
    186  CB       138.3090  -87.3920  -29.9760 C.3   245  ARG245      0.0321
    187  CG       136.8450  -87.2160  -29.5530 C.3   245  ARG245      0.0489
    188  CD       136.0830  -88.5220  -29.7020 C.3   245  ARG245      0.2205
    189  NE       136.3290  -89.1140  -31.0190 N.pl3 245  ARG245     -0.0865
    190  CZ       135.7780  -90.2360  -31.4810 C.cat 245  ARG245      0.5346
    191  NH1      136.0870  -90.6550  -32.6890 N.pl3 245  ARG245      0.1354
    192  NH2      134.9250  -90.9310  -30.7520 N.pl3 245  ARG245      0.1354
    193  N        141.3710  -86.3240  -30.7510 N.am  246  ILE246     -0.1980
    194  CA       142.7970  -86.6030  -30.8160 C.3   246  ILE246      0.1595
    195  C        143.5220  -85.6030  -29.9140 C.2   246  ILE246      0.2287
    196  O        144.3860  -85.9780  -29.1140 O.2   246  ILE246     -0.2864
    197  CB       143.3520  -86.4560  -32.2300 C.3   246  ILE246      0.0276
    198  CG1      142.7520  -87.5310  -33.1430 C.3   246  ILE246      0.0022
    199  CG2      144.8750  -86.5670  -32.1910 C.3   246  ILE246      0.0022
    200  CD1      143.3770  -87.5840  -34.5350 C.3   246  ILE246      0.0001
    201  N        139.4260  -80.6670  -41.4710 N.3   270  ASN270     -0.1240
    202  CA       140.8500  -80.9020  -41.6630 C.3   270  ASN270      0.1653
    203  C        141.3780  -80.2460  -42.9460 C.2   270  ASN270      0.2266
    204  O        141.1170  -80.7170  -44.0550 O.2   270  ASN270     -0.2867
    205  CB       141.1270  -82.4040  -41.7020 C.3   270  ASN270      0.1155
    206  CG       142.6010  -82.7170  -41.8390 C.2   270  ASN270      0.2627
    207  OD1      143.3800  -81.8850  -42.3100 O.2   270  ASN270     -0.2716
    208  ND2      142.9890  -83.9250  -41.4450 N.am  270  ASN270     -0.0877
    209  N        151.0250  -83.2860  -37.9100 N.3   302  PHE302     -0.1227
    210  CA       151.2250  -84.7260  -38.0850 C.3   302  PHE302      0.1736
    211  C        150.2870  -85.2680  -39.1620 C.2   302  PHE302      0.2596
    212  O        149.1660  -84.7870  -39.3110 O.2   302  PHE302     -0.2718
    213  CB       150.9510  -85.4370  -36.7520 C.3   302  PHE302      0.0547
    214  CG       149.5900  -85.1390  -36.1790 C.ar  302  PHE302     -0.0202
    215  CD1      148.4740  -85.8580  -36.5940 C.ar  302  PHE302     -0.0042
    216  CD2      149.4200  -84.1010  -35.2640 C.ar  302  PHE302     -0.0042
    217  CE1      147.2130  -85.5470  -36.1110 C.ar  302  PHE302     -0.0003
    218  CE2      148.1600  -83.7820  -34.7760 C.ar  302  PHE302     -0.0003
    219  CZ       147.0550  -84.5060  -35.2000 C.ar  302  PHE302     -0.0000
    220  N        150.7440  -86.2680  -39.9070 N.am  303  GLY303     -0.1957
    221  CA       149.9100  -86.8420  -40.9430 C.3   303  GLY303      0.1869
    222  C        150.6740  -87.5730  -42.0300 C.2   303  GLY303      0.2309
    223  O        151.7070  -88.1940  -41.7710 O.2   303  GLY303     -0.2863
@<TRIPOS>BOND
     1    68    69    1
     2   114   113    2
     3   113   112    1
     4   119   120    1
     5   103   102    2
     6   104   105    1
     7   104   101    1
     8     1     2    1
     9    69    72    1
    10    69    70    1
    11   117   116    1
    12   102   101    1
    13   105   106   ar
    14   105   107   ar
    15   112   111    1
    16   112   115    1
    17   106   108   ar
    18   107   109   ar
    19    72    73    1
    20   116   115    1
    21   116   118    1
    22    79    70   am
    23    79    80    1
    24   120   123    1
    25   120   121    1
    26   101   100    1
    27    85    86    1
    28    70    71    2
    29     5     2    1
    30     5     6    1
    31     2     3    1
    32   108   110   ar
    33    84    83    1
    34    83    80    1
    35   109   110   ar
    36    73    74    1
    37   100    94   am
    38   123   124    1
    39    81    80    1
    40    81    82    2
    41    74    75    1
    42   121   122    2
    43     6     8   ar
    44     6     7   ar
    45   204   203    2
    46    86    87    1
    47    86    89    1
    48     3     4    2
    49     3     9   am
    50    15    13    1
    51    90    89    1
    52    62    63    1
    53    75    76    2
    54    92    87   am
    55    92    93    1
    56   124   125    1
    57     9    10    1
    58    94    93    1
    59    94    95    2
    60    87    88    2
    61    89    91    1
    62    76    77    1
    63    76    78    1
    64    67    66    1
    65   203   202    1
    66    13    10    1
    67    13    14    1
    68   126   125    1
    69    93    96    1
    70    63    66    1
    71    63    64    1
    72    96    97    1
    73   207   206    2
    74    10    11    1
    75    12    11    2
    76   222   223    2
    77   222   221    1
    78    97    98    1
    79    97    99    1
    80   206   205    1
    81   206   208   am
    82   205   202    1
    83    64    65    2
    84   202   201    1
    85    11    16   am
    86   149   147    1
    87    43    41    1
    88   221   220    1
    89   127   128    1
    90   169   170   ar
    91   169   167   ar
    92    16    17    1
    93   147   146    1
    94   170   168   ar
    95    41    40    1
    96   220   211   am
    97    17    18    1
    98    17    20    1
    99   167   166   ar
   100   128   129    1
   101   212   211    2
   102    42    40    1
   103   211   210    1
   104    18    19    2
   105   168   166   ar
   106   146   148    1
   107   146   143    1
   108    40    37    1
   109    20    21    1
   110   166   165    1
   111    34    35   ar
   112    34    32   ar
   113   129   130    2
   114   129   131   am
   115    35    33   ar
   116   210   209    1
   117   210   213    1
   118    32    29   ar
   119   142   143    1
   120   143   144    1
   121   131   132    1
   122    37    36    1
   123    37    38    1
   124   172   175    1
   125   172   171    1
   126   172   173    1
   127    33    31   ar
   128   165   162    1
   129   174   173    2
   130    29    31   ar
   131    29    27   ar
   132    36    24   am
   133    31    30   ar
   134    61    59    1
   135    26    27    1
   136    26    23    1
   137    27    28   ar
   138   173   176   am
   139    60    59    1
   140   213   214    1
   141   162   163    1
   142   162   161    1
   143   215   214   ar
   144   215   217   ar
   145    38    39    2
   146    30    28   ar
   147   132   133    1
   148   132   135    1
   149   133   134    2
   150   144   150   am
   151   144   145    2
   152    59    56    1
   153   135   136    1
   154   163   164    2
   155   214   216   ar
   156   217   219   ar
   157    24    23    1
   158    24    25    2
   159   150   151    1
   160    23    22    1
   161   176   177    1
   162   216   218   ar
   163   219   218   ar
   164   136   137    1
   165    53    52    1
   166    56    55    1
   167    56    57    1
   168    48    49    1
   169    48    45    1
   170   177   180    1
   171   177   178    1
   172   180   181    1
   173   151   154    1
   174   151   152    1
   175    49    50    1
   176   200   198    1
   177    55    46   am
   178   154   155    1
   179   137   138    1
   180    57    58    2
   181    46    47    2
   182    46    45    1
   183    52    54    1
   184    52    51    2
   185    45    44    1
   186   152   153    2
   187   178   179    2
   188    50    51    1
   189   156   155   ar
   190   156   158   ar
   191   198   197    1
   192   155   157   ar
   193   138   139    2
   194   191   190    1
   195   140   139    1
   196   197   199    1
   197   197   194    1
   198   139   141    1
   199   158   160   ar
   200   157   159   ar
   201   190   189    2
   202   190   192    1
   203   189   188    1
   204   160   159   ar
   205   194   193    1
   206   194   195    1
   207   193   184   am
   208   182   183    1
   209   186   183    1
   210   186   187    1
   211   195   196    2
   212   188   187    1
   213   183   184    1
   214   184   185    2
