@<TRIPOS>MOLECULE
tmp/3il5D00.pdb
 188 178 0 0 0
SMALL
GASTEIGER

@<TRIPOS>ATOM
      1  N       -203.2120  147.7270  -15.8530 N.3    37  ARG37      -0.1231
      2  CA      -203.3280  146.4710  -15.1310 C.3    37  ARG37       0.1694
      3  C       -204.4820  146.4580  -14.1240 C.2    37  ARG37       0.2592
      4  O       -205.0760  145.4110  -13.8710 O.2    37  ARG37      -0.2718
      5  CB      -202.0070  146.1730  -14.4190 C.3    37  ARG37       0.0321
      6  CG      -202.0190  144.9130  -13.5710 C.3    37  ARG37       0.0489
      7  CD      -200.8600  143.9970  -13.9240 C.3    37  ARG37       0.2205
      8  NE      -200.3110  143.3340  -12.7460 N.pl3  37  ARG37      -0.0865
      9  CZ      -199.2300  142.5610  -12.7650 C.cat  37  ARG37       0.5346
     10  NH1     -198.5850  142.3540  -13.9070 N.pl3  37  ARG37       0.1354
     11  NH2     -198.7850  142.0100  -11.6430 N.pl3  37  ARG37       0.1354
     12  N       -204.7990  147.6200  -13.5560 N.am   38  THR38      -0.1953
     13  CA      -205.7600  147.7070  -12.4520 C.3    38  THR38       0.1897
     14  C       -207.0180  148.4970  -12.8030 C.2    38  THR38       0.2313
     15  O       -208.1300  148.1150  -12.4380 O.2    38  THR38      -0.2863
     16  CB      -205.1310  148.3850  -11.2310 C.3    38  THR38       0.1794
     17  OG1     -204.8650  149.7600  -11.5370 O.3    38  THR38      -0.2208
     18  CG2     -203.8360  147.7000  -10.8570 C.3    38  THR38       0.0378
     19  N       -213.5730  140.8380    1.5250 N.3   112  CYS112     -0.1235
     20  CA      -214.2380  141.7700    0.6110 C.3   112  CYS112      0.1677
     21  C       -215.7650  141.5670    0.4850 C.2   112  CYS112      0.2270
     22  O       -216.4510  142.3770   -0.1310 O.2   112  CYS112     -0.2867
     23  CB      -213.5880  141.6850   -0.7790 C.3   112  CYS112      0.0956
     24  SG      -211.8110  142.0990   -0.8380 S.3   112  CYS112     -0.0801
     25  N       -197.0180  143.6650   -7.6280 N.3   152  SER152     -0.1217
     26  CA      -198.1500  142.8450   -8.0630 C.3   152  SER152      0.1889
     27  C       -199.4140  143.2390   -7.3090 C.2   152  SER152      0.2288
     28  O       -200.4830  143.4020   -7.9000 O.2   152  SER152     -0.2866
     29  CB      -197.8680  141.3660   -7.7970 C.3   152  SER152      0.2089
     30  OG      -196.5310  141.0370   -8.1190 O.3   152  SER152     -0.2183
     31  N       -202.7690  147.7510   -5.8450 N.3   156  LEU156     -0.1231
     32  CA      -204.1830  147.4080   -5.9780 C.3   156  LEU156      0.1693
     33  C       -205.0630  148.0510   -4.9160 C.2   156  LEU156      0.2592
     34  O       -206.1530  148.5530   -5.2120 O.2   156  LEU156     -0.2718
     35  CB      -204.3640  145.8990   -5.8930 C.3   156  LEU156      0.0284
     36  CG      -203.5000  145.1000   -6.8560 C.3   156  LEU156      0.0019
     37  CD1     -203.8870  143.6370   -6.7880 C.3   156  LEU156      0.0001
     38  CD2     -203.6910  145.6450   -8.2540 C.3   156  LEU156      0.0001
     39  N       -204.5860  148.0270   -3.6750 N.am  157  PHE157     -0.1976
     40  CA      -205.4350  148.3050   -2.5260 C.3   157  PHE157      0.1639
     41  C       -205.3380  149.7370   -2.0030 C.2   157  PHE157      0.2290
     42  O       -204.2740  150.3570   -2.0370 O.2   157  PHE157     -0.2864
     43  CB      -205.1070  147.3210   -1.4030 C.3   157  PHE157      0.0560
     44  CG      -205.3900  145.8880   -1.7530 C.ar  157  PHE157     -0.0200
     45  CD1     -204.3740  144.9500   -1.7700 C.ar  157  PHE157     -0.0042
     46  CD2     -206.6790  145.4760   -2.0560 C.ar  157  PHE157     -0.0042
     47  CE1     -204.6380  143.6210   -2.0810 C.ar  157  PHE157     -0.0003
     48  CE2     -206.9460  144.1500   -2.3660 C.ar  157  PHE157     -0.0003
     49  CZ      -205.9240  143.2240   -2.3780 C.ar  157  PHE157     -0.0000
     50  N       -206.1340  133.4460   -0.9980 N.3   189  LEU189     -0.1245
     51  CA      -206.2090  134.8820   -0.7060 C.3   189  LEU189      0.1561
     52  C       -206.1860  135.1220    0.8090 C.2   189  LEU189      0.2260
     53  O       -207.1690  134.8800    1.5120 O.2   189  LEU189     -0.2867
     54  CB      -207.4820  135.4830   -1.3290 C.3   189  LEU189      0.0270
     55  CG      -207.6380  137.0070   -1.3430 C.3   189  LEU189      0.0019
     56  CD1     -206.4180  137.6340   -1.9690 C.3   189  LEU189      0.0001
     57  CD2     -208.8860  137.4040   -2.1170 C.3   189  LEU189      0.0001
     58  N       -201.9510  136.9100   -2.8090 N.3   213  MET213     -0.1245
     59  CA      -203.0900  136.4770   -3.5940 C.3   213  MET213      0.1570
     60  C       -202.6440  135.6820   -4.8020 C.2   213  MET213      0.2261
     61  O       -201.6120  135.9670   -5.4030 O.2   213  MET213     -0.2867
     62  CB      -203.9200  137.6760   -4.0460 C.3   213  MET213      0.0387
     63  CG      -203.4370  138.3200   -5.3190 C.3   213  MET213      0.0595
     64  SD      -204.4280  139.7560   -5.7450 S.3   213  MET213     -0.1393
     65  CE      -203.8260  140.9210   -4.5340 C.3   213  MET213      0.0692
     66  N       -203.7370  135.4950   -8.2240 N.3   215  GLY215     -0.1210
     67  CA      -204.6010  136.2920   -9.0700 C.3   215  GLY215      0.1956
     68  C       -205.4470  135.4630  -10.0170 C.2   215  GLY215      0.2611
     69  O       -206.6290  135.7410  -10.1930 O.2   215  GLY215     -0.2717
     70  N       -204.8480  134.4440  -10.6250 N.am  216  ARG216     -0.1979
     71  CA      -205.5540  133.5910  -11.5750 C.3   216  ARG216      0.1597
     72  C       -206.6860  132.8370  -10.9030 C.2   216  ARG216      0.2287
     73  O       -207.7780  132.7060  -11.4510 O.2   216  ARG216     -0.2864
     74  CB      -204.5900  132.5900  -12.2040 C.3   216  ARG216      0.0334
     75  CG      -205.2760  131.4530  -12.9260 C.3   216  ARG216      0.0492
     76  CD      -206.1700  131.9530  -14.0610 C.3   216  ARG216      0.2205
     77  NE      -206.1590  131.0310  -15.1960 N.pl3 216  ARG216     -0.0865
     78  CZ      -205.3120  131.1230  -16.2180 C.cat 216  ARG216      0.5346
     79  NH1     -204.4120  132.0980  -16.2510 N.pl3 216  ARG216      0.1354
     80  NH2     -205.3480  130.2340  -17.2010 N.pl3 216  ARG216      0.1354
     81  N       -208.2930  133.6180   -8.1040 N.3   218  ILE218     -0.1231
     82  CA      -209.3570  134.4520   -7.6070 C.3   218  ILE218      0.1692
     83  C       -209.9910  135.2820   -8.7210 C.2   218  ILE218      0.2592
     84  O       -211.0670  135.8410   -8.5440 O.2   218  ILE218     -0.2718
     85  CB      -208.8540  135.3600   -6.4690 C.3   218  ILE218      0.0266
     86  CG1     -207.8290  136.3590   -6.9910 C.3   218  ILE218      0.0019
     87  CG2     -208.2250  134.5030   -5.3860 C.3   218  ILE218      0.0020
     88  CD1     -207.3110  137.2980   -5.9120 C.3   218  ILE218      0.0001
     89  N       -209.3400  135.3420   -9.8790 N.am  219  PHE219     -0.1976
     90  CA      -209.9270  136.0200  -11.0370 C.3   219  PHE219      0.1639
     91  C       -211.0290  135.1790  -11.6700 C.2   219  PHE219      0.2290
     92  O       -212.1470  135.6490  -11.8670 O.2   219  PHE219     -0.2864
     93  CB      -208.8650  136.3190  -12.0950 C.3   219  PHE219      0.0560
     94  CG      -209.3950  137.0890  -13.2670 C.ar  219  PHE219     -0.0200
     95  CD1     -209.7120  138.4340  -13.1410 C.ar  219  PHE219     -0.0042
     96  CD2     -209.6100  136.4670  -14.4860 C.ar  219  PHE219     -0.0042
     97  CE1     -210.2350  139.1390  -14.2050 C.ar  219  PHE219     -0.0003
     98  CE2     -210.1350  137.1690  -15.5560 C.ar  219  PHE219     -0.0003
     99  CZ      -210.4470  138.5050  -15.4120 C.ar  219  PHE219     -0.0000
    100  N       -212.4670  132.4450  -10.3920 N.3   221  PHE221     -0.1227
    101  CA      -213.4600  132.3030   -9.3420 C.3   221  PHE221      0.1736
    102  C       -214.5180  133.4090   -9.4050 C.2   221  PHE221      0.2595
    103  O       -215.7190  133.1250   -9.4450 O.2   221  PHE221     -0.2718
    104  CB      -212.7780  132.3310   -7.9670 C.3   221  PHE221      0.0547
    105  CG      -213.6950  132.7420   -6.8570 C.ar  221  PHE221     -0.0202
    106  CD1     -213.5680  133.9870   -6.2630 C.ar  221  PHE221     -0.0042
    107  CD2     -214.7290  131.9060   -6.4510 C.ar  221  PHE221     -0.0042
    108  CE1     -214.4570  134.4030   -5.2840 C.ar  221  PHE221     -0.0003
    109  CE2     -215.6270  132.3110   -5.4720 C.ar  221  PHE221     -0.0003
    110  CZ      -215.4920  133.5630   -4.8870 C.ar  221  PHE221     -0.0000
    111  N       -214.0700  134.6640   -9.4040 N.am  222  ALA222     -0.1980
    112  CA      -214.9950  135.7920   -9.3880 C.3   222  ALA222      0.1597
    113  C       -215.8930  135.7270  -10.6130 C.2   222  ALA222      0.2287
    114  O       -217.1190  135.8320  -10.5100 O.2   222  ALA222     -0.2864
    115  CB      -214.2300  137.1200   -9.3680 C.3   222  ALA222      0.0319
    116  N       -218.2090  144.8460   -5.4870 N.3   245  HIS245     -0.1241
    117  CA      -216.8870  145.0360   -4.9150 C.3   245  HIS245      0.1621
    118  C       -215.8950  145.4640   -5.9920 C.2   245  HIS245      0.2264
    119  O       -215.8750  144.9050   -7.0810 O.2   245  HIS245     -0.2867
    120  CB      -216.3970  143.7350   -4.2810 C.3   245  HIS245      0.0745
    121  CG      -214.9390  143.7480   -3.9640 C.ar  245  HIS245      0.0817
    122  ND1     -214.3430  144.7740   -3.2620 N.ar  245  HIS245     -0.2268
    123  CD2     -213.9490  142.8860   -4.2840 C.ar  245  HIS245      0.1154
    124  CE1     -213.0480  144.5430   -3.1650 C.ar  245  HIS245      0.1986
    125  NE2     -212.7830  143.4050   -3.7770 N.ar  245  HIS245     -0.2212
    126  N       -212.9260  144.9800   -7.0390 N.3   247  ALA247     -0.1231
    127  CA      -211.7410  144.1370   -7.2240 C.3   247  ALA247      0.1694
    128  C       -210.8910  144.5710   -8.4110 C.2   247  ALA247      0.2592
    129  O       -209.6660  144.6550   -8.3130 O.2   247  ALA247     -0.2718
    130  CB      -212.1620  142.6850   -7.4140 C.3   247  ALA247      0.0304
    131  N       -211.5570  144.8330   -9.5310 N.am  248  ASN248     -0.1974
    132  CA      -210.8950  145.0970  -10.8000 C.3   248  ASN248      0.1688
    133  C       -211.9610  145.2920  -11.8760 C.2   248  ASN248      0.2292
    134  O       -212.7110  144.3640  -12.1960 O.2   248  ASN248     -0.2864
    135  CB      -209.9950  143.9190  -11.1680 C.3   248  ASN248      0.1181
    136  CG      -209.3140  144.1040  -12.5020 C.2   248  ASN248      0.2629
    137  OD1     -209.4270  143.2580  -13.3870 O.2   248  ASN248     -0.2716
    138  ND2     -208.6000  145.2130  -12.6570 N.am  248  ASN248     -0.0877
    139  N       -212.0310  145.3690  -14.9480 N.3   250  ARG250     -0.1231
    140  CA      -211.9810  144.3450  -15.9800 C.3   250  ARG250      0.1694
    141  C       -212.8310  143.1400  -15.5570 C.2   250  ARG250      0.2591
    142  O       -213.3620  142.4160  -16.4030 O.2   250  ARG250     -0.2718
    143  CB      -210.5240  143.9280  -16.1920 C.3   250  ARG250      0.0321
    144  CG      -210.2270  143.2050  -17.4880 C.3   250  ARG250      0.0489
    145  CD      -208.8770  142.4890  -17.4030 C.3   250  ARG250      0.2205
    146  NE      -207.9430  143.1970  -16.5370 N.pl3 250  ARG250     -0.0865
    147  CZ      -207.1190  144.1490  -16.9540 C.cat 250  ARG250      0.5346
    148  NH1     -207.1050  144.5030  -18.2330 N.pl3 250  ARG250      0.1354
    149  NH2     -206.3370  144.7770  -16.0870 N.pl3 250  ARG250      0.1354
    150  N       -212.9610  142.9310  -14.2470 N.am  251  ILE251     -0.1980
    151  CA      -213.7880  141.8430  -13.7230 C.3   251  ILE251      0.1595
    152  C       -215.2660  142.1930  -13.8270 C.2   251  ILE251      0.2287
    153  O       -216.0960  141.3310  -14.1150 O.2   251  ILE251     -0.2864
    154  CB      -213.4850  141.5380  -12.2330 C.3   251  ILE251      0.0276
    155  CG1     -212.0380  141.0710  -12.0620 C.3   251  ILE251      0.0022
    156  CG2     -214.4440  140.4620  -11.7190 C.3   251  ILE251      0.0022
    157  CD1     -211.7000  140.6410  -10.6470 C.3   251  ILE251      0.0001
    158  N       -208.7470  149.4760   -4.6640 N.3   275  ASN275     -0.1240
    159  CA      -209.5210  148.4450   -3.9890 C.3   275  ASN275      0.1653
    160  C       -209.4540  148.6650   -2.4820 C.2   275  ASN275      0.2266
    161  O       -208.4040  148.4790   -1.8680 O.2   275  ASN275     -0.2867
    162  CB      -208.9580  147.0670   -4.3330 C.3   275  ASN275      0.1155
    163  CG      -209.7240  145.9430   -3.6720 C.2   275  ASN275      0.2627
    164  OD1     -210.3990  146.1430   -2.6630 O.2   275  ASN275     -0.2716
    165  ND2     -209.6240  144.7450   -4.2430 N.am  275  ASN275     -0.0877
    166  N       -217.2790  139.9470   -3.1150 N.3   307  PHE307     -0.1227
    167  CA      -216.5170  138.7120   -3.1390 C.3   307  PHE307      0.1736
    168  C       -215.0990  139.0070   -2.6700 C.2   307  PHE307      0.2596
    169  O       -214.5820  140.1080   -2.8730 O.2   307  PHE307     -0.2718
    170  CB      -216.5160  138.1280   -4.5560 C.3   307  PHE307      0.0547
    171  CG      -216.4400  139.1680   -5.6310 C.ar  307  PHE307     -0.0202
    172  CD1     -215.2360  139.4890   -6.2130 C.ar  307  PHE307     -0.0042
    173  CD2     -217.5720  139.8560   -6.0250 C.ar  307  PHE307     -0.0042
    174  CE1     -215.1540  140.4770   -7.1600 C.ar  307  PHE307     -0.0003
    175  CE2     -217.4990  140.8510   -6.9750 C.ar  307  PHE307     -0.0003
    176  CZ      -216.2860  141.1640   -7.5420 C.ar  307  PHE307     -0.0000
    177  N       -214.4840  138.0260   -2.0220 N.am  308  GLY308     -0.1957
    178  CA      -213.1590  138.2260   -1.4750 C.3   308  GLY308      0.1869
    179  C       -212.6100  136.9410   -0.8930 C.2   308  GLY308      0.2309
    180  O       -213.1630  135.8600   -1.1260 O.2   308  GLY308     -0.2863
    181  N       -212.8440  131.3420    0.6580 N.3   311  LEU311     -0.1245
    182  CA      -213.3480  132.3480   -0.2730 C.3   311  LEU311      0.1561
    183  C       -214.7750  132.6890    0.1260 C.2   311  LEU311      0.2260
    184  O       -215.4580  131.8750    0.7450 O.2   311  LEU311     -0.2867
    185  CB      -213.3420  131.7690   -1.6930 C.3   311  LEU311      0.0270
    186  CG      -212.5300  132.4070   -2.8260 C.3   311  LEU311      0.0019
    187  CD1     -211.1840  132.8990   -2.3270 C.3   311  LEU311      0.0001
    188  CD2     -212.3460  131.3730   -3.9370 C.3   311  LEU311      0.0001
@<TRIPOS>BOND
     1   148   147    1
     2   144   145    1
     3   144   143    1
     4   145   146    1
     5    80    78    1
     6   147   146    2
     7   147   149    1
     8   142   141    2
     9    79    78    1
    10    78    77    2
    11   143   140    1
    12   140   141    1
    13   140   139    1
    14     1     2    1
    15   141   150   am
    16    98    99   ar
    17    98    96   ar
    18    99    97   ar
    19    77    76    1
    20     2     5    1
    21     2     3    1
    22    96    94   ar
    23     5     6    1
    24   150   151    1
    25    97    95   ar
    26     3     4    2
    27     3    12   am
    28   153   152    2
    29    76    75    1
    30     7     6    1
    31     7     8    1
    32    10     9    1
    33   152   151    1
    34   151   154    1
    35    12    13    1
    36   137   136    2
    37    94    95   ar
    38    94    93    1
    39    75    74    1
    40    14    13    1
    41    14    15    2
    42     9     8    2
    43     9    11    1
    44   138   136   am
    45   136   135    1
    46    13    16    1
    47   154   155    1
    48   154   156    1
    49    74    71    1
    50   134   133    2
    51    93    90    1
    52   155   157    1
    53   133   132    1
    54    92    91    2
    55    91    90    1
    56    71    72    1
    57    71    70    1
    58    17    16    1
    59    73    72    2
    60    16    18    1
    61   135   132    1
    62    90    89    1
    63   132   131    1
    64    70    68   am
    65   113   114    2
    66   113   112    1
    67   100   101    1
    68    69    68    2
    69    68    67    1
    70    89    83   am
    71   131   128   am
    72   103   102    2
    73   102   111   am
    74   102   101    1
    75   111   112    1
    76   112   115    1
    77   101   104    1
    78    67    66    1
    79    83    84    2
    80    83    82    1
    81   128   129    2
    82   128   127    1
    83    38    36    1
    84    30    29    1
    85    81    82    1
    86    26    29    1
    87    26    25    1
    88    26    27    1
    89   104   105    1
    90    28    27    2
    91    82    85    1
    92   176   174   ar
    93   176   175   ar
    94   130   127    1
    95   127   126    1
    96   174   172   ar
    97   119   118    2
    98    86    85    1
    99    86    88    1
   100   175   173   ar
   101   105   107   ar
   102   105   106   ar
   103    36    37    1
   104    36    35    1
   105    85    87    1
   106   107   109   ar
   107   106   108   ar
   108   172   171   ar
   109   173   171   ar
   110   118   117    1
   111    32    35    1
   112    32    31    1
   113    32    33    1
   114    64    63    1
   115    64    65    1
   116   171   170    1
   117   116   117    1
   118   109   110   ar
   119    61    60    2
   120    63    62    1
   121   108   110   ar
   122    34    33    2
   123    33    39   am
   124   117   120    1
   125    60    59    1
   126   158   159    1
   127   170   167    1
   128   162   159    1
   129   162   163    1
   130   123   121   ar
   131   123   125   ar
   132   120   121    1
   133   165   163   am
   134    62    59    1
   135   159   160    1
   136   121   122   ar
   137   188   186    1
   138   125   124   ar
   139    39    40    1
   140   163   164    2
   141    59    58    1
   142   122   124   ar
   143   167   166    1
   144   167   168    1
   145   169   168    2
   146   186   187    1
   147   186   185    1
   148   168   177   am
   149    40    41    1
   150    40    43    1
   151   160   161    2
   152    49    48   ar
   153    49    47   ar
   154    48    46   ar
   155    57    55    1
   156    47    45   ar
   157    46    44   ar
   158    42    41    2
   159   177   178    1
   160    56    55    1
   161    45    44   ar
   162    44    43    1
   163   185   182    1
   164   178   179    1
   165    55    54    1
   166    54    51    1
   167   180   179    2
   168    50    51    1
   169    24    23    1
   170    23    20    1
   171    51    52    1
   172   182   183    1
   173   182   181    1
   174    22    21    2
   175   183   184    2
   176    21    20    1
   177    20    19    1
   178    52    53    2
